 LS-DYNA keyword deck by LS-PrePost                                      
                    ls-dyna smp d R14 R14.1.1s_1_ef50e1 date 06/16/2024

 n o d a l   f o r c e/e n e r g y    o u t p u t  t=   0.00000E+00

 velocity boundary condition forces/rigid body moments 

 nd#     179  xforce=   0.0000E+00   yforce=   0.0000E+00  zforce=   0.0000E+00   energy=   0.0000E+00   setid =     179 xmoment=   0.0000E+00 ymoment=   0.0000E+00 zmoment=   0.0000E+00
 nd#     180  xforce=   0.0000E+00   yforce=   0.0000E+00  zforce=   0.0000E+00   energy=   0.0000E+00   setid =     180 xmoment=   0.0000E+00 ymoment=   0.0000E+00 zmoment=   0.0000E+00
 nd#     181  xforce=   0.0000E+00   yforce=   0.0000E+00  zforce=   0.0000E+00   energy=   0.0000E+00   setid =     181 xmoment=   0.0000E+00 ymoment=   0.0000E+00 zmoment=   0.0000E+00
 nd#     182  xforce=   0.0000E+00   yforce=   0.0000E+00  zforce=   0.0000E+00   energy=   0.0000E+00   setid =     182 xmoment=   0.0000E+00 ymoment=   0.0000E+00 zmoment=   0.0000E+00
 nd#     247  xforce=   0.0000E+00   yforce=   0.0000E+00  zforce=   0.0000E+00   energy=   0.0000E+00   setid =     247 xmoment=   0.0000E+00 ymoment=   0.0000E+00 zmoment=   0.0000E+00
 nd#     248  xforce=   0.0000E+00   yforce=   0.0000E+00  zforce=   0.0000E+00   energy=   0.0000E+00   setid =     248 xmoment=   0.0000E+00 ymoment=   0.0000E+00 zmoment=   0.0000E+00
 nd#     249  xforce=   0.0000E+00   yforce=   0.0000E+00  zforce=   0.0000E+00   energy=   0.0000E+00   setid =     249 xmoment=   0.0000E+00 ymoment=   0.0000E+00 zmoment=   0.0000E+00
 nd#     250  xforce=   0.0000E+00   yforce=   0.0000E+00  zforce=   0.0000E+00   energy=   0.0000E+00   setid =     250 xmoment=   0.0000E+00 ymoment=   0.0000E+00 zmoment=   0.0000E+00
 nd#     283  xforce=   0.0000E+00   yforce=   0.0000E+00  zforce=   0.0000E+00   energy=   0.0000E+00   setid =     283 xmoment=   0.0000E+00 ymoment=   0.0000E+00 zmoment=   0.0000E+00
 nd#     284  xforce=   0.0000E+00   yforce=   0.0000E+00  zforce=   0.0000E+00   energy=   0.0000E+00   setid =     284 xmoment=   0.0000E+00 ymoment=   0.0000E+00 zmoment=   0.0000E+00
 nd#     333  xforce=   0.0000E+00   yforce=   0.0000E+00  zforce=   0.0000E+00   energy=   0.0000E+00   setid =     333 xmoment=   0.0000E+00 ymoment=   0.0000E+00 zmoment=   0.0000E+00
 nd#     334  xforce=   0.0000E+00   yforce=   0.0000E+00  zforce=   0.0000E+00   energy=   0.0000E+00   setid =     334 xmoment=   0.0000E+00 ymoment=   0.0000E+00 zmoment=   0.0000E+00
 nd#     335  xforce=   0.0000E+00   yforce=   0.0000E+00  zforce=   0.0000E+00   energy=   0.0000E+00   setid =     335 xmoment=   0.0000E+00 ymoment=   0.0000E+00 zmoment=   0.0000E+00
 nd#     368  xforce=   0.0000E+00   yforce=   0.0000E+00  zforce=   0.0000E+00   energy=   0.0000E+00   setid =     368 xmoment=   0.0000E+00 ymoment=   0.0000E+00 zmoment=   0.0000E+00
 nd#     369  xforce=   0.0000E+00   yforce=   0.0000E+00  zforce=   0.0000E+00   energy=   0.0000E+00   setid =     369 xmoment=   0.0000E+00 ymoment=   0.0000E+00 zmoment=   0.0000E+00
 nd#     386  xforce=   0.0000E+00   yforce=   0.0000E+00  zforce=   0.0000E+00   energy=   0.0000E+00   setid =     386 xmoment=   0.0000E+00 ymoment=   0.0000E+00 zmoment=   0.0000E+00
 nd#     403  xforce=   0.0000E+00   yforce=   0.0000E+00  zforce=   0.0000E+00   energy=   0.0000E+00   setid =     403 xmoment=   0.0000E+00 ymoment=   0.0000E+00 zmoment=   0.0000E+00
 nd#     436  xforce=   0.0000E+00   yforce=   0.0000E+00  zforce=   0.0000E+00   energy=   0.0000E+00   setid =     436 xmoment=   0.0000E+00 ymoment=   0.0000E+00 zmoment=   0.0000E+00
 nd#     437  xforce=   0.0000E+00   yforce=   0.0000E+00  zforce=   0.0000E+00   energy=   0.0000E+00   setid =     437 xmoment=   0.0000E+00 ymoment=   0.0000E+00 zmoment=   0.0000E+00
 nd#     438  xforce=   0.0000E+00   yforce=   0.0000E+00  zforce=   0.0000E+00   energy=   0.0000E+00   setid =     438 xmoment=   0.0000E+00 ymoment=   0.0000E+00 zmoment=   0.0000E+00
 nd#     439  xforce=   0.0000E+00   yforce=   0.0000E+00  zforce=   0.0000E+00   energy=   0.0000E+00   setid =     439 xmoment=   0.0000E+00 ymoment=   0.0000E+00 zmoment=   0.0000E+00
 nd#     440  xforce=   0.0000E+00   yforce=   0.0000E+00  zforce=   0.0000E+00   energy=   0.0000E+00   setid =     440 xmoment=   0.0000E+00 ymoment=   0.0000E+00 zmoment=   0.0000E+00
 nd#     441  xforce=   0.0000E+00   yforce=   0.0000E+00  zforce=   0.0000E+00   energy=   0.0000E+00   setid =     441 xmoment=   0.0000E+00 ymoment=   0.0000E+00 zmoment=   0.0000E+00
 nd#     442  xforce=   0.0000E+00   yforce=   0.0000E+00  zforce=   0.0000E+00   energy=   0.0000E+00   setid =     442 xmoment=   0.0000E+00 ymoment=   0.0000E+00 zmoment=   0.0000E+00
 nd#     443  xforce=   0.0000E+00   yforce=   0.0000E+00  zforce=   0.0000E+00   energy=   0.0000E+00   setid =     443 xmoment=   0.0000E+00 ymoment=   0.0000E+00 zmoment=   0.0000E+00
 nd#     444  xforce=   0.0000E+00   yforce=   0.0000E+00  zforce=   0.0000E+00   energy=   0.0000E+00   setid =     444 xmoment=   0.0000E+00 ymoment=   0.0000E+00 zmoment=   0.0000E+00
 nd#     628  xforce=   0.0000E+00   yforce=   0.0000E+00  zforce=   0.0000E+00   energy=   0.0000E+00   setid =     628 xmoment=   0.0000E+00 ymoment=   0.0000E+00 zmoment=   0.0000E+00
 nd#     631  xforce=   0.0000E+00   yforce=   0.0000E+00  zforce=   0.0000E+00   energy=   0.0000E+00   setid =     631 xmoment=   0.0000E+00 ymoment=   0.0000E+00 zmoment=   0.0000E+00
 nd#     632  xforce=   0.0000E+00   yforce=   0.0000E+00  zforce=   0.0000E+00   energy=   0.0000E+00   setid =     632 xmoment=   0.0000E+00 ymoment=   0.0000E+00 zmoment=   0.0000E+00
 nd#     635  xforce=   0.0000E+00   yforce=   0.0000E+00  zforce=   0.0000E+00   energy=   0.0000E+00   setid =     635 xmoment=   0.0000E+00 ymoment=   0.0000E+00 zmoment=   0.0000E+00
 nd#     636  xforce=   0.0000E+00   yforce=   0.0000E+00  zforce=   0.0000E+00   energy=   0.0000E+00   setid =     636 xmoment=   0.0000E+00 ymoment=   0.0000E+00 zmoment=   0.0000E+00
 nd#     639  xforce=   0.0000E+00   yforce=   0.0000E+00  zforce=   0.0000E+00   energy=   0.0000E+00   setid =     639 xmoment=   0.0000E+00 ymoment=   0.0000E+00 zmoment=   0.0000E+00
 nd#     640  xforce=   0.0000E+00   yforce=   0.0000E+00  zforce=   0.0000E+00   energy=   0.0000E+00   setid =     640 xmoment=   0.0000E+00 ymoment=   0.0000E+00 zmoment=   0.0000E+00
 nd#     643  xforce=   0.0000E+00   yforce=   0.0000E+00  zforce=   0.0000E+00   energy=   0.0000E+00   setid =     643 xmoment=   0.0000E+00 ymoment=   0.0000E+00 zmoment=   0.0000E+00
 nd#     692  xforce=   0.0000E+00   yforce=   0.0000E+00  zforce=   0.0000E+00   energy=   0.0000E+00   setid =     692 xmoment=   0.0000E+00 ymoment=   0.0000E+00 zmoment=   0.0000E+00
 nd#     694  xforce=   0.0000E+00   yforce=   0.0000E+00  zforce=   0.0000E+00   energy=   0.0000E+00   setid =     694 xmoment=   0.0000E+00 ymoment=   0.0000E+00 zmoment=   0.0000E+00
 nd#     696  xforce=   0.0000E+00   yforce=   0.0000E+00  zforce=   0.0000E+00   energy=   0.0000E+00   setid =     696 xmoment=   0.0000E+00 ymoment=   0.0000E+00 zmoment=   0.0000E+00
 nd#     698  xforce=   0.0000E+00   yforce=   0.0000E+00  zforce=   0.0000E+00   energy=   0.0000E+00   setid =     698 xmoment=   0.0000E+00 ymoment=   0.0000E+00 zmoment=   0.0000E+00
 nd#     900  xforce=   0.0000E+00   yforce=   0.0000E+00  zforce=   0.0000E+00   energy=   0.0000E+00   setid =     900 xmoment=   0.0000E+00 ymoment=   0.0000E+00 zmoment=   0.0000E+00
 nd#     902  xforce=   0.0000E+00   yforce=   0.0000E+00  zforce=   0.0000E+00   energy=   0.0000E+00   setid =     902 xmoment=   0.0000E+00 ymoment=   0.0000E+00 zmoment=   0.0000E+00
 nd#     903  xforce=   0.0000E+00   yforce=   0.0000E+00  zforce=   0.0000E+00   energy=   0.0000E+00   setid =     903 xmoment=   0.0000E+00 ymoment=   0.0000E+00 zmoment=   0.0000E+00
 nd#     905  xforce=   0.0000E+00   yforce=   0.0000E+00  zforce=   0.0000E+00   energy=   0.0000E+00   setid =     905 xmoment=   0.0000E+00 ymoment=   0.0000E+00 zmoment=   0.0000E+00
 nd#     906  xforce=   0.0000E+00   yforce=   0.0000E+00  zforce=   0.0000E+00   energy=   0.0000E+00   setid =     906 xmoment=   0.0000E+00 ymoment=   0.0000E+00 zmoment=   0.0000E+00
 nd#     908  xforce=   0.0000E+00   yforce=   0.0000E+00  zforce=   0.0000E+00   energy=   0.0000E+00   setid =     908 xmoment=   0.0000E+00 ymoment=   0.0000E+00 zmoment=   0.0000E+00
 nd#     909  xforce=   0.0000E+00   yforce=   0.0000E+00  zforce=   0.0000E+00   energy=   0.0000E+00   setid =     909 xmoment=   0.0000E+00 ymoment=   0.0000E+00 zmoment=   0.0000E+00
 nd#     911  xforce=   0.0000E+00   yforce=   0.0000E+00  zforce=   0.0000E+00   energy=   0.0000E+00   setid =     911 xmoment=   0.0000E+00 ymoment=   0.0000E+00 zmoment=   0.0000E+00
 nd#    1012  xforce=   0.0000E+00   yforce=   0.0000E+00  zforce=   0.0000E+00   energy=   0.0000E+00   setid =    1012 xmoment=   0.0000E+00 ymoment=   0.0000E+00 zmoment=   0.0000E+00
 nd#    1013  xforce=   0.0000E+00   yforce=   0.0000E+00  zforce=   0.0000E+00   energy=   0.0000E+00   setid =    1013 xmoment=   0.0000E+00 ymoment=   0.0000E+00 zmoment=   0.0000E+00
 nd#    1014  xforce=   0.0000E+00   yforce=   0.0000E+00  zforce=   0.0000E+00   energy=   0.0000E+00   setid =    1014 xmoment=   0.0000E+00 ymoment=   0.0000E+00 zmoment=   0.0000E+00
 nd#    1015  xforce=   0.0000E+00   yforce=   0.0000E+00  zforce=   0.0000E+00   energy=   0.0000E+00   setid =    1015 xmoment=   0.0000E+00 ymoment=   0.0000E+00 zmoment=   0.0000E+00
 nd#    1060  xforce=   0.0000E+00   yforce=   0.0000E+00  zforce=   0.0000E+00   energy=   0.0000E+00   setid =    1060 xmoment=   0.0000E+00 ymoment=   0.0000E+00 zmoment=   0.0000E+00
 nd#    1061  xforce=   0.0000E+00   yforce=   0.0000E+00  zforce=   0.0000E+00   energy=   0.0000E+00   setid =    1061 xmoment=   0.0000E+00 ymoment=   0.0000E+00 zmoment=   0.0000E+00
 nd#    1062  xforce=   0.0000E+00   yforce=   0.0000E+00  zforce=   0.0000E+00   energy=   0.0000E+00   setid =    1062 xmoment=   0.0000E+00 ymoment=   0.0000E+00 zmoment=   0.0000E+00
 nd#    1063  xforce=   0.0000E+00   yforce=   0.0000E+00  zforce=   0.0000E+00   energy=   0.0000E+00   setid =    1063 xmoment=   0.0000E+00 ymoment=   0.0000E+00 zmoment=   0.0000E+00
              xtotal=   0.0000E+00   ytotal=   0.0000E+00  ztotal=   0.0000E+00   etotal=   0.0000E+00

 n o d a l   f o r c e/e n e r g y    o u t p u t  t=   1.29245E+00

 velocity boundary condition forces/rigid body moments 

 nd#     179  xforce=   0.0000E+00   yforce=   0.0000E+00  zforce=  -3.0454E+01   energy=   1.9735E-04   setid =     179 xmoment=   0.0000E+00 ymoment=   0.0000E+00 zmoment=   0.0000E+00
 nd#     180  xforce=   0.0000E+00   yforce=   0.0000E+00  zforce=  -2.9016E+01   energy=   1.8927E-04   setid =     180 xmoment=   0.0000E+00 ymoment=   0.0000E+00 zmoment=   0.0000E+00
 nd#     181  xforce=   0.0000E+00   yforce=   0.0000E+00  zforce=  -3.4556E+01   energy=   2.2302E-04   setid =     181 xmoment=   0.0000E+00 ymoment=   0.0000E+00 zmoment=   0.0000E+00
 nd#     182  xforce=   0.0000E+00   yforce=   0.0000E+00  zforce=  -3.2136E+01   energy=   2.0750E-04   setid =     182 xmoment=   0.0000E+00 ymoment=   0.0000E+00 zmoment=   0.0000E+00
 nd#     247  xforce=   0.0000E+00   yforce=   0.0000E+00  zforce=  -1.6778E+01   energy=   1.0328E-04   setid =     247 xmoment=   0.0000E+00 ymoment=   0.0000E+00 zmoment=   0.0000E+00
 nd#     248  xforce=   0.0000E+00   yforce=   0.0000E+00  zforce=  -2.6922E+01   energy=   1.7492E-04   setid =     248 xmoment=   0.0000E+00 ymoment=   0.0000E+00 zmoment=   0.0000E+00
 nd#     249  xforce=   0.0000E+00   yforce=   0.0000E+00  zforce=  -1.9024E+01   energy=   1.1836E-04   setid =     249 xmoment=   0.0000E+00 ymoment=   0.0000E+00 zmoment=   0.0000E+00
 nd#     250  xforce=   0.0000E+00   yforce=   0.0000E+00  zforce=  -1.1391E+01   energy=   6.8723E-05   setid =     250 xmoment=   0.0000E+00 ymoment=   0.0000E+00 zmoment=   0.0000E+00
 nd#     283  xforce=   0.0000E+00   yforce=   0.0000E+00  zforce=  -1.9583E+01   energy=   1.2010E-04   setid =     283 xmoment=   0.0000E+00 ymoment=   0.0000E+00 zmoment=   0.0000E+00
 nd#     284  xforce=   0.0000E+00   yforce=   0.0000E+00  zforce=  -2.6976E+01   energy=   1.7581E-04   setid =     284 xmoment=   0.0000E+00 ymoment=   0.0000E+00 zmoment=   0.0000E+00
 nd#     333  xforce=   0.0000E+00   yforce=   0.0000E+00  zforce=  -1.8627E+01   energy=   1.2687E-04   setid =     333 xmoment=   0.0000E+00 ymoment=   0.0000E+00 zmoment=   0.0000E+00
 nd#     334  xforce=   0.0000E+00   yforce=   0.0000E+00  zforce=  -1.3507E+01   energy=   9.0107E-05   setid =     334 xmoment=   0.0000E+00 ymoment=   0.0000E+00 zmoment=   0.0000E+00
 nd#     335  xforce=   0.0000E+00   yforce=   0.0000E+00  zforce=  -3.0212E+01   energy=   1.9682E-04   setid =     335 xmoment=   0.0000E+00 ymoment=   0.0000E+00 zmoment=   0.0000E+00
 nd#     368  xforce=   0.0000E+00   yforce=   0.0000E+00  zforce=  -1.4825E+01   energy=   9.4505E-05   setid =     368 xmoment=   0.0000E+00 ymoment=   0.0000E+00 zmoment=   0.0000E+00
 nd#     369  xforce=   0.0000E+00   yforce=   0.0000E+00  zforce=  -1.8839E+01   energy=   1.1985E-04   setid =     369 xmoment=   0.0000E+00 ymoment=   0.0000E+00 zmoment=   0.0000E+00
 nd#     386  xforce=   0.0000E+00   yforce=   0.0000E+00  zforce=  -2.0709E+01   energy=   1.2937E-04   setid =     386 xmoment=   0.0000E+00 ymoment=   0.0000E+00 zmoment=   0.0000E+00
 nd#     403  xforce=   0.0000E+00   yforce=   0.0000E+00  zforce=  -1.7592E+01   energy=   1.1161E-04   setid =     403 xmoment=   0.0000E+00 ymoment=   0.0000E+00 zmoment=   0.0000E+00
 nd#     436  xforce=   0.0000E+00   yforce=   0.0000E+00  zforce=  -3.1486E+01   energy=   2.0349E-04   setid =     436 xmoment=   0.0000E+00 ymoment=   0.0000E+00 zmoment=   0.0000E+00
 nd#     437  xforce=   0.0000E+00   yforce=   0.0000E+00  zforce=  -1.8725E+01   energy=   1.1923E-04   setid =     437 xmoment=   0.0000E+00 ymoment=   0.0000E+00 zmoment=   0.0000E+00
 nd#     438  xforce=   0.0000E+00   yforce=   0.0000E+00  zforce=  -1.5432E+01   energy=   9.8737E-05   setid =     438 xmoment=   0.0000E+00 ymoment=   0.0000E+00 zmoment=   0.0000E+00
 nd#     439  xforce=   0.0000E+00   yforce=   0.0000E+00  zforce=  -1.6336E+01   energy=   1.0497E-04   setid =     439 xmoment=   0.0000E+00 ymoment=   0.0000E+00 zmoment=   0.0000E+00
 nd#     440  xforce=   0.0000E+00   yforce=   0.0000E+00  zforce=  -1.7071E+01   energy=   1.1018E-04   setid =     440 xmoment=   0.0000E+00 ymoment=   0.0000E+00 zmoment=   0.0000E+00
 nd#     441  xforce=   0.0000E+00   yforce=   0.0000E+00  zforce=  -1.7691E+01   energy=   1.1469E-04   setid =     441 xmoment=   0.0000E+00 ymoment=   0.0000E+00 zmoment=   0.0000E+00
 nd#     442  xforce=   0.0000E+00   yforce=   0.0000E+00  zforce=  -1.8230E+01   energy=   1.1876E-04   setid =     442 xmoment=   0.0000E+00 ymoment=   0.0000E+00 zmoment=   0.0000E+00
 nd#     443  xforce=   0.0000E+00   yforce=   0.0000E+00  zforce=  -1.8269E+01   energy=   1.1982E-04   setid =     443 xmoment=   0.0000E+00 ymoment=   0.0000E+00 zmoment=   0.0000E+00
 nd#     444  xforce=   0.0000E+00   yforce=   0.0000E+00  zforce=  -3.5283E+00   energy=   2.4120E-05   setid =     444 xmoment=   0.0000E+00 ymoment=   0.0000E+00 zmoment=   0.0000E+00
 nd#     628  xforce=   0.0000E+00   yforce=   0.0000E+00  zforce=  -3.3841E+01   energy=   2.1961E-04   setid =     628 xmoment=   0.0000E+00 ymoment=   0.0000E+00 zmoment=   0.0000E+00
 nd#     631  xforce=   0.0000E+00   yforce=   0.0000E+00  zforce=  -3.2002E+01   energy=   2.0729E-04   setid =     631 xmoment=   0.0000E+00 ymoment=   0.0000E+00 zmoment=   0.0000E+00
 nd#     632  xforce=   0.0000E+00   yforce=   0.0000E+00  zforce=  -3.3614E+01   energy=   2.1797E-04   setid =     632 xmoment=   0.0000E+00 ymoment=   0.0000E+00 zmoment=   0.0000E+00
 nd#     635  xforce=   0.0000E+00   yforce=   0.0000E+00  zforce=  -3.1354E+01   energy=   2.0312E-04   setid =     635 xmoment=   0.0000E+00 ymoment=   0.0000E+00 zmoment=   0.0000E+00
 nd#     636  xforce=   0.0000E+00   yforce=   0.0000E+00  zforce=  -3.4064E+01   energy=   2.2024E-04   setid =     636 xmoment=   0.0000E+00 ymoment=   0.0000E+00 zmoment=   0.0000E+00
 nd#     639  xforce=   0.0000E+00   yforce=   0.0000E+00  zforce=  -3.1646E+01   energy=   2.0450E-04   setid =     639 xmoment=   0.0000E+00 ymoment=   0.0000E+00 zmoment=   0.0000E+00
 nd#     640  xforce=   0.0000E+00   yforce=   0.0000E+00  zforce=  -1.7810E+01   energy=   1.1440E-04   setid =     640 xmoment=   0.0000E+00 ymoment=   0.0000E+00 zmoment=   0.0000E+00
 nd#     643  xforce=   0.0000E+00   yforce=   0.0000E+00  zforce=  -1.6762E+01   energy=   1.0744E-04   setid =     643 xmoment=   0.0000E+00 ymoment=   0.0000E+00 zmoment=   0.0000E+00
 nd#     692  xforce=   0.0000E+00   yforce=   0.0000E+00  zforce=  -3.5387E+01   energy=   2.3019E-04   setid =     692 xmoment=   0.0000E+00 ymoment=   0.0000E+00 zmoment=   0.0000E+00
 nd#     694  xforce=   0.0000E+00   yforce=   0.0000E+00  zforce=  -3.5561E+01   energy=   2.3095E-04   setid =     694 xmoment=   0.0000E+00 ymoment=   0.0000E+00 zmoment=   0.0000E+00
 nd#     696  xforce=   0.0000E+00   yforce=   0.0000E+00  zforce=  -3.6158E+01   energy=   2.3399E-04   setid =     696 xmoment=   0.0000E+00 ymoment=   0.0000E+00 zmoment=   0.0000E+00
 nd#     698  xforce=   0.0000E+00   yforce=   0.0000E+00  zforce=  -1.8712E+01   energy=   1.2046E-04   setid =     698 xmoment=   0.0000E+00 ymoment=   0.0000E+00 zmoment=   0.0000E+00
 nd#     900  xforce=   0.0000E+00   yforce=   0.0000E+00  zforce=  -3.6974E+01   energy=   2.4261E-04   setid =     900 xmoment=   0.0000E+00 ymoment=   0.0000E+00 zmoment=   0.0000E+00
 nd#     902  xforce=   0.0000E+00   yforce=   0.0000E+00  zforce=  -3.6695E+01   energy=   2.3945E-04   setid =     902 xmoment=   0.0000E+00 ymoment=   0.0000E+00 zmoment=   0.0000E+00
 nd#     903  xforce=   0.0000E+00   yforce=   0.0000E+00  zforce=  -3.7761E+01   energy=   2.4696E-04   setid =     903 xmoment=   0.0000E+00 ymoment=   0.0000E+00 zmoment=   0.0000E+00
 nd#     905  xforce=   0.0000E+00   yforce=   0.0000E+00  zforce=  -3.7199E+01   energy=   2.4215E-04   setid =     905 xmoment=   0.0000E+00 ymoment=   0.0000E+00 zmoment=   0.0000E+00
 nd#     906  xforce=   0.0000E+00   yforce=   0.0000E+00  zforce=  -3.8639E+01   energy=   2.5161E-04   setid =     906 xmoment=   0.0000E+00 ymoment=   0.0000E+00 zmoment=   0.0000E+00
 nd#     908  xforce=   0.0000E+00   yforce=   0.0000E+00  zforce=  -3.7988E+01   energy=   2.4624E-04   setid =     908 xmoment=   0.0000E+00 ymoment=   0.0000E+00 zmoment=   0.0000E+00
 nd#     909  xforce=   0.0000E+00   yforce=   0.0000E+00  zforce=  -1.9717E+01   energy=   1.2798E-04   setid =     909 xmoment=   0.0000E+00 ymoment=   0.0000E+00 zmoment=   0.0000E+00
 nd#     911  xforce=   0.0000E+00   yforce=   0.0000E+00  zforce=  -1.9515E+01   energy=   1.2596E-04   setid =     911 xmoment=   0.0000E+00 ymoment=   0.0000E+00 zmoment=   0.0000E+00
 nd#    1012  xforce=   0.0000E+00   yforce=   0.0000E+00  zforce=  -2.9908E+01   energy=   1.9345E-04   setid =    1012 xmoment=   0.0000E+00 ymoment=   0.0000E+00 zmoment=   0.0000E+00
 nd#    1013  xforce=   0.0000E+00   yforce=   0.0000E+00  zforce=  -2.8925E+01   energy=   1.8723E-04   setid =    1013 xmoment=   0.0000E+00 ymoment=   0.0000E+00 zmoment=   0.0000E+00
 nd#    1014  xforce=   0.0000E+00   yforce=   0.0000E+00  zforce=  -2.9249E+01   energy=   1.8885E-04   setid =    1014 xmoment=   0.0000E+00 ymoment=   0.0000E+00 zmoment=   0.0000E+00
 nd#    1015  xforce=   0.0000E+00   yforce=   0.0000E+00  zforce=  -1.5746E+01   energy=   1.0065E-04   setid =    1015 xmoment=   0.0000E+00 ymoment=   0.0000E+00 zmoment=   0.0000E+00
 nd#    1060  xforce=   0.0000E+00   yforce=   0.0000E+00  zforce=  -6.1238E+00   energy=   4.3381E-05   setid =    1060 xmoment=   0.0000E+00 ymoment=   0.0000E+00 zmoment=   0.0000E+00
 nd#    1061  xforce=   0.0000E+00   yforce=   0.0000E+00  zforce=  -4.1322E+00   energy=   3.1985E-05   setid =    1061 xmoment=   0.0000E+00 ymoment=   0.0000E+00 zmoment=   0.0000E+00
 nd#    1062  xforce=   0.0000E+00   yforce=   0.0000E+00  zforce=  -1.8301E+00   energy=   1.9262E-05   setid =    1062 xmoment=   0.0000E+00 ymoment=   0.0000E+00 zmoment=   0.0000E+00
 nd#    1063  xforce=   0.0000E+00   yforce=   0.0000E+00  zforce=  -5.5989E-01   energy=   8.0327E-06   setid =    1063 xmoment=   0.0000E+00 ymoment=   0.0000E+00 zmoment=   0.0000E+00
              xtotal=   0.0000E+00   ytotal=   0.0000E+00  ztotal=  -1.2758E+03   etotal=   8.2674E-03

 n o d a l   f o r c e/e n e r g y    o u t p u t  t=   2.54839E+00

 velocity boundary condition forces/rigid body moments 

 nd#     179  xforce=   0.0000E+00   yforce=   0.0000E+00  zforce=  -5.8768E+01   energy=   7.5763E-04   setid =     179 xmoment=   0.0000E+00 ymoment=   0.0000E+00 zmoment=   0.0000E+00
 nd#     180  xforce=   0.0000E+00   yforce=   0.0000E+00  zforce=  -5.5486E+01   energy=   7.1992E-04   setid =     180 xmoment=   0.0000E+00 ymoment=   0.0000E+00 zmoment=   0.0000E+00
 nd#     181  xforce=   0.0000E+00   yforce=   0.0000E+00  zforce=  -6.6079E+01   energy=   8.5498E-04   setid =     181 xmoment=   0.0000E+00 ymoment=   0.0000E+00 zmoment=   0.0000E+00
 nd#     182  xforce=   0.0000E+00   yforce=   0.0000E+00  zforce=  -6.1625E+01   energy=   7.9630E-04   setid =     182 xmoment=   0.0000E+00 ymoment=   0.0000E+00 zmoment=   0.0000E+00
 nd#     247  xforce=   0.0000E+00   yforce=   0.0000E+00  zforce=  -3.6691E+01   energy=   4.3905E-04   setid =     247 xmoment=   0.0000E+00 ymoment=   0.0000E+00 zmoment=   0.0000E+00
 nd#     248  xforce=   0.0000E+00   yforce=   0.0000E+00  zforce=  -5.0516E+01   energy=   6.6121E-04   setid =     248 xmoment=   0.0000E+00 ymoment=   0.0000E+00 zmoment=   0.0000E+00
 nd#     249  xforce=   0.0000E+00   yforce=   0.0000E+00  zforce=  -3.9003E+01   energy=   4.8276E-04   setid =     249 xmoment=   0.0000E+00 ymoment=   0.0000E+00 zmoment=   0.0000E+00
 nd#     250  xforce=   0.0000E+00   yforce=   0.0000E+00  zforce=  -2.5488E+01   energy=   3.0031E-04   setid =     250 xmoment=   0.0000E+00 ymoment=   0.0000E+00 zmoment=   0.0000E+00
 nd#     283  xforce=   0.0000E+00   yforce=   0.0000E+00  zforce=  -4.2022E+01   energy=   5.0695E-04   setid =     283 xmoment=   0.0000E+00 ymoment=   0.0000E+00 zmoment=   0.0000E+00
 nd#     284  xforce=   0.0000E+00   yforce=   0.0000E+00  zforce=  -4.9300E+01   energy=   6.5480E-04   setid =     284 xmoment=   0.0000E+00 ymoment=   0.0000E+00 zmoment=   0.0000E+00
 nd#     333  xforce=   0.0000E+00   yforce=   0.0000E+00  zforce=  -3.2907E+01   energy=   4.5049E-04   setid =     333 xmoment=   0.0000E+00 ymoment=   0.0000E+00 zmoment=   0.0000E+00
 nd#     334  xforce=   0.0000E+00   yforce=   0.0000E+00  zforce=  -2.4689E+01   energy=   3.2996E-04   setid =     334 xmoment=   0.0000E+00 ymoment=   0.0000E+00 zmoment=   0.0000E+00
 nd#     335  xforce=   0.0000E+00   yforce=   0.0000E+00  zforce=  -5.7593E+01   energy=   7.4821E-04   setid =     335 xmoment=   0.0000E+00 ymoment=   0.0000E+00 zmoment=   0.0000E+00
 nd#     368  xforce=   0.0000E+00   yforce=   0.0000E+00  zforce=  -3.0002E+01   energy=   3.7601E-04   setid =     368 xmoment=   0.0000E+00 ymoment=   0.0000E+00 zmoment=   0.0000E+00
 nd#     369  xforce=   0.0000E+00   yforce=   0.0000E+00  zforce=  -3.7630E+01   energy=   4.7447E-04   setid =     369 xmoment=   0.0000E+00 ymoment=   0.0000E+00 zmoment=   0.0000E+00
 nd#     386  xforce=   0.0000E+00   yforce=   0.0000E+00  zforce=  -4.3252E+01   energy=   5.3103E-04   setid =     386 xmoment=   0.0000E+00 ymoment=   0.0000E+00 zmoment=   0.0000E+00
 nd#     403  xforce=   0.0000E+00   yforce=   0.0000E+00  zforce=  -3.5514E+01   energy=   4.4510E-04   setid =     403 xmoment=   0.0000E+00 ymoment=   0.0000E+00 zmoment=   0.0000E+00
 nd#     436  xforce=   0.0000E+00   yforce=   0.0000E+00  zforce=  -6.0833E+01   energy=   7.8322E-04   setid =     436 xmoment=   0.0000E+00 ymoment=   0.0000E+00 zmoment=   0.0000E+00
 nd#     437  xforce=   0.0000E+00   yforce=   0.0000E+00  zforce=  -3.7209E+01   energy=   4.7048E-04   setid =     437 xmoment=   0.0000E+00 ymoment=   0.0000E+00 zmoment=   0.0000E+00
 nd#     438  xforce=   0.0000E+00   yforce=   0.0000E+00  zforce=  -3.0552E+01   energy=   3.8750E-04   setid =     438 xmoment=   0.0000E+00 ymoment=   0.0000E+00 zmoment=   0.0000E+00
 nd#     439  xforce=   0.0000E+00   yforce=   0.0000E+00  zforce=  -3.2027E+01   energy=   4.0867E-04   setid =     439 xmoment=   0.0000E+00 ymoment=   0.0000E+00 zmoment=   0.0000E+00
 nd#     440  xforce=   0.0000E+00   yforce=   0.0000E+00  zforce=  -3.3169E+01   energy=   4.2568E-04   setid =     440 xmoment=   0.0000E+00 ymoment=   0.0000E+00 zmoment=   0.0000E+00
 nd#     441  xforce=   0.0000E+00   yforce=   0.0000E+00  zforce=  -3.4073E+01   energy=   4.3975E-04   setid =     441 xmoment=   0.0000E+00 ymoment=   0.0000E+00 zmoment=   0.0000E+00
 nd#     442  xforce=   0.0000E+00   yforce=   0.0000E+00  zforce=  -3.4776E+01   energy=   4.5163E-04   setid =     442 xmoment=   0.0000E+00 ymoment=   0.0000E+00 zmoment=   0.0000E+00
 nd#     443  xforce=   0.0000E+00   yforce=   0.0000E+00  zforce=  -3.4376E+01   energy=   4.5041E-04   setid =     443 xmoment=   0.0000E+00 ymoment=   0.0000E+00 zmoment=   0.0000E+00
 nd#     444  xforce=   0.0000E+00   yforce=   0.0000E+00  zforce=  -6.0079E+00   energy=   8.4004E-05   setid =     444 xmoment=   0.0000E+00 ymoment=   0.0000E+00 zmoment=   0.0000E+00
 nd#     628  xforce=   0.0000E+00   yforce=   0.0000E+00  zforce=  -6.4594E+01   energy=   8.3776E-04   setid =     628 xmoment=   0.0000E+00 ymoment=   0.0000E+00 zmoment=   0.0000E+00
 nd#     631  xforce=   0.0000E+00   yforce=   0.0000E+00  zforce=  -6.1206E+01   energy=   7.9260E-04   setid =     631 xmoment=   0.0000E+00 ymoment=   0.0000E+00 zmoment=   0.0000E+00
 nd#     632  xforce=   0.0000E+00   yforce=   0.0000E+00  zforce=  -6.4610E+01   energy=   8.3479E-04   setid =     632 xmoment=   0.0000E+00 ymoment=   0.0000E+00 zmoment=   0.0000E+00
 nd#     635  xforce=   0.0000E+00   yforce=   0.0000E+00  zforce=  -6.0418E+01   energy=   7.7942E-04   setid =     635 xmoment=   0.0000E+00 ymoment=   0.0000E+00 zmoment=   0.0000E+00
 nd#     636  xforce=   0.0000E+00   yforce=   0.0000E+00  zforce=  -6.5800E+01   energy=   8.4736E-04   setid =     636 xmoment=   0.0000E+00 ymoment=   0.0000E+00 zmoment=   0.0000E+00
 nd#     639  xforce=   0.0000E+00   yforce=   0.0000E+00  zforce=  -6.1174E+01   energy=   7.8739E-04   setid =     639 xmoment=   0.0000E+00 ymoment=   0.0000E+00 zmoment=   0.0000E+00
 nd#     640  xforce=   0.0000E+00   yforce=   0.0000E+00  zforce=  -3.4832E+01   energy=   4.4497E-04   setid =     640 xmoment=   0.0000E+00 ymoment=   0.0000E+00 zmoment=   0.0000E+00
 nd#     643  xforce=   0.0000E+00   yforce=   0.0000E+00  zforce=  -3.2920E+01   energy=   4.1943E-04   setid =     643 xmoment=   0.0000E+00 ymoment=   0.0000E+00 zmoment=   0.0000E+00
 nd#     692  xforce=   0.0000E+00   yforce=   0.0000E+00  zforce=  -6.7338E+01   energy=   8.7528E-04   setid =     692 xmoment=   0.0000E+00 ymoment=   0.0000E+00 zmoment=   0.0000E+00
 nd#     694  xforce=   0.0000E+00   yforce=   0.0000E+00  zforce=  -6.8141E+01   energy=   8.8217E-04   setid =     694 xmoment=   0.0000E+00 ymoment=   0.0000E+00 zmoment=   0.0000E+00
 nd#     696  xforce=   0.0000E+00   yforce=   0.0000E+00  zforce=  -6.9755E+01   energy=   8.9909E-04   setid =     696 xmoment=   0.0000E+00 ymoment=   0.0000E+00 zmoment=   0.0000E+00
 nd#     698  xforce=   0.0000E+00   yforce=   0.0000E+00  zforce=  -3.6447E+01   energy=   4.6685E-04   setid =     698 xmoment=   0.0000E+00 ymoment=   0.0000E+00 zmoment=   0.0000E+00
 nd#     900  xforce=   0.0000E+00   yforce=   0.0000E+00  zforce=  -6.9295E+01   energy=   9.0994E-04   setid =     900 xmoment=   0.0000E+00 ymoment=   0.0000E+00 zmoment=   0.0000E+00
 nd#     902  xforce=   0.0000E+00   yforce=   0.0000E+00  zforce=  -6.9495E+01   energy=   9.0629E-04   setid =     902 xmoment=   0.0000E+00 ymoment=   0.0000E+00 zmoment=   0.0000E+00
 nd#     903  xforce=   0.0000E+00   yforce=   0.0000E+00  zforce=  -7.1398E+01   energy=   9.3245E-04   setid =     903 xmoment=   0.0000E+00 ymoment=   0.0000E+00 zmoment=   0.0000E+00
 nd#     905  xforce=   0.0000E+00   yforce=   0.0000E+00  zforce=  -7.0959E+01   energy=   9.2135E-04   setid =     905 xmoment=   0.0000E+00 ymoment=   0.0000E+00 zmoment=   0.0000E+00
 nd#     906  xforce=   0.0000E+00   yforce=   0.0000E+00  zforce=  -7.3710E+01   energy=   9.5713E-04   setid =     906 xmoment=   0.0000E+00 ymoment=   0.0000E+00 zmoment=   0.0000E+00
 nd#     908  xforce=   0.0000E+00   yforce=   0.0000E+00  zforce=  -7.3092E+01   energy=   9.4379E-04   setid =     908 xmoment=   0.0000E+00 ymoment=   0.0000E+00 zmoment=   0.0000E+00
 nd#     909  xforce=   0.0000E+00   yforce=   0.0000E+00  zforce=  -3.7818E+01   energy=   4.8929E-04   setid =     909 xmoment=   0.0000E+00 ymoment=   0.0000E+00 zmoment=   0.0000E+00
 nd#     911  xforce=   0.0000E+00   yforce=   0.0000E+00  zforce=  -3.7834E+01   energy=   4.8610E-04   setid =     911 xmoment=   0.0000E+00 ymoment=   0.0000E+00 zmoment=   0.0000E+00
 nd#    1012  xforce=   0.0000E+00   yforce=   0.0000E+00  zforce=  -5.7275E+01   energy=   7.4093E-04   setid =    1012 xmoment=   0.0000E+00 ymoment=   0.0000E+00 zmoment=   0.0000E+00
 nd#    1013  xforce=   0.0000E+00   yforce=   0.0000E+00  zforce=  -5.5891E+01   energy=   7.1985E-04   setid =    1013 xmoment=   0.0000E+00 ymoment=   0.0000E+00 zmoment=   0.0000E+00
 nd#    1014  xforce=   0.0000E+00   yforce=   0.0000E+00  zforce=  -5.6640E+01   energy=   7.2821E-04   setid =    1014 xmoment=   0.0000E+00 ymoment=   0.0000E+00 zmoment=   0.0000E+00
 nd#    1015  xforce=   0.0000E+00   yforce=   0.0000E+00  zforce=  -3.1093E+01   energy=   3.9478E-04   setid =    1015 xmoment=   0.0000E+00 ymoment=   0.0000E+00 zmoment=   0.0000E+00
 nd#    1060  xforce=   0.0000E+00   yforce=   0.0000E+00  zforce=  -9.4486E+00   energy=   1.4117E-04   setid =    1060 xmoment=   0.0000E+00 ymoment=   0.0000E+00 zmoment=   0.0000E+00
 nd#    1061  xforce=   0.0000E+00   yforce=   0.0000E+00  zforce=  -4.9438E+00   energy=   8.8979E-05   setid =    1061 xmoment=   0.0000E+00 ymoment=   0.0000E+00 zmoment=   0.0000E+00
 nd#    1062  xforce=   0.0000E+00   yforce=   0.0000E+00  zforce=   6.5454E-01   energy=   2.6644E-05   setid =    1062 xmoment=   0.0000E+00 ymoment=   0.0000E+00 zmoment=   0.0000E+00
 nd#    1063  xforce=   0.0000E+00   yforce=   0.0000E+00  zforce=   1.7355E+00   energy=   6.5028E-07   setid =    1063 xmoment=   0.0000E+00 ymoment=   0.0000E+00 zmoment=   0.0000E+00
              xtotal=   0.0000E+00   ytotal=   0.0000E+00  ztotal=  -2.4533E+03   etotal=   3.1685E-02

 n o d a l   f o r c e/e n e r g y    o u t p u t  t=   3.47231E+00

 velocity boundary condition forces/rigid body moments 

 nd#     179  xforce=   0.0000E+00   yforce=   0.0000E+00  zforce=  -8.4053E+01   energy=   1.4174E-03   setid =     179 xmoment=   0.0000E+00 ymoment=   0.0000E+00 zmoment=   0.0000E+00
 nd#     180  xforce=   0.0000E+00   yforce=   0.0000E+00  zforce=  -1.1397E+02   energy=   1.5028E-03   setid =     180 xmoment=   0.0000E+00 ymoment=   0.0000E+00 zmoment=   0.0000E+00
 nd#     181  xforce=   0.0000E+00   yforce=   0.0000E+00  zforce=  -1.5485E+02   energy=   1.8756E-03   setid =     181 xmoment=   0.0000E+00 ymoment=   0.0000E+00 zmoment=   0.0000E+00
 nd#     182  xforce=   0.0000E+00   yforce=   0.0000E+00  zforce=  -1.0261E+02   energy=   1.5550E-03   setid =     182 xmoment=   0.0000E+00 ymoment=   0.0000E+00 zmoment=   0.0000E+00
 nd#     247  xforce=   0.0000E+00   yforce=   0.0000E+00  zforce=   9.1210E+01   energy=   1.8719E-04   setid =     247 xmoment=   0.0000E+00 ymoment=   0.0000E+00 zmoment=   0.0000E+00
 nd#     248  xforce=   0.0000E+00   yforce=   0.0000E+00  zforce=  -1.3160E+02   energy=   1.5025E-03   setid =     248 xmoment=   0.0000E+00 ymoment=   0.0000E+00 zmoment=   0.0000E+00
 nd#     249  xforce=   0.0000E+00   yforce=   0.0000E+00  zforce=  -5.6612E+01   energy=   9.2446E-04   setid =     249 xmoment=   0.0000E+00 ymoment=   0.0000E+00 zmoment=   0.0000E+00
 nd#     250  xforce=   0.0000E+00   yforce=   0.0000E+00  zforce=   5.1588E+01   energy=   1.7974E-04   setid =     250 xmoment=   0.0000E+00 ymoment=   0.0000E+00 zmoment=   0.0000E+00
 nd#     283  xforce=   0.0000E+00   yforce=   0.0000E+00  zforce=  -4.2780E+01   energy=   8.9871E-04   setid =     283 xmoment=   0.0000E+00 ymoment=   0.0000E+00 zmoment=   0.0000E+00
 nd#     284  xforce=   0.0000E+00   yforce=   0.0000E+00  zforce=  -2.9751E+02   energy=   2.2569E-03   setid =     284 xmoment=   0.0000E+00 ymoment=   0.0000E+00 zmoment=   0.0000E+00
 nd#     333  xforce=   0.0000E+00   yforce=   0.0000E+00  zforce=   1.2175E+01   energy=   5.4626E-04   setid =     333 xmoment=   0.0000E+00 ymoment=   0.0000E+00 zmoment=   0.0000E+00
 nd#     334  xforce=   0.0000E+00   yforce=   0.0000E+00  zforce=  -1.0472E+02   energy=   9.2780E-04   setid =     334 xmoment=   0.0000E+00 ymoment=   0.0000E+00 zmoment=   0.0000E+00
 nd#     335  xforce=   0.0000E+00   yforce=   0.0000E+00  zforce=  -1.0781E+02   energy=   1.5123E-03   setid =     335 xmoment=   0.0000E+00 ymoment=   0.0000E+00 zmoment=   0.0000E+00
 nd#     368  xforce=   0.0000E+00   yforce=   0.0000E+00  zforce=   4.3985E+01   energy=   3.1141E-04   setid =     368 xmoment=   0.0000E+00 ymoment=   0.0000E+00 zmoment=   0.0000E+00
 nd#     369  xforce=   0.0000E+00   yforce=   0.0000E+00  zforce=  -3.2421E+01   energy=   7.9808E-04   setid =     369 xmoment=   0.0000E+00 ymoment=   0.0000E+00 zmoment=   0.0000E+00
 nd#     386  xforce=   0.0000E+00   yforce=   0.0000E+00  zforce=  -9.3525E+00   energy=   7.7404E-04   setid =     386 xmoment=   0.0000E+00 ymoment=   0.0000E+00 zmoment=   0.0000E+00
 nd#     403  xforce=   0.0000E+00   yforce=   0.0000E+00  zforce=  -1.8170E+01   energy=   6.9310E-04   setid =     403 xmoment=   0.0000E+00 ymoment=   0.0000E+00 zmoment=   0.0000E+00
 nd#     436  xforce=   0.0000E+00   yforce=   0.0000E+00  zforce=  -1.0297E+02   energy=   1.5399E-03   setid =     436 xmoment=   0.0000E+00 ymoment=   0.0000E+00 zmoment=   0.0000E+00
 nd#     437  xforce=   0.0000E+00   yforce=   0.0000E+00  zforce=  -3.4648E+01   energy=   8.0243E-04   setid =     437 xmoment=   0.0000E+00 ymoment=   0.0000E+00 zmoment=   0.0000E+00
 nd#     438  xforce=   0.0000E+00   yforce=   0.0000E+00  zforce=  -1.8309E+01   energy=   6.1322E-04   setid =     438 xmoment=   0.0000E+00 ymoment=   0.0000E+00 zmoment=   0.0000E+00
 nd#     439  xforce=   0.0000E+00   yforce=   0.0000E+00  zforce=  -2.1639E+01   energy=   6.5659E-04   setid =     439 xmoment=   0.0000E+00 ymoment=   0.0000E+00 zmoment=   0.0000E+00
 nd#     440  xforce=   0.0000E+00   yforce=   0.0000E+00  zforce=  -2.5159E+01   energy=   6.9514E-04   setid =     440 xmoment=   0.0000E+00 ymoment=   0.0000E+00 zmoment=   0.0000E+00
 nd#     441  xforce=   0.0000E+00   yforce=   0.0000E+00  zforce=  -2.8177E+01   energy=   7.2732E-04   setid =     441 xmoment=   0.0000E+00 ymoment=   0.0000E+00 zmoment=   0.0000E+00
 nd#     442  xforce=   0.0000E+00   yforce=   0.0000E+00  zforce=  -2.7684E+01   energy=   7.4017E-04   setid =     442 xmoment=   0.0000E+00 ymoment=   0.0000E+00 zmoment=   0.0000E+00
 nd#     443  xforce=   0.0000E+00   yforce=   0.0000E+00  zforce=  -2.4719E+01   energy=   7.2341E-04   setid =     443 xmoment=   0.0000E+00 ymoment=   0.0000E+00 zmoment=   0.0000E+00
 nd#     444  xforce=   0.0000E+00   yforce=   0.0000E+00  zforce=   1.0874E+01   energy=   6.1525E-05   setid =     444 xmoment=   0.0000E+00 ymoment=   0.0000E+00 zmoment=   0.0000E+00
 nd#     628  xforce=   0.0000E+00   yforce=   0.0000E+00  zforce=  -6.4325E+01   energy=   1.4333E-03   setid =     628 xmoment=   0.0000E+00 ymoment=   0.0000E+00 zmoment=   0.0000E+00
 nd#     631  xforce=   0.0000E+00   yforce=   0.0000E+00  zforce=  -6.3910E+01   energy=   1.3706E-03   setid =     631 xmoment=   0.0000E+00 ymoment=   0.0000E+00 zmoment=   0.0000E+00
 nd#     632  xforce=   0.0000E+00   yforce=   0.0000E+00  zforce=  -6.9650E+01   energy=   1.4550E-03   setid =     632 xmoment=   0.0000E+00 ymoment=   0.0000E+00 zmoment=   0.0000E+00
 nd#     635  xforce=   0.0000E+00   yforce=   0.0000E+00  zforce=  -6.4132E+01   energy=   1.3548E-03   setid =     635 xmoment=   0.0000E+00 ymoment=   0.0000E+00 zmoment=   0.0000E+00
 nd#     636  xforce=   0.0000E+00   yforce=   0.0000E+00  zforce=  -8.9697E+01   energy=   1.5657E-03   setid =     636 xmoment=   0.0000E+00 ymoment=   0.0000E+00 zmoment=   0.0000E+00
 nd#     639  xforce=   0.0000E+00   yforce=   0.0000E+00  zforce=  -8.2762E+01   energy=   1.4523E-03   setid =     639 xmoment=   0.0000E+00 ymoment=   0.0000E+00 zmoment=   0.0000E+00
 nd#     640  xforce=   0.0000E+00   yforce=   0.0000E+00  zforce=  -3.7485E+01   energy=   7.7905E-04   setid =     640 xmoment=   0.0000E+00 ymoment=   0.0000E+00 zmoment=   0.0000E+00
 nd#     643  xforce=   0.0000E+00   yforce=   0.0000E+00  zforce=  -3.3342E+01   energy=   7.2553E-04   setid =     643 xmoment=   0.0000E+00 ymoment=   0.0000E+00 zmoment=   0.0000E+00
 nd#     692  xforce=   0.0000E+00   yforce=   0.0000E+00  zforce=  -6.7566E+01   energy=   1.4985E-03   setid =     692 xmoment=   0.0000E+00 ymoment=   0.0000E+00 zmoment=   0.0000E+00
 nd#     694  xforce=   0.0000E+00   yforce=   0.0000E+00  zforce=  -7.5093E+01   energy=   1.5439E-03   setid =     694 xmoment=   0.0000E+00 ymoment=   0.0000E+00 zmoment=   0.0000E+00
 nd#     696  xforce=   0.0000E+00   yforce=   0.0000E+00  zforce=  -9.5977E+01   energy=   1.6647E-03   setid =     696 xmoment=   0.0000E+00 ymoment=   0.0000E+00 zmoment=   0.0000E+00
 nd#     698  xforce=   0.0000E+00   yforce=   0.0000E+00  zforce=  -3.9373E+01   energy=   8.1710E-04   setid =     698 xmoment=   0.0000E+00 ymoment=   0.0000E+00 zmoment=   0.0000E+00
 nd#     900  xforce=   0.0000E+00   yforce=   0.0000E+00  zforce=  -5.3462E+01   energy=   1.4770E-03   setid =     900 xmoment=   0.0000E+00 ymoment=   0.0000E+00 zmoment=   0.0000E+00
 nd#     902  xforce=   0.0000E+00   yforce=   0.0000E+00  zforce=  -6.8462E+01   energy=   1.5436E-03   setid =     902 xmoment=   0.0000E+00 ymoment=   0.0000E+00 zmoment=   0.0000E+00
 nd#     903  xforce=   0.0000E+00   yforce=   0.0000E+00  zforce=  -7.2494E+01   energy=   1.5972E-03   setid =     903 xmoment=   0.0000E+00 ymoment=   0.0000E+00 zmoment=   0.0000E+00
 nd#     905  xforce=   0.0000E+00   yforce=   0.0000E+00  zforce=  -7.4788E+01   energy=   1.5947E-03   setid =     905 xmoment=   0.0000E+00 ymoment=   0.0000E+00 zmoment=   0.0000E+00
 nd#     906  xforce=   0.0000E+00   yforce=   0.0000E+00  zforce=  -9.5922E+01   energy=   1.7408E-03   setid =     906 xmoment=   0.0000E+00 ymoment=   0.0000E+00 zmoment=   0.0000E+00
 nd#     908  xforce=   0.0000E+00   yforce=   0.0000E+00  zforce=  -1.0051E+02   energy=   1.7457E-03   setid =     908 xmoment=   0.0000E+00 ymoment=   0.0000E+00 zmoment=   0.0000E+00
 nd#     909  xforce=   0.0000E+00   yforce=   0.0000E+00  zforce=  -1.1717E+01   energy=   7.1812E-04   setid =     909 xmoment=   0.0000E+00 ymoment=   0.0000E+00 zmoment=   0.0000E+00
 nd#     911  xforce=   0.0000E+00   yforce=   0.0000E+00  zforce=  -3.0466E+01   energy=   8.0162E-04   setid =     911 xmoment=   0.0000E+00 ymoment=   0.0000E+00 zmoment=   0.0000E+00
 nd#    1012  xforce=   0.0000E+00   yforce=   0.0000E+00  zforce=  -6.8657E+01   energy=   1.3227E-03   setid =    1012 xmoment=   0.0000E+00 ymoment=   0.0000E+00 zmoment=   0.0000E+00
 nd#    1013  xforce=   0.0000E+00   yforce=   0.0000E+00  zforce=  -6.5987E+01   energy=   1.2829E-03   setid =    1013 xmoment=   0.0000E+00 ymoment=   0.0000E+00 zmoment=   0.0000E+00
 nd#    1014  xforce=   0.0000E+00   yforce=   0.0000E+00  zforce=  -8.7237E+01   energy=   1.3929E-03   setid =    1014 xmoment=   0.0000E+00 ymoment=   0.0000E+00 zmoment=   0.0000E+00
 nd#    1015  xforce=   0.0000E+00   yforce=   0.0000E+00  zforce=  -3.4164E+01   energy=   6.9625E-04   setid =    1015 xmoment=   0.0000E+00 ymoment=   0.0000E+00 zmoment=   0.0000E+00
 nd#    1060  xforce=   0.0000E+00   yforce=   0.0000E+00  zforce=   3.8910E+01   energy=   5.0698E-06   setid =    1060 xmoment=   0.0000E+00 ymoment=   0.0000E+00 zmoment=   0.0000E+00
 nd#    1061  xforce=   0.0000E+00   yforce=   0.0000E+00  zforce=   5.1447E+01   energy=  -1.2585E-04   setid =    1061 xmoment=   0.0000E+00 ymoment=   0.0000E+00 zmoment=   0.0000E+00
 nd#    1062  xforce=   0.0000E+00   yforce=   0.0000E+00  zforce=   7.1373E+01   energy=  -3.0610E-04   setid =    1062 xmoment=   0.0000E+00 ymoment=   0.0000E+00 zmoment=   0.0000E+00
 nd#    1063  xforce=   0.0000E+00   yforce=   0.0000E+00  zforce=   6.1024E+01   energy=  -2.8927E-04   setid =    1063 xmoment=   0.0000E+00 ymoment=   0.0000E+00 zmoment=   0.0000E+00
              xtotal=   0.0000E+00   ytotal=   0.0000E+00  ztotal=  -2.6544E+03   etotal=   5.5281E-02

 n o d a l   f o r c e/e n e r g y    o u t p u t  t=   4.66927E+00

 velocity boundary condition forces/rigid body moments 

 nd#     179  xforce=   0.0000E+00   yforce=   0.0000E+00  zforce=  -9.6890E+01   energy=   2.4910E-03   setid =     179 xmoment=   0.0000E+00 ymoment=   0.0000E+00 zmoment=   0.0000E+00
 nd#     180  xforce=   0.0000E+00   yforce=   0.0000E+00  zforce=  -1.4859E+02   energy=   2.9888E-03   setid =     180 xmoment=   0.0000E+00 ymoment=   0.0000E+00 zmoment=   0.0000E+00
 nd#     181  xforce=   0.0000E+00   yforce=   0.0000E+00  zforce=  -4.0128E+01   energy=   3.2845E-03   setid =     181 xmoment=   0.0000E+00 ymoment=   0.0000E+00 zmoment=   0.0000E+00
 nd#     182  xforce=   0.0000E+00   yforce=   0.0000E+00  zforce=  -2.1611E+01   energy=   2.4855E-03   setid =     182 xmoment=   0.0000E+00 ymoment=   0.0000E+00 zmoment=   0.0000E+00
 nd#     247  xforce=   0.0000E+00   yforce=   0.0000E+00  zforce=  -1.7093E+02   energy=   1.9248E-04   setid =     247 xmoment=   0.0000E+00 ymoment=   0.0000E+00 zmoment=   0.0000E+00
 nd#     248  xforce=   0.0000E+00   yforce=   0.0000E+00  zforce=   7.8625E+01   energy=   2.2775E-03   setid =     248 xmoment=   0.0000E+00 ymoment=   0.0000E+00 zmoment=   0.0000E+00
 nd#     249  xforce=   0.0000E+00   yforce=   0.0000E+00  zforce=  -3.1187E+01   energy=   1.5223E-03   setid =     249 xmoment=   0.0000E+00 ymoment=   0.0000E+00 zmoment=   0.0000E+00
 nd#     250  xforce=   0.0000E+00   yforce=   0.0000E+00  zforce=  -1.2857E+02   energy=   3.1352E-04   setid =     250 xmoment=   0.0000E+00 ymoment=   0.0000E+00 zmoment=   0.0000E+00
 nd#     283  xforce=   0.0000E+00   yforce=   0.0000E+00  zforce=  -1.2023E+02   energy=   1.7657E-03   setid =     283 xmoment=   0.0000E+00 ymoment=   0.0000E+00 zmoment=   0.0000E+00
 nd#     284  xforce=   0.0000E+00   yforce=   0.0000E+00  zforce=   1.3114E+02   energy=   4.1077E-03   setid =     284 xmoment=   0.0000E+00 ymoment=   0.0000E+00 zmoment=   0.0000E+00
 nd#     333  xforce=   0.0000E+00   yforce=   0.0000E+00  zforce=  -5.4280E+01   energy=   6.8072E-04   setid =     333 xmoment=   0.0000E+00 ymoment=   0.0000E+00 zmoment=   0.0000E+00
 nd#     334  xforce=   0.0000E+00   yforce=   0.0000E+00  zforce=  -7.5460E+01   energy=   2.0106E-03   setid =     334 xmoment=   0.0000E+00 ymoment=   0.0000E+00 zmoment=   0.0000E+00
 nd#     335  xforce=   0.0000E+00   yforce=   0.0000E+00  zforce=  -4.5405E+01   energy=   2.5769E-03   setid =     335 xmoment=   0.0000E+00 ymoment=   0.0000E+00 zmoment=   0.0000E+00
 nd#     368  xforce=   0.0000E+00   yforce=   0.0000E+00  zforce=  -1.1104E+02   energy=   4.1691E-04   setid =     368 xmoment=   0.0000E+00 ymoment=   0.0000E+00 zmoment=   0.0000E+00
 nd#     369  xforce=   0.0000E+00   yforce=   0.0000E+00  zforce=  -7.8806E+01   energy=   1.3774E-03   setid =     369 xmoment=   0.0000E+00 ymoment=   0.0000E+00 zmoment=   0.0000E+00
 nd#     386  xforce=   0.0000E+00   yforce=   0.0000E+00  zforce=  -1.4759E+02   energy=   1.4578E-03   setid =     386 xmoment=   0.0000E+00 ymoment=   0.0000E+00 zmoment=   0.0000E+00
 nd#     403  xforce=   0.0000E+00   yforce=   0.0000E+00  zforce=  -7.6005E+01   energy=   1.1613E-03   setid =     403 xmoment=   0.0000E+00 ymoment=   0.0000E+00 zmoment=   0.0000E+00
 nd#     436  xforce=   0.0000E+00   yforce=   0.0000E+00  zforce=  -6.0135E+01   energy=   2.6325E-03   setid =     436 xmoment=   0.0000E+00 ymoment=   0.0000E+00 zmoment=   0.0000E+00
 nd#     437  xforce=   0.0000E+00   yforce=   0.0000E+00  zforce=  -5.2657E+01   energy=   1.3078E-03   setid =     437 xmoment=   0.0000E+00 ymoment=   0.0000E+00 zmoment=   0.0000E+00
 nd#     438  xforce=   0.0000E+00   yforce=   0.0000E+00  zforce=  -5.6541E+01   energy=   1.0026E-03   setid =     438 xmoment=   0.0000E+00 ymoment=   0.0000E+00 zmoment=   0.0000E+00
 nd#     439  xforce=   0.0000E+00   yforce=   0.0000E+00  zforce=  -5.1804E+01   energy=   1.0505E-03   setid =     439 xmoment=   0.0000E+00 ymoment=   0.0000E+00 zmoment=   0.0000E+00
 nd#     440  xforce=   0.0000E+00   yforce=   0.0000E+00  zforce=  -4.8752E+01   energy=   1.1049E-03   setid =     440 xmoment=   0.0000E+00 ymoment=   0.0000E+00 zmoment=   0.0000E+00
 nd#     441  xforce=   0.0000E+00   yforce=   0.0000E+00  zforce=  -4.6041E+01   energy=   1.1463E-03   setid =     441 xmoment=   0.0000E+00 ymoment=   0.0000E+00 zmoment=   0.0000E+00
 nd#     442  xforce=   0.0000E+00   yforce=   0.0000E+00  zforce=  -4.1839E+01   energy=   1.1391E-03   setid =     442 xmoment=   0.0000E+00 ymoment=   0.0000E+00 zmoment=   0.0000E+00
 nd#     443  xforce=   0.0000E+00   yforce=   0.0000E+00  zforce=  -3.4809E+01   energy=   1.0678E-03   setid =     443 xmoment=   0.0000E+00 ymoment=   0.0000E+00 zmoment=   0.0000E+00
 nd#     444  xforce=   0.0000E+00   yforce=   0.0000E+00  zforce=   6.8484E+00   energy=  -5.3907E-05   setid =     444 xmoment=   0.0000E+00 ymoment=   0.0000E+00 zmoment=   0.0000E+00
 nd#     628  xforce=   0.0000E+00   yforce=   0.0000E+00  zforce=  -5.0805E+01   energy=   2.1785E-03   setid =     628 xmoment=   0.0000E+00 ymoment=   0.0000E+00 zmoment=   0.0000E+00
 nd#     631  xforce=   0.0000E+00   yforce=   0.0000E+00  zforce=  -4.4387E+01   energy=   2.0829E-03   setid =     631 xmoment=   0.0000E+00 ymoment=   0.0000E+00 zmoment=   0.0000E+00
 nd#     632  xforce=   0.0000E+00   yforce=   0.0000E+00  zforce=  -8.5149E+01   energy=   2.3734E-03   setid =     632 xmoment=   0.0000E+00 ymoment=   0.0000E+00 zmoment=   0.0000E+00
 nd#     635  xforce=   0.0000E+00   yforce=   0.0000E+00  zforce=  -8.7057E+01   energy=   2.2339E-03   setid =     635 xmoment=   0.0000E+00 ymoment=   0.0000E+00 zmoment=   0.0000E+00
 nd#     636  xforce=   0.0000E+00   yforce=   0.0000E+00  zforce=  -8.1247E+01   energy=   2.6250E-03   setid =     636 xmoment=   0.0000E+00 ymoment=   0.0000E+00 zmoment=   0.0000E+00
 nd#     639  xforce=   0.0000E+00   yforce=   0.0000E+00  zforce=  -7.1486E+01   energy=   2.4196E-03   setid =     639 xmoment=   0.0000E+00 ymoment=   0.0000E+00 zmoment=   0.0000E+00
 nd#     640  xforce=   0.0000E+00   yforce=   0.0000E+00  zforce=  -5.0441E+01   energy=   1.2905E-03   setid =     640 xmoment=   0.0000E+00 ymoment=   0.0000E+00 zmoment=   0.0000E+00
 nd#     643  xforce=   0.0000E+00   yforce=   0.0000E+00  zforce=  -5.0370E+01   energy=   1.2009E-03   setid =     643 xmoment=   0.0000E+00 ymoment=   0.0000E+00 zmoment=   0.0000E+00
 nd#     692  xforce=   0.0000E+00   yforce=   0.0000E+00  zforce=  -5.7921E+01   energy=   2.2923E-03   setid =     692 xmoment=   0.0000E+00 ymoment=   0.0000E+00 zmoment=   0.0000E+00
 nd#     694  xforce=   0.0000E+00   yforce=   0.0000E+00  zforce=  -8.4890E+01   energy=   2.5032E-03   setid =     694 xmoment=   0.0000E+00 ymoment=   0.0000E+00 zmoment=   0.0000E+00
 nd#     696  xforce=   0.0000E+00   yforce=   0.0000E+00  zforce=  -9.0027E+01   energy=   2.8112E-03   setid =     696 xmoment=   0.0000E+00 ymoment=   0.0000E+00 zmoment=   0.0000E+00
 nd#     698  xforce=   0.0000E+00   yforce=   0.0000E+00  zforce=  -4.8546E+01   energy=   1.3424E-03   setid =     698 xmoment=   0.0000E+00 ymoment=   0.0000E+00 zmoment=   0.0000E+00
 nd#     900  xforce=   0.0000E+00   yforce=   0.0000E+00  zforce=  -5.1218E+01   energy=   2.1261E-03   setid =     900 xmoment=   0.0000E+00 ymoment=   0.0000E+00 zmoment=   0.0000E+00
 nd#     902  xforce=   0.0000E+00   yforce=   0.0000E+00  zforce=  -6.1737E+01   energy=   2.3593E-03   setid =     902 xmoment=   0.0000E+00 ymoment=   0.0000E+00 zmoment=   0.0000E+00
 nd#     903  xforce=   0.0000E+00   yforce=   0.0000E+00  zforce=  -7.9674E+01   energy=   2.5132E-03   setid =     903 xmoment=   0.0000E+00 ymoment=   0.0000E+00 zmoment=   0.0000E+00
 nd#     905  xforce=   0.0000E+00   yforce=   0.0000E+00  zforce=  -8.2747E+01   energy=   2.5434E-03   setid =     905 xmoment=   0.0000E+00 ymoment=   0.0000E+00 zmoment=   0.0000E+00
 nd#     906  xforce=   0.0000E+00   yforce=   0.0000E+00  zforce=  -9.4374E+01   energy=   2.8979E-03   setid =     906 xmoment=   0.0000E+00 ymoment=   0.0000E+00 zmoment=   0.0000E+00
 nd#     908  xforce=   0.0000E+00   yforce=   0.0000E+00  zforce=  -9.4454E+01   energy=   2.9382E-03   setid =     908 xmoment=   0.0000E+00 ymoment=   0.0000E+00 zmoment=   0.0000E+00
 nd#     909  xforce=   0.0000E+00   yforce=   0.0000E+00  zforce=  -2.4259E+01   energy=   9.2505E-04   setid =     909 xmoment=   0.0000E+00 ymoment=   0.0000E+00 zmoment=   0.0000E+00
 nd#     911  xforce=   0.0000E+00   yforce=   0.0000E+00  zforce=  -4.0315E+01   energy=   1.2162E-03   setid =     911 xmoment=   0.0000E+00 ymoment=   0.0000E+00 zmoment=   0.0000E+00
 nd#    1012  xforce=   0.0000E+00   yforce=   0.0000E+00  zforce=  -3.7667E+01   energy=   2.0453E-03   setid =    1012 xmoment=   0.0000E+00 ymoment=   0.0000E+00 zmoment=   0.0000E+00
 nd#    1013  xforce=   0.0000E+00   yforce=   0.0000E+00  zforce=  -9.1736E+01   energy=   2.1872E-03   setid =    1013 xmoment=   0.0000E+00 ymoment=   0.0000E+00 zmoment=   0.0000E+00
 nd#    1014  xforce=   0.0000E+00   yforce=   0.0000E+00  zforce=  -6.6623E+01   energy=   2.3798E-03   setid =    1014 xmoment=   0.0000E+00 ymoment=   0.0000E+00 zmoment=   0.0000E+00
 nd#    1015  xforce=   0.0000E+00   yforce=   0.0000E+00  zforce=  -5.1107E+01   energy=   1.1826E-03   setid =    1015 xmoment=   0.0000E+00 ymoment=   0.0000E+00 zmoment=   0.0000E+00
 nd#    1060  xforce=   0.0000E+00   yforce=   0.0000E+00  zforce=   3.5980E+01   energy=  -4.5239E-04   setid =    1060 xmoment=   0.0000E+00 ymoment=   0.0000E+00 zmoment=   0.0000E+00
 nd#    1061  xforce=   0.0000E+00   yforce=   0.0000E+00  zforce=   3.8452E+01   energy=  -7.0362E-04   setid =    1061 xmoment=   0.0000E+00 ymoment=   0.0000E+00 zmoment=   0.0000E+00
 nd#    1062  xforce=   0.0000E+00   yforce=   0.0000E+00  zforce=   5.7101E+01   energy=  -1.1087E-03   setid =    1062 xmoment=   0.0000E+00 ymoment=   0.0000E+00 zmoment=   0.0000E+00
 nd#    1063  xforce=   0.0000E+00   yforce=   0.0000E+00  zforce=   5.1150E+01   energy=  -9.8497E-04   setid =    1063 xmoment=   0.0000E+00 ymoment=   0.0000E+00 zmoment=   0.0000E+00
              xtotal=   0.0000E+00   ytotal=   0.0000E+00  ztotal=  -2.9182E+03   etotal=   8.8927E-02

 n o d a l   f o r c e/e n e r g y    o u t p u t  t=   5.40317E+00

 velocity boundary condition forces/rigid body moments 

 nd#     179  xforce=   0.0000E+00   yforce=   0.0000E+00  zforce=  -9.5913E+01   energy=   3.1985E-03   setid =     179 xmoment=   0.0000E+00 ymoment=   0.0000E+00 zmoment=   0.0000E+00
 nd#     180  xforce=   0.0000E+00   yforce=   0.0000E+00  zforce=  -1.5409E+02   energy=   4.0995E-03   setid =     180 xmoment=   0.0000E+00 ymoment=   0.0000E+00 zmoment=   0.0000E+00
 nd#     181  xforce=   0.0000E+00   yforce=   0.0000E+00  zforce=  -5.1362E+01   energy=   3.6202E-03   setid =     181 xmoment=   0.0000E+00 ymoment=   0.0000E+00 zmoment=   0.0000E+00
 nd#     182  xforce=   0.0000E+00   yforce=   0.0000E+00  zforce=  -2.5151E+01   energy=   2.6571E-03   setid =     182 xmoment=   0.0000E+00 ymoment=   0.0000E+00 zmoment=   0.0000E+00
 nd#     247  xforce=   0.0000E+00   yforce=   0.0000E+00  zforce=  -1.7013E+02   energy=   1.4440E-03   setid =     247 xmoment=   0.0000E+00 ymoment=   0.0000E+00 zmoment=   0.0000E+00
 nd#     248  xforce=   0.0000E+00   yforce=   0.0000E+00  zforce=   7.5763E+01   energy=   1.7110E-03   setid =     248 xmoment=   0.0000E+00 ymoment=   0.0000E+00 zmoment=   0.0000E+00
 nd#     249  xforce=   0.0000E+00   yforce=   0.0000E+00  zforce=  -3.7690E+01   energy=   1.7750E-03   setid =     249 xmoment=   0.0000E+00 ymoment=   0.0000E+00 zmoment=   0.0000E+00
 nd#     250  xforce=   0.0000E+00   yforce=   0.0000E+00  zforce=  -1.2957E+02   energy=   1.2607E-03   setid =     250 xmoment=   0.0000E+00 ymoment=   0.0000E+00 zmoment=   0.0000E+00
 nd#     283  xforce=   0.0000E+00   yforce=   0.0000E+00  zforce=  -1.2187E+02   energy=   2.6541E-03   setid =     283 xmoment=   0.0000E+00 ymoment=   0.0000E+00 zmoment=   0.0000E+00
 nd#     284  xforce=   0.0000E+00   yforce=   0.0000E+00  zforce=   1.2937E+02   energy=   3.1518E-03   setid =     284 xmoment=   0.0000E+00 ymoment=   0.0000E+00 zmoment=   0.0000E+00
 nd#     333  xforce=   0.0000E+00   yforce=   0.0000E+00  zforce=  -5.2325E+01   energy=   1.0719E-03   setid =     333 xmoment=   0.0000E+00 ymoment=   0.0000E+00 zmoment=   0.0000E+00
 nd#     334  xforce=   0.0000E+00   yforce=   0.0000E+00  zforce=  -8.3918E+01   energy=   2.5955E-03   setid =     334 xmoment=   0.0000E+00 ymoment=   0.0000E+00 zmoment=   0.0000E+00
 nd#     335  xforce=   0.0000E+00   yforce=   0.0000E+00  zforce=  -4.6811E+01   energy=   2.9153E-03   setid =     335 xmoment=   0.0000E+00 ymoment=   0.0000E+00 zmoment=   0.0000E+00
 nd#     368  xforce=   0.0000E+00   yforce=   0.0000E+00  zforce=  -1.1164E+02   energy=   1.2341E-03   setid =     368 xmoment=   0.0000E+00 ymoment=   0.0000E+00 zmoment=   0.0000E+00
 nd#     369  xforce=   0.0000E+00   yforce=   0.0000E+00  zforce=  -7.9432E+01   energy=   1.9581E-03   setid =     369 xmoment=   0.0000E+00 ymoment=   0.0000E+00 zmoment=   0.0000E+00
 nd#     386  xforce=   0.0000E+00   yforce=   0.0000E+00  zforce=  -1.4726E+02   energy=   2.5397E-03   setid =     386 xmoment=   0.0000E+00 ymoment=   0.0000E+00 zmoment=   0.0000E+00
 nd#     403  xforce=   0.0000E+00   yforce=   0.0000E+00  zforce=  -7.5036E+01   energy=   1.7156E-03   setid =     403 xmoment=   0.0000E+00 ymoment=   0.0000E+00 zmoment=   0.0000E+00
 nd#     436  xforce=   0.0000E+00   yforce=   0.0000E+00  zforce=  -6.4814E+01   energy=   3.0910E-03   setid =     436 xmoment=   0.0000E+00 ymoment=   0.0000E+00 zmoment=   0.0000E+00
 nd#     437  xforce=   0.0000E+00   yforce=   0.0000E+00  zforce=  -5.3808E+01   energy=   1.6985E-03   setid =     437 xmoment=   0.0000E+00 ymoment=   0.0000E+00 zmoment=   0.0000E+00
 nd#     438  xforce=   0.0000E+00   yforce=   0.0000E+00  zforce=  -5.7662E+01   energy=   1.4217E-03   setid =     438 xmoment=   0.0000E+00 ymoment=   0.0000E+00 zmoment=   0.0000E+00
 nd#     439  xforce=   0.0000E+00   yforce=   0.0000E+00  zforce=  -5.3147E+01   energy=   1.4356E-03   setid =     439 xmoment=   0.0000E+00 ymoment=   0.0000E+00 zmoment=   0.0000E+00
 nd#     440  xforce=   0.0000E+00   yforce=   0.0000E+00  zforce=  -5.0421E+01   energy=   1.4688E-03   setid =     440 xmoment=   0.0000E+00 ymoment=   0.0000E+00 zmoment=   0.0000E+00
 nd#     441  xforce=   0.0000E+00   yforce=   0.0000E+00  zforce=  -4.7672E+01   energy=   1.4902E-03   setid =     441 xmoment=   0.0000E+00 ymoment=   0.0000E+00 zmoment=   0.0000E+00
 nd#     442  xforce=   0.0000E+00   yforce=   0.0000E+00  zforce=  -4.3651E+01   energy=   1.4528E-03   setid =     442 xmoment=   0.0000E+00 ymoment=   0.0000E+00 zmoment=   0.0000E+00
 nd#     443  xforce=   0.0000E+00   yforce=   0.0000E+00  zforce=  -3.5388E+01   energy=   1.3254E-03   setid =     443 xmoment=   0.0000E+00 ymoment=   0.0000E+00 zmoment=   0.0000E+00
 nd#     444  xforce=   0.0000E+00   yforce=   0.0000E+00  zforce=   7.2521E+00   energy=  -1.0565E-04   setid =     444 xmoment=   0.0000E+00 ymoment=   0.0000E+00 zmoment=   0.0000E+00
 nd#     628  xforce=   0.0000E+00   yforce=   0.0000E+00  zforce=  -5.6835E+01   energy=   2.5735E-03   setid =     628 xmoment=   0.0000E+00 ymoment=   0.0000E+00 zmoment=   0.0000E+00
 nd#     631  xforce=   0.0000E+00   yforce=   0.0000E+00  zforce=  -5.0499E+01   energy=   2.4311E-03   setid =     631 xmoment=   0.0000E+00 ymoment=   0.0000E+00 zmoment=   0.0000E+00
 nd#     632  xforce=   0.0000E+00   yforce=   0.0000E+00  zforce=  -8.8840E+01   energy=   3.0118E-03   setid =     632 xmoment=   0.0000E+00 ymoment=   0.0000E+00 zmoment=   0.0000E+00
 nd#     635  xforce=   0.0000E+00   yforce=   0.0000E+00  zforce=  -9.0264E+01   energy=   2.8846E-03   setid =     635 xmoment=   0.0000E+00 ymoment=   0.0000E+00 zmoment=   0.0000E+00
 nd#     636  xforce=   0.0000E+00   yforce=   0.0000E+00  zforce=  -8.5933E+01   energy=   3.2385E-03   setid =     636 xmoment=   0.0000E+00 ymoment=   0.0000E+00 zmoment=   0.0000E+00
 nd#     639  xforce=   0.0000E+00   yforce=   0.0000E+00  zforce=  -7.5253E+01   energy=   2.9581E-03   setid =     639 xmoment=   0.0000E+00 ymoment=   0.0000E+00 zmoment=   0.0000E+00
 nd#     640  xforce=   0.0000E+00   yforce=   0.0000E+00  zforce=  -5.3384E+01   energy=   1.6714E-03   setid =     640 xmoment=   0.0000E+00 ymoment=   0.0000E+00 zmoment=   0.0000E+00
 nd#     643  xforce=   0.0000E+00   yforce=   0.0000E+00  zforce=  -5.3744E+01   energy=   1.5830E-03   setid =     643 xmoment=   0.0000E+00 ymoment=   0.0000E+00 zmoment=   0.0000E+00
 nd#     692  xforce=   0.0000E+00   yforce=   0.0000E+00  zforce=  -6.2739E+01   energy=   2.7351E-03   setid =     692 xmoment=   0.0000E+00 ymoment=   0.0000E+00 zmoment=   0.0000E+00
 nd#     694  xforce=   0.0000E+00   yforce=   0.0000E+00  zforce=  -8.8418E+01   energy=   3.1392E-03   setid =     694 xmoment=   0.0000E+00 ymoment=   0.0000E+00 zmoment=   0.0000E+00
 nd#     696  xforce=   0.0000E+00   yforce=   0.0000E+00  zforce=  -9.5715E+01   energy=   3.4928E-03   setid =     696 xmoment=   0.0000E+00 ymoment=   0.0000E+00 zmoment=   0.0000E+00
 nd#     698  xforce=   0.0000E+00   yforce=   0.0000E+00  zforce=  -5.0808E+01   energy=   1.7069E-03   setid =     698 xmoment=   0.0000E+00 ymoment=   0.0000E+00 zmoment=   0.0000E+00
 nd#     900  xforce=   0.0000E+00   yforce=   0.0000E+00  zforce=  -5.3463E+01   energy=   2.5102E-03   setid =     900 xmoment=   0.0000E+00 ymoment=   0.0000E+00 zmoment=   0.0000E+00
 nd#     902  xforce=   0.0000E+00   yforce=   0.0000E+00  zforce=  -6.6875E+01   energy=   2.8312E-03   setid =     902 xmoment=   0.0000E+00 ymoment=   0.0000E+00 zmoment=   0.0000E+00
 nd#     903  xforce=   0.0000E+00   yforce=   0.0000E+00  zforce=  -8.1081E+01   energy=   3.1031E-03   setid =     903 xmoment=   0.0000E+00 ymoment=   0.0000E+00 zmoment=   0.0000E+00
 nd#     905  xforce=   0.0000E+00   yforce=   0.0000E+00  zforce=  -8.6688E+01   energy=   3.1651E-03   setid =     905 xmoment=   0.0000E+00 ymoment=   0.0000E+00 zmoment=   0.0000E+00
 nd#     906  xforce=   0.0000E+00   yforce=   0.0000E+00  zforce=  -9.8493E+01   energy=   3.6056E-03   setid =     906 xmoment=   0.0000E+00 ymoment=   0.0000E+00 zmoment=   0.0000E+00
 nd#     908  xforce=   0.0000E+00   yforce=   0.0000E+00  zforce=  -1.0105E+02   energy=   3.6556E-03   setid =     908 xmoment=   0.0000E+00 ymoment=   0.0000E+00 zmoment=   0.0000E+00
 nd#     909  xforce=   0.0000E+00   yforce=   0.0000E+00  zforce=  -2.4968E+01   energy=   1.1057E-03   setid =     909 xmoment=   0.0000E+00 ymoment=   0.0000E+00 zmoment=   0.0000E+00
 nd#     911  xforce=   0.0000E+00   yforce=   0.0000E+00  zforce=  -4.2616E+01   energy=   1.5205E-03   setid =     911 xmoment=   0.0000E+00 ymoment=   0.0000E+00 zmoment=   0.0000E+00
 nd#    1012  xforce=   0.0000E+00   yforce=   0.0000E+00  zforce=  -4.4834E+01   energy=   2.3480E-03   setid =    1012 xmoment=   0.0000E+00 ymoment=   0.0000E+00 zmoment=   0.0000E+00
 nd#    1013  xforce=   0.0000E+00   yforce=   0.0000E+00  zforce=  -9.4439E+01   energy=   2.8704E-03   setid =    1013 xmoment=   0.0000E+00 ymoment=   0.0000E+00 zmoment=   0.0000E+00
 nd#    1014  xforce=   0.0000E+00   yforce=   0.0000E+00  zforce=  -6.8251E+01   energy=   2.8747E-03   setid =    1014 xmoment=   0.0000E+00 ymoment=   0.0000E+00 zmoment=   0.0000E+00
 nd#    1015  xforce=   0.0000E+00   yforce=   0.0000E+00  zforce=  -5.5532E+01   energy=   1.5739E-03   setid =    1015 xmoment=   0.0000E+00 ymoment=   0.0000E+00 zmoment=   0.0000E+00
 nd#    1060  xforce=   0.0000E+00   yforce=   0.0000E+00  zforce=   3.7618E+01   energy=  -7.2246E-04   setid =    1060 xmoment=   0.0000E+00 ymoment=   0.0000E+00 zmoment=   0.0000E+00
 nd#    1061  xforce=   0.0000E+00   yforce=   0.0000E+00  zforce=   4.2541E+01   energy=  -1.0008E-03   setid =    1061 xmoment=   0.0000E+00 ymoment=   0.0000E+00 zmoment=   0.0000E+00
 nd#    1062  xforce=   0.0000E+00   yforce=   0.0000E+00  zforce=   6.4689E+01   energy=  -1.5556E-03   setid =    1062 xmoment=   0.0000E+00 ymoment=   0.0000E+00 zmoment=   0.0000E+00
 nd#    1063  xforce=   0.0000E+00   yforce=   0.0000E+00  zforce=   5.4041E+01   energy=  -1.3710E-03   setid =    1063 xmoment=   0.0000E+00 ymoment=   0.0000E+00 zmoment=   0.0000E+00
              xtotal=   0.0000E+00   ytotal=   0.0000E+00  ztotal=  -3.0482E+03   etotal=   1.1082E-01

 n o d a l   f o r c e/e n e r g y    o u t p u t  t=   6.56633E+00

 velocity boundary condition forces/rigid body moments 

 nd#     179  xforce=   0.0000E+00   yforce=   0.0000E+00  zforce=  -1.0265E+02   energy=   4.3533E-03   setid =     179 xmoment=   0.0000E+00 ymoment=   0.0000E+00 zmoment=   0.0000E+00
 nd#     180  xforce=   0.0000E+00   yforce=   0.0000E+00  zforce=  -1.6100E+02   energy=   5.9321E-03   setid =     180 xmoment=   0.0000E+00 ymoment=   0.0000E+00 zmoment=   0.0000E+00
 nd#     181  xforce=   0.0000E+00   yforce=   0.0000E+00  zforce=  -5.4175E+01   energy=   4.2340E-03   setid =     181 xmoment=   0.0000E+00 ymoment=   0.0000E+00 zmoment=   0.0000E+00
 nd#     182  xforce=   0.0000E+00   yforce=   0.0000E+00  zforce=  -2.7581E+01   energy=   2.9638E-03   setid =     182 xmoment=   0.0000E+00 ymoment=   0.0000E+00 zmoment=   0.0000E+00
 nd#     247  xforce=   0.0000E+00   yforce=   0.0000E+00  zforce=  -1.7712E+02   energy=   3.4635E-03   setid =     247 xmoment=   0.0000E+00 ymoment=   0.0000E+00 zmoment=   0.0000E+00
 nd#     248  xforce=   0.0000E+00   yforce=   0.0000E+00  zforce=   7.2972E+01   energy=   8.4599E-04   setid =     248 xmoment=   0.0000E+00 ymoment=   0.0000E+00 zmoment=   0.0000E+00
 nd#     249  xforce=   0.0000E+00   yforce=   0.0000E+00  zforce=  -4.1210E+01   energy=   2.2339E-03   setid =     249 xmoment=   0.0000E+00 ymoment=   0.0000E+00 zmoment=   0.0000E+00
 nd#     250  xforce=   0.0000E+00   yforce=   0.0000E+00  zforce=  -1.3429E+02   energy=   2.7953E-03   setid =     250 xmoment=   0.0000E+00 ymoment=   0.0000E+00 zmoment=   0.0000E+00
 nd#     283  xforce=   0.0000E+00   yforce=   0.0000E+00  zforce=  -1.2680E+02   energy=   4.1003E-03   setid =     283 xmoment=   0.0000E+00 ymoment=   0.0000E+00 zmoment=   0.0000E+00
 nd#     284  xforce=   0.0000E+00   yforce=   0.0000E+00  zforce=   1.3489E+02   energy=   1.6149E-03   setid =     284 xmoment=   0.0000E+00 ymoment=   0.0000E+00 zmoment=   0.0000E+00
 nd#     333  xforce=   0.0000E+00   yforce=   0.0000E+00  zforce=  -5.2797E+01   energy=   1.6833E-03   setid =     333 xmoment=   0.0000E+00 ymoment=   0.0000E+00 zmoment=   0.0000E+00
 nd#     334  xforce=   0.0000E+00   yforce=   0.0000E+00  zforce=  -8.8494E+01   energy=   3.5982E-03   setid =     334 xmoment=   0.0000E+00 ymoment=   0.0000E+00 zmoment=   0.0000E+00
 nd#     335  xforce=   0.0000E+00   yforce=   0.0000E+00  zforce=  -5.2316E+01   energy=   3.4918E-03   setid =     335 xmoment=   0.0000E+00 ymoment=   0.0000E+00 zmoment=   0.0000E+00
 nd#     368  xforce=   0.0000E+00   yforce=   0.0000E+00  zforce=  -1.1413E+02   energy=   2.5471E-03   setid =     368 xmoment=   0.0000E+00 ymoment=   0.0000E+00 zmoment=   0.0000E+00
 nd#     369  xforce=   0.0000E+00   yforce=   0.0000E+00  zforce=  -8.3145E+01   energy=   2.9036E-03   setid =     369 xmoment=   0.0000E+00 ymoment=   0.0000E+00 zmoment=   0.0000E+00
 nd#     386  xforce=   0.0000E+00   yforce=   0.0000E+00  zforce=  -1.5091E+02   energy=   4.2737E-03   setid =     386 xmoment=   0.0000E+00 ymoment=   0.0000E+00 zmoment=   0.0000E+00
 nd#     403  xforce=   0.0000E+00   yforce=   0.0000E+00  zforce=  -7.6820E+01   energy=   2.5987E-03   setid =     403 xmoment=   0.0000E+00 ymoment=   0.0000E+00 zmoment=   0.0000E+00
 nd#     436  xforce=   0.0000E+00   yforce=   0.0000E+00  zforce=  -6.9200E+01   energy=   3.8704E-03   setid =     436 xmoment=   0.0000E+00 ymoment=   0.0000E+00 zmoment=   0.0000E+00
 nd#     437  xforce=   0.0000E+00   yforce=   0.0000E+00  zforce=  -5.6515E+01   energy=   2.3401E-03   setid =     437 xmoment=   0.0000E+00 ymoment=   0.0000E+00 zmoment=   0.0000E+00
 nd#     438  xforce=   0.0000E+00   yforce=   0.0000E+00  zforce=  -5.9782E+01   energy=   2.1047E-03   setid =     438 xmoment=   0.0000E+00 ymoment=   0.0000E+00 zmoment=   0.0000E+00
 nd#     439  xforce=   0.0000E+00   yforce=   0.0000E+00  zforce=  -5.5891E+01   energy=   2.0698E-03   setid =     439 xmoment=   0.0000E+00 ymoment=   0.0000E+00 zmoment=   0.0000E+00
 nd#     440  xforce=   0.0000E+00   yforce=   0.0000E+00  zforce=  -5.3109E+01   energy=   2.0709E-03   setid =     440 xmoment=   0.0000E+00 ymoment=   0.0000E+00 zmoment=   0.0000E+00
 nd#     441  xforce=   0.0000E+00   yforce=   0.0000E+00  zforce=  -5.0643E+01   energy=   2.0620E-03   setid =     441 xmoment=   0.0000E+00 ymoment=   0.0000E+00 zmoment=   0.0000E+00
 nd#     442  xforce=   0.0000E+00   yforce=   0.0000E+00  zforce=  -4.6641E+01   energy=   1.9779E-03   setid =     442 xmoment=   0.0000E+00 ymoment=   0.0000E+00 zmoment=   0.0000E+00
 nd#     443  xforce=   0.0000E+00   yforce=   0.0000E+00  zforce=  -3.7682E+01   energy=   1.7504E-03   setid =     443 xmoment=   0.0000E+00 ymoment=   0.0000E+00 zmoment=   0.0000E+00
 nd#     444  xforce=   0.0000E+00   yforce=   0.0000E+00  zforce=   7.1824E+00   energy=  -1.8960E-04   setid =     444 xmoment=   0.0000E+00 ymoment=   0.0000E+00 zmoment=   0.0000E+00
 nd#     628  xforce=   0.0000E+00   yforce=   0.0000E+00  zforce=  -6.2231E+01   energy=   3.2660E-03   setid =     628 xmoment=   0.0000E+00 ymoment=   0.0000E+00 zmoment=   0.0000E+00
 nd#     631  xforce=   0.0000E+00   yforce=   0.0000E+00  zforce=  -5.6461E+01   energy=   3.0531E-03   setid =     631 xmoment=   0.0000E+00 ymoment=   0.0000E+00 zmoment=   0.0000E+00
 nd#     632  xforce=   0.0000E+00   yforce=   0.0000E+00  zforce=  -9.5175E+01   energy=   4.0820E-03   setid =     632 xmoment=   0.0000E+00 ymoment=   0.0000E+00 zmoment=   0.0000E+00
 nd#     635  xforce=   0.0000E+00   yforce=   0.0000E+00  zforce=  -9.6938E+01   energy=   3.9733E-03   setid =     635 xmoment=   0.0000E+00 ymoment=   0.0000E+00 zmoment=   0.0000E+00
 nd#     636  xforce=   0.0000E+00   yforce=   0.0000E+00  zforce=  -9.1718E+01   energy=   4.2716E-03   setid =     636 xmoment=   0.0000E+00 ymoment=   0.0000E+00 zmoment=   0.0000E+00
 nd#     639  xforce=   0.0000E+00   yforce=   0.0000E+00  zforce=  -8.0874E+01   energy=   3.8661E-03   setid =     639 xmoment=   0.0000E+00 ymoment=   0.0000E+00 zmoment=   0.0000E+00
 nd#     640  xforce=   0.0000E+00   yforce=   0.0000E+00  zforce=  -5.7215E+01   energy=   2.3147E-03   setid =     640 xmoment=   0.0000E+00 ymoment=   0.0000E+00 zmoment=   0.0000E+00
 nd#     643  xforce=   0.0000E+00   yforce=   0.0000E+00  zforce=  -5.7680E+01   energy=   2.2310E-03   setid =     643 xmoment=   0.0000E+00 ymoment=   0.0000E+00 zmoment=   0.0000E+00
 nd#     692  xforce=   0.0000E+00   yforce=   0.0000E+00  zforce=  -6.8312E+01   energy=   3.4972E-03   setid =     692 xmoment=   0.0000E+00 ymoment=   0.0000E+00 zmoment=   0.0000E+00
 nd#     694  xforce=   0.0000E+00   yforce=   0.0000E+00  zforce=  -9.4770E+01   energy=   4.2045E-03   setid =     694 xmoment=   0.0000E+00 ymoment=   0.0000E+00 zmoment=   0.0000E+00
 nd#     696  xforce=   0.0000E+00   yforce=   0.0000E+00  zforce=  -1.0166E+02   energy=   4.6406E-03   setid =     696 xmoment=   0.0000E+00 ymoment=   0.0000E+00 zmoment=   0.0000E+00
 nd#     698  xforce=   0.0000E+00   yforce=   0.0000E+00  zforce=  -5.4407E+01   energy=   2.3188E-03   setid =     698 xmoment=   0.0000E+00 ymoment=   0.0000E+00 zmoment=   0.0000E+00
 nd#     900  xforce=   0.0000E+00   yforce=   0.0000E+00  zforce=  -5.6977E+01   energy=   3.1525E-03   setid =     900 xmoment=   0.0000E+00 ymoment=   0.0000E+00 zmoment=   0.0000E+00
 nd#     902  xforce=   0.0000E+00   yforce=   0.0000E+00  zforce=  -7.2098E+01   energy=   3.6395E-03   setid =     902 xmoment=   0.0000E+00 ymoment=   0.0000E+00 zmoment=   0.0000E+00
 nd#     903  xforce=   0.0000E+00   yforce=   0.0000E+00  zforce=  -8.4762E+01   energy=   4.0676E-03   setid =     903 xmoment=   0.0000E+00 ymoment=   0.0000E+00 zmoment=   0.0000E+00
 nd#     905  xforce=   0.0000E+00   yforce=   0.0000E+00  zforce=  -9.2897E+01   energy=   4.2095E-03   setid =     905 xmoment=   0.0000E+00 ymoment=   0.0000E+00 zmoment=   0.0000E+00
 nd#     906  xforce=   0.0000E+00   yforce=   0.0000E+00  zforce=  -1.0351E+02   energy=   4.7804E-03   setid =     906 xmoment=   0.0000E+00 ymoment=   0.0000E+00 zmoment=   0.0000E+00
 nd#     908  xforce=   0.0000E+00   yforce=   0.0000E+00  zforce=  -1.0977E+02   energy=   4.8817E-03   setid =     908 xmoment=   0.0000E+00 ymoment=   0.0000E+00 zmoment=   0.0000E+00
 nd#     909  xforce=   0.0000E+00   yforce=   0.0000E+00  zforce=  -2.6721E+01   energy=   1.4063E-03   setid =     909 xmoment=   0.0000E+00 ymoment=   0.0000E+00 zmoment=   0.0000E+00
 nd#     911  xforce=   0.0000E+00   yforce=   0.0000E+00  zforce=  -4.6060E+01   energy=   2.0363E-03   setid =     911 xmoment=   0.0000E+00 ymoment=   0.0000E+00 zmoment=   0.0000E+00
 nd#    1012  xforce=   0.0000E+00   yforce=   0.0000E+00  zforce=  -5.0056E+01   energy=   2.8999E-03   setid =    1012 xmoment=   0.0000E+00 ymoment=   0.0000E+00 zmoment=   0.0000E+00
 nd#    1013  xforce=   0.0000E+00   yforce=   0.0000E+00  zforce=  -1.0145E+02   energy=   4.0096E-03   setid =    1013 xmoment=   0.0000E+00 ymoment=   0.0000E+00 zmoment=   0.0000E+00
 nd#    1014  xforce=   0.0000E+00   yforce=   0.0000E+00  zforce=  -7.1582E+01   energy=   3.6880E-03   setid =    1014 xmoment=   0.0000E+00 ymoment=   0.0000E+00 zmoment=   0.0000E+00
 nd#    1015  xforce=   0.0000E+00   yforce=   0.0000E+00  zforce=  -5.9474E+01   energy=   2.2428E-03   setid =    1015 xmoment=   0.0000E+00 ymoment=   0.0000E+00 zmoment=   0.0000E+00
 nd#    1060  xforce=   0.0000E+00   yforce=   0.0000E+00  zforce=   3.9129E+01   energy=  -1.1688E-03   setid =    1060 xmoment=   0.0000E+00 ymoment=   0.0000E+00 zmoment=   0.0000E+00
 nd#    1061  xforce=   0.0000E+00   yforce=   0.0000E+00  zforce=   4.3795E+01   energy=  -1.5029E-03   setid =    1061 xmoment=   0.0000E+00 ymoment=   0.0000E+00 zmoment=   0.0000E+00
 nd#    1062  xforce=   0.0000E+00   yforce=   0.0000E+00  zforce=   6.8631E+01   energy=  -2.3310E-03   setid =    1062 xmoment=   0.0000E+00 ymoment=   0.0000E+00 zmoment=   0.0000E+00
 nd#    1063  xforce=   0.0000E+00   yforce=   0.0000E+00  zforce=   5.5650E+01   energy=  -2.0089E-03   setid =    1063 xmoment=   0.0000E+00 ymoment=   0.0000E+00 zmoment=   0.0000E+00
              xtotal=   0.0000E+00   ytotal=   0.0000E+00  ztotal=  -3.2434E+03   etotal=   1.4741E-01

 n o d a l   f o r c e/e n e r g y    o u t p u t  t=   8.40980E+00

 velocity boundary condition forces/rigid body moments 

 nd#     179  xforce=   0.0000E+00   yforce=   0.0000E+00  zforce=  -1.0990E+02   energy=   6.3125E-03   setid =     179 xmoment=   0.0000E+00 ymoment=   0.0000E+00 zmoment=   0.0000E+00
 nd#     180  xforce=   0.0000E+00   yforce=   0.0000E+00  zforce=  -1.6994E+02   energy=   8.9825E-03   setid =     180 xmoment=   0.0000E+00 ymoment=   0.0000E+00 zmoment=   0.0000E+00
 nd#     181  xforce=   0.0000E+00   yforce=   0.0000E+00  zforce=  -5.9126E+01   energy=   5.2783E-03   setid =     181 xmoment=   0.0000E+00 ymoment=   0.0000E+00 zmoment=   0.0000E+00
 nd#     182  xforce=   0.0000E+00   yforce=   0.0000E+00  zforce=  -3.0962E+01   energy=   3.5034E-03   setid =     182 xmoment=   0.0000E+00 ymoment=   0.0000E+00 zmoment=   0.0000E+00
 nd#     247  xforce=   0.0000E+00   yforce=   0.0000E+00  zforce=  -1.8462E+02   energy=   6.7978E-03   setid =     247 xmoment=   0.0000E+00 ymoment=   0.0000E+00 zmoment=   0.0000E+00
 nd#     248  xforce=   0.0000E+00   yforce=   0.0000E+00  zforce=   7.1702E+01   energy=  -4.8752E-04   setid =     248 xmoment=   0.0000E+00 ymoment=   0.0000E+00 zmoment=   0.0000E+00
 nd#     249  xforce=   0.0000E+00   yforce=   0.0000E+00  zforce=  -4.6172E+01   energy=   3.0393E-03   setid =     249 xmoment=   0.0000E+00 ymoment=   0.0000E+00 zmoment=   0.0000E+00
 nd#     250  xforce=   0.0000E+00   yforce=   0.0000E+00  zforce=  -1.4003E+02   energy=   5.3238E-03   setid =     250 xmoment=   0.0000E+00 ymoment=   0.0000E+00 zmoment=   0.0000E+00
 nd#     283  xforce=   0.0000E+00   yforce=   0.0000E+00  zforce=  -1.3184E+02   energy=   6.4843E-03   setid =     283 xmoment=   0.0000E+00 ymoment=   0.0000E+00 zmoment=   0.0000E+00
 nd#     284  xforce=   0.0000E+00   yforce=   0.0000E+00  zforce=   1.4322E+02   energy=  -9.4847E-04   setid =     284 xmoment=   0.0000E+00 ymoment=   0.0000E+00 zmoment=   0.0000E+00
 nd#     333  xforce=   0.0000E+00   yforce=   0.0000E+00  zforce=  -5.2851E+01   energy=   2.6571E-03   setid =     333 xmoment=   0.0000E+00 ymoment=   0.0000E+00 zmoment=   0.0000E+00
 nd#     334  xforce=   0.0000E+00   yforce=   0.0000E+00  zforce=  -9.3249E+01   energy=   5.2734E-03   setid =     334 xmoment=   0.0000E+00 ymoment=   0.0000E+00 zmoment=   0.0000E+00
 nd#     335  xforce=   0.0000E+00   yforce=   0.0000E+00  zforce=  -5.6901E+01   energy=   4.4985E-03   setid =     335 xmoment=   0.0000E+00 ymoment=   0.0000E+00 zmoment=   0.0000E+00
 nd#     368  xforce=   0.0000E+00   yforce=   0.0000E+00  zforce=  -1.1862E+02   energy=   4.6924E-03   setid =     368 xmoment=   0.0000E+00 ymoment=   0.0000E+00 zmoment=   0.0000E+00
 nd#     369  xforce=   0.0000E+00   yforce=   0.0000E+00  zforce=  -8.8289E+01   energy=   4.4838E-03   setid =     369 xmoment=   0.0000E+00 ymoment=   0.0000E+00 zmoment=   0.0000E+00
 nd#     386  xforce=   0.0000E+00   yforce=   0.0000E+00  zforce=  -1.5611E+02   energy=   7.1036E-03   setid =     386 xmoment=   0.0000E+00 ymoment=   0.0000E+00 zmoment=   0.0000E+00
 nd#     403  xforce=   0.0000E+00   yforce=   0.0000E+00  zforce=  -7.9735E+01   energy=   4.0418E-03   setid =     403 xmoment=   0.0000E+00 ymoment=   0.0000E+00 zmoment=   0.0000E+00
 nd#     436  xforce=   0.0000E+00   yforce=   0.0000E+00  zforce=  -7.2095E+01   energy=   5.1728E-03   setid =     436 xmoment=   0.0000E+00 ymoment=   0.0000E+00 zmoment=   0.0000E+00
 nd#     437  xforce=   0.0000E+00   yforce=   0.0000E+00  zforce=  -6.0099E+01   energy=   3.4149E-03   setid =     437 xmoment=   0.0000E+00 ymoment=   0.0000E+00 zmoment=   0.0000E+00
 nd#     438  xforce=   0.0000E+00   yforce=   0.0000E+00  zforce=  -6.2290E+01   energy=   3.2299E-03   setid =     438 xmoment=   0.0000E+00 ymoment=   0.0000E+00 zmoment=   0.0000E+00
 nd#     439  xforce=   0.0000E+00   yforce=   0.0000E+00  zforce=  -5.8646E+01   energy=   3.1255E-03   setid =     439 xmoment=   0.0000E+00 ymoment=   0.0000E+00 zmoment=   0.0000E+00
 nd#     440  xforce=   0.0000E+00   yforce=   0.0000E+00  zforce=  -5.5806E+01   energy=   3.0748E-03   setid =     440 xmoment=   0.0000E+00 ymoment=   0.0000E+00 zmoment=   0.0000E+00
 nd#     441  xforce=   0.0000E+00   yforce=   0.0000E+00  zforce=  -5.2993E+01   energy=   3.0173E-03   setid =     441 xmoment=   0.0000E+00 ymoment=   0.0000E+00 zmoment=   0.0000E+00
 nd#     442  xforce=   0.0000E+00   yforce=   0.0000E+00  zforce=  -4.9010E+01   energy=   2.8595E-03   setid =     442 xmoment=   0.0000E+00 ymoment=   0.0000E+00 zmoment=   0.0000E+00
 nd#     443  xforce=   0.0000E+00   yforce=   0.0000E+00  zforce=  -3.8935E+01   energy=   2.4566E-03   setid =     443 xmoment=   0.0000E+00 ymoment=   0.0000E+00 zmoment=   0.0000E+00
 nd#     444  xforce=   0.0000E+00   yforce=   0.0000E+00  zforce=   7.8696E+00   energy=  -3.2834E-04   setid =     444 xmoment=   0.0000E+00 ymoment=   0.0000E+00 zmoment=   0.0000E+00
 nd#     628  xforce=   0.0000E+00   yforce=   0.0000E+00  zforce=  -6.8730E+01   energy=   4.4731E-03   setid =     628 xmoment=   0.0000E+00 ymoment=   0.0000E+00 zmoment=   0.0000E+00
 nd#     631  xforce=   0.0000E+00   yforce=   0.0000E+00  zforce=  -6.3795E+01   energy=   4.1616E-03   setid =     631 xmoment=   0.0000E+00 ymoment=   0.0000E+00 zmoment=   0.0000E+00
 nd#     632  xforce=   0.0000E+00   yforce=   0.0000E+00  zforce=  -1.0245E+02   energy=   5.9036E-03   setid =     632 xmoment=   0.0000E+00 ymoment=   0.0000E+00 zmoment=   0.0000E+00
 nd#     635  xforce=   0.0000E+00   yforce=   0.0000E+00  zforce=  -1.0438E+02   energy=   5.8289E-03   setid =     635 xmoment=   0.0000E+00 ymoment=   0.0000E+00 zmoment=   0.0000E+00
 nd#     636  xforce=   0.0000E+00   yforce=   0.0000E+00  zforce=  -9.7914E+01   energy=   6.0195E-03   setid =     636 xmoment=   0.0000E+00 ymoment=   0.0000E+00 zmoment=   0.0000E+00
 nd#     639  xforce=   0.0000E+00   yforce=   0.0000E+00  zforce=  -8.6125E+01   energy=   5.4053E-03   setid =     639 xmoment=   0.0000E+00 ymoment=   0.0000E+00 zmoment=   0.0000E+00
 nd#     640  xforce=   0.0000E+00   yforce=   0.0000E+00  zforce=  -6.1690E+01   energy=   3.4106E-03   setid =     640 xmoment=   0.0000E+00 ymoment=   0.0000E+00 zmoment=   0.0000E+00
 nd#     643  xforce=   0.0000E+00   yforce=   0.0000E+00  zforce=  -6.1851E+01   energy=   3.3328E-03   setid =     643 xmoment=   0.0000E+00 ymoment=   0.0000E+00 zmoment=   0.0000E+00
 nd#     692  xforce=   0.0000E+00   yforce=   0.0000E+00  zforce=  -7.4083E+01   energy=   4.8097E-03   setid =     692 xmoment=   0.0000E+00 ymoment=   0.0000E+00 zmoment=   0.0000E+00
 nd#     694  xforce=   0.0000E+00   yforce=   0.0000E+00  zforce=  -1.0157E+02   energy=   6.0143E-03   setid =     694 xmoment=   0.0000E+00 ymoment=   0.0000E+00 zmoment=   0.0000E+00
 nd#     696  xforce=   0.0000E+00   yforce=   0.0000E+00  zforce=  -1.0736E+02   energy=   6.5673E-03   setid =     696 xmoment=   0.0000E+00 ymoment=   0.0000E+00 zmoment=   0.0000E+00
 nd#     698  xforce=   0.0000E+00   yforce=   0.0000E+00  zforce=  -5.7829E+01   energy=   3.3534E-03   setid =     698 xmoment=   0.0000E+00 ymoment=   0.0000E+00 zmoment=   0.0000E+00
 nd#     900  xforce=   0.0000E+00   yforce=   0.0000E+00  zforce=  -5.9635E+01   energy=   4.2273E-03   setid =     900 xmoment=   0.0000E+00 ymoment=   0.0000E+00 zmoment=   0.0000E+00
[...]
 nd#     182  xforce=   0.0000E+00   yforce=   0.0000E+00  zforce=  -1.5654E+01   energy=   4.2212E-02   setid =     182 xmoment=   0.0000E+00 ymoment=   0.0000E+00 zmoment=   0.0000E+00
 nd#     247  xforce=   0.0000E+00   yforce=   0.0000E+00  zforce=  -1.9326E+02   energy=   1.8173E-01   setid =     247 xmoment=   0.0000E+00 ymoment=   0.0000E+00 zmoment=   0.0000E+00
 nd#     248  xforce=   0.0000E+00   yforce=   0.0000E+00  zforce=   9.8334E+01   energy=  -6.5446E-02   setid =     248 xmoment=   0.0000E+00 ymoment=   0.0000E+00 zmoment=   0.0000E+00
 nd#     249  xforce=   0.0000E+00   yforce=   0.0000E+00  zforce=  -6.9922E+01   energy=   7.7870E-02   setid =     249 xmoment=   0.0000E+00 ymoment=   0.0000E+00 zmoment=   0.0000E+00
 nd#     250  xforce=   0.0000E+00   yforce=   0.0000E+00  zforce=  -1.5363E+02   energy=   1.4842E-01   setid =     250 xmoment=   0.0000E+00 ymoment=   0.0000E+00 zmoment=   0.0000E+00
 nd#     283  xforce=   0.0000E+00   yforce=   0.0000E+00  zforce=  -1.0735E+02   energy=   1.2382E-01   setid =     283 xmoment=   0.0000E+00 ymoment=   0.0000E+00 zmoment=   0.0000E+00
 nd#     284  xforce=   0.0000E+00   yforce=   0.0000E+00  zforce=   2.0468E+02   energy=  -1.7155E-01   setid =     284 xmoment=   0.0000E+00 ymoment=   0.0000E+00 zmoment=   0.0000E+00
 nd#     333  xforce=   0.0000E+00   yforce=   0.0000E+00  zforce=  -5.0156E+01   energy=   5.4748E-02   setid =     333 xmoment=   0.0000E+00 ymoment=   0.0000E+00 zmoment=   0.0000E+00
 nd#     334  xforce=   0.0000E+00   yforce=   0.0000E+00  zforce=  -1.2173E+02   energy=   1.1340E-01   setid =     334 xmoment=   0.0000E+00 ymoment=   0.0000E+00 zmoment=   0.0000E+00
 nd#     335  xforce=   0.0000E+00   yforce=   0.0000E+00  zforce=  -6.3692E+01   energy=   6.9827E-02   setid =     335 xmoment=   0.0000E+00 ymoment=   0.0000E+00 zmoment=   0.0000E+00
 nd#     368  xforce=   0.0000E+00   yforce=   0.0000E+00  zforce=  -1.2420E+02   energy=   1.1940E-01   setid =     368 xmoment=   0.0000E+00 ymoment=   0.0000E+00 zmoment=   0.0000E+00
 nd#     369  xforce=   0.0000E+00   yforce=   0.0000E+00  zforce=  -8.3063E+01   energy=   8.7977E-02   setid =     369 xmoment=   0.0000E+00 ymoment=   0.0000E+00 zmoment=   0.0000E+00
 nd#     386  xforce=   0.0000E+00   yforce=   0.0000E+00  zforce=  -1.4958E+02   energy=   1.5415E-01   setid =     386 xmoment=   0.0000E+00 ymoment=   0.0000E+00 zmoment=   0.0000E+00
 nd#     403  xforce=   0.0000E+00   yforce=   0.0000E+00  zforce=  -7.0596E+01   energy=   7.7549E-02   setid =     403 xmoment=   0.0000E+00 ymoment=   0.0000E+00 zmoment=   0.0000E+00
 nd#     436  xforce=   0.0000E+00   yforce=   0.0000E+00  zforce=  -7.6114E+01   energy=   8.7001E-02   setid =     436 xmoment=   0.0000E+00 ymoment=   0.0000E+00 zmoment=   0.0000E+00
 nd#     437  xforce=   0.0000E+00   yforce=   0.0000E+00  zforce=  -6.4629E+01   energy=   7.2804E-02   setid =     437 xmoment=   0.0000E+00 ymoment=   0.0000E+00 zmoment=   0.0000E+00
 nd#     438  xforce=   0.0000E+00   yforce=   0.0000E+00  zforce=  -5.5298E+01   energy=   6.0954E-02   setid =     438 xmoment=   0.0000E+00 ymoment=   0.0000E+00 zmoment=   0.0000E+00
 nd#     439  xforce=   0.0000E+00   yforce=   0.0000E+00  zforce=  -5.2136E+01   energy=   5.8262E-02   setid =     439 xmoment=   0.0000E+00 ymoment=   0.0000E+00 zmoment=   0.0000E+00
 nd#     440  xforce=   0.0000E+00   yforce=   0.0000E+00  zforce=  -5.1216E+01   energy=   5.6048E-02   setid =     440 xmoment=   0.0000E+00 ymoment=   0.0000E+00 zmoment=   0.0000E+00
 nd#     441  xforce=   0.0000E+00   yforce=   0.0000E+00  zforce=  -4.9476E+01   energy=   5.3978E-02   setid =     441 xmoment=   0.0000E+00 ymoment=   0.0000E+00 zmoment=   0.0000E+00
 nd#     442  xforce=   0.0000E+00   yforce=   0.0000E+00  zforce=  -4.3308E+01   energy=   5.0387E-02   setid =     442 xmoment=   0.0000E+00 ymoment=   0.0000E+00 zmoment=   0.0000E+00
 nd#     443  xforce=   0.0000E+00   yforce=   0.0000E+00  zforce=  -2.7255E+01   energy=   3.7142E-02   setid =     443 xmoment=   0.0000E+00 ymoment=   0.0000E+00 zmoment=   0.0000E+00
 nd#     444  xforce=   0.0000E+00   yforce=   0.0000E+00  zforce=   2.0841E+01   energy=  -1.3405E-02   setid =     444 xmoment=   0.0000E+00 ymoment=   0.0000E+00 zmoment=   0.0000E+00
 nd#     628  xforce=   0.0000E+00   yforce=   0.0000E+00  zforce=  -7.8421E+01   energy=   8.8573E-02   setid =     628 xmoment=   0.0000E+00 ymoment=   0.0000E+00 zmoment=   0.0000E+00
 nd#     631  xforce=   0.0000E+00   yforce=   0.0000E+00  zforce=  -6.3243E+01   energy=   8.0005E-02   setid =     631 xmoment=   0.0000E+00 ymoment=   0.0000E+00 zmoment=   0.0000E+00
 nd#     632  xforce=   0.0000E+00   yforce=   0.0000E+00  zforce=  -1.3027E+02   energy=   1.2523E-01   setid =     632 xmoment=   0.0000E+00 ymoment=   0.0000E+00 zmoment=   0.0000E+00
 nd#     635  xforce=   0.0000E+00   yforce=   0.0000E+00  zforce=  -1.2722E+02   energy=   1.2588E-01   setid =     635 xmoment=   0.0000E+00 ymoment=   0.0000E+00 zmoment=   0.0000E+00
 nd#     636  xforce=   0.0000E+00   yforce=   0.0000E+00  zforce=  -1.1313E+02   energy=   1.1436E-01   setid =     636 xmoment=   0.0000E+00 ymoment=   0.0000E+00 zmoment=   0.0000E+00
 nd#     639  xforce=   0.0000E+00   yforce=   0.0000E+00  zforce=  -9.2811E+01   energy=   9.9845E-02   setid =     639 xmoment=   0.0000E+00 ymoment=   0.0000E+00 zmoment=   0.0000E+00
 nd#     640  xforce=   0.0000E+00   yforce=   0.0000E+00  zforce=  -5.8601E+01   energy=   6.3366E-02   setid =     640 xmoment=   0.0000E+00 ymoment=   0.0000E+00 zmoment=   0.0000E+00
 nd#     643  xforce=   0.0000E+00   yforce=   0.0000E+00  zforce=  -5.9145E+01   energy=   6.3918E-02   setid =     643 xmoment=   0.0000E+00 ymoment=   0.0000E+00 zmoment=   0.0000E+00
 nd#     692  xforce=   0.0000E+00   yforce=   0.0000E+00  zforce=  -9.0162E+01   energy=   9.6685E-02   setid =     692 xmoment=   0.0000E+00 ymoment=   0.0000E+00 zmoment=   0.0000E+00
 nd#     694  xforce=   0.0000E+00   yforce=   0.0000E+00  zforce=  -1.3208E+02   energy=   1.2621E-01   setid =     694 xmoment=   0.0000E+00 ymoment=   0.0000E+00 zmoment=   0.0000E+00
 nd#     696  xforce=   0.0000E+00   yforce=   0.0000E+00  zforce=  -1.3019E+02   energy=   1.2831E-01   setid =     696 xmoment=   0.0000E+00 ymoment=   0.0000E+00 zmoment=   0.0000E+00
 nd#     698  xforce=   0.0000E+00   yforce=   0.0000E+00  zforce=  -5.7483E+01   energy=   6.2149E-02   setid =     698 xmoment=   0.0000E+00 ymoment=   0.0000E+00 zmoment=   0.0000E+00
 nd#     900  xforce=   0.0000E+00   yforce=   0.0000E+00  zforce=  -6.9809E+01   energy=   7.8582E-02   setid =     900 xmoment=   0.0000E+00 ymoment=   0.0000E+00 zmoment=   0.0000E+00
 nd#     902  xforce=   0.0000E+00   yforce=   0.0000E+00  zforce=  -9.2518E+01   energy=   1.0078E-01   setid =     902 xmoment=   0.0000E+00 ymoment=   0.0000E+00 zmoment=   0.0000E+00
 nd#     903  xforce=   0.0000E+00   yforce=   0.0000E+00  zforce=  -1.0646E+02   energy=   1.0766E-01   setid =     903 xmoment=   0.0000E+00 ymoment=   0.0000E+00 zmoment=   0.0000E+00
 nd#     905  xforce=   0.0000E+00   yforce=   0.0000E+00  zforce=  -1.2750E+02   energy=   1.2603E-01   setid =     905 xmoment=   0.0000E+00 ymoment=   0.0000E+00 zmoment=   0.0000E+00
 nd#     906  xforce=   0.0000E+00   yforce=   0.0000E+00  zforce=  -1.0228E+02   energy=   1.1637E-01   setid =     906 xmoment=   0.0000E+00 ymoment=   0.0000E+00 zmoment=   0.0000E+00
 nd#     908  xforce=   0.0000E+00   yforce=   0.0000E+00  zforce=  -1.4036E+02   energy=   1.3877E-01   setid =     908 xmoment=   0.0000E+00 ymoment=   0.0000E+00 zmoment=   0.0000E+00
 nd#     909  xforce=   0.0000E+00   yforce=   0.0000E+00  zforce=  -1.2694E+01   energy=   2.3907E-02   setid =     909 xmoment=   0.0000E+00 ymoment=   0.0000E+00 zmoment=   0.0000E+00
 nd#     911  xforce=   0.0000E+00   yforce=   0.0000E+00  zforce=  -4.9692E+01   energy=   5.4122E-02   setid =     911 xmoment=   0.0000E+00 ymoment=   0.0000E+00 zmoment=   0.0000E+00
 nd#    1012  xforce=   0.0000E+00   yforce=   0.0000E+00  zforce=  -4.4420E+01   energy=   6.7762E-02   setid =    1012 xmoment=   0.0000E+00 ymoment=   0.0000E+00 zmoment=   0.0000E+00
 nd#    1013  xforce=   0.0000E+00   yforce=   0.0000E+00  zforce=  -1.3624E+02   energy=   1.3049E-01   setid =    1013 xmoment=   0.0000E+00 ymoment=   0.0000E+00 zmoment=   0.0000E+00
 nd#    1014  xforce=   0.0000E+00   yforce=   0.0000E+00  zforce=  -7.5879E+01   energy=   8.7829E-02   setid =    1014 xmoment=   0.0000E+00 ymoment=   0.0000E+00 zmoment=   0.0000E+00
 nd#    1015  xforce=   0.0000E+00   yforce=   0.0000E+00  zforce=  -6.0766E+01   energy=   6.7435E-02   setid =    1015 xmoment=   0.0000E+00 ymoment=   0.0000E+00 zmoment=   0.0000E+00
 nd#    1060  xforce=   0.0000E+00   yforce=   0.0000E+00  zforce=   5.9017E+01   energy=  -4.6780E-02   setid =    1060 xmoment=   0.0000E+00 ymoment=   0.0000E+00 zmoment=   0.0000E+00
 nd#    1061  xforce=   0.0000E+00   yforce=   0.0000E+00  zforce=   5.6740E+01   energy=  -5.2400E-02   setid =    1061 xmoment=   0.0000E+00 ymoment=   0.0000E+00 zmoment=   0.0000E+00
 nd#    1062  xforce=   0.0000E+00   yforce=   0.0000E+00  zforce=   9.4524E+01   energy=  -8.9232E-02   setid =    1062 xmoment=   0.0000E+00 ymoment=   0.0000E+00 zmoment=   0.0000E+00
 nd#    1063  xforce=   0.0000E+00   yforce=   0.0000E+00  zforce=   6.7255E+01   energy=  -6.0287E-02   setid =    1063 xmoment=   0.0000E+00 ymoment=   0.0000E+00 zmoment=   0.0000E+00
              xtotal=   0.0000E+00   ytotal=   0.0000E+00  ztotal=  -3.5588E+03   etotal=   3.9196E+00

 n o d a l   f o r c e/e n e r g y    o u t p u t  t=   1.00000E+02

 velocity boundary condition forces/rigid body moments 

 nd#     179  xforce=   0.0000E+00   yforce=   0.0000E+00  zforce=  -1.4234E+02   energy=   1.3858E-01   setid =     179 xmoment=   0.0000E+00 ymoment=   0.0000E+00 zmoment=   0.0000E+00
 nd#     180  xforce=   0.0000E+00   yforce=   0.0000E+00  zforce=  -2.2778E+02   energy=   2.1528E-01   setid =     180 xmoment=   0.0000E+00 ymoment=   0.0000E+00 zmoment=   0.0000E+00
 nd#     181  xforce=   0.0000E+00   yforce=   0.0000E+00  zforce=  -5.6660E+01   energy=   6.6995E-02   setid =     181 xmoment=   0.0000E+00 ymoment=   0.0000E+00 zmoment=   0.0000E+00
 nd#     182  xforce=   0.0000E+00   yforce=   0.0000E+00  zforce=  -3.8913E+01   energy=   4.2490E-02   setid =     182 xmoment=   0.0000E+00 ymoment=   0.0000E+00 zmoment=   0.0000E+00
 nd#     247  xforce=   0.0000E+00   yforce=   0.0000E+00  zforce=  -1.5519E+02   energy=   1.8350E-01   setid =     247 xmoment=   0.0000E+00 ymoment=   0.0000E+00 zmoment=   0.0000E+00
 nd#     248  xforce=   0.0000E+00   yforce=   0.0000E+00  zforce=   7.5927E+01   energy=  -6.6332E-02   setid =     248 xmoment=   0.0000E+00 ymoment=   0.0000E+00 zmoment=   0.0000E+00
 nd#     249  xforce=   0.0000E+00   yforce=   0.0000E+00  zforce=  -8.6749E+01   energy=   7.8667E-02   setid =     249 xmoment=   0.0000E+00 ymoment=   0.0000E+00 zmoment=   0.0000E+00
 nd#     250  xforce=   0.0000E+00   yforce=   0.0000E+00  zforce=  -1.3938E+02   energy=   1.4991E-01   setid =     250 xmoment=   0.0000E+00 ymoment=   0.0000E+00 zmoment=   0.0000E+00
 nd#     283  xforce=   0.0000E+00   yforce=   0.0000E+00  zforce=  -9.8078E+01   energy=   1.2487E-01   setid =     283 xmoment=   0.0000E+00 ymoment=   0.0000E+00 zmoment=   0.0000E+00
 nd#     284  xforce=   0.0000E+00   yforce=   0.0000E+00  zforce=   1.3999E+02   energy=  -1.7331E-01   setid =     284 xmoment=   0.0000E+00 ymoment=   0.0000E+00 zmoment=   0.0000E+00
 nd#     333  xforce=   0.0000E+00   yforce=   0.0000E+00  zforce=  -3.2938E+01   energy=   5.5170E-02   setid =     333 xmoment=   0.0000E+00 ymoment=   0.0000E+00 zmoment=   0.0000E+00
 nd#     334  xforce=   0.0000E+00   yforce=   0.0000E+00  zforce=  -1.2443E+02   energy=   1.1465E-01   setid =     334 xmoment=   0.0000E+00 ymoment=   0.0000E+00 zmoment=   0.0000E+00
 nd#     335  xforce=   0.0000E+00   yforce=   0.0000E+00  zforce=  -6.2297E+01   energy=   7.0468E-02   setid =     335 xmoment=   0.0000E+00 ymoment=   0.0000E+00 zmoment=   0.0000E+00
 nd#     368  xforce=   0.0000E+00   yforce=   0.0000E+00  zforce=  -1.1076E+02   energy=   1.2060E-01   setid =     368 xmoment=   0.0000E+00 ymoment=   0.0000E+00 zmoment=   0.0000E+00
 nd#     369  xforce=   0.0000E+00   yforce=   0.0000E+00  zforce=  -8.4278E+01   energy=   8.8828E-02   setid =     369 xmoment=   0.0000E+00 ymoment=   0.0000E+00 zmoment=   0.0000E+00
 nd#     386  xforce=   0.0000E+00   yforce=   0.0000E+00  zforce=  -1.3820E+02   energy=   1.5561E-01   setid =     386 xmoment=   0.0000E+00 ymoment=   0.0000E+00 zmoment=   0.0000E+00
 nd#     403  xforce=   0.0000E+00   yforce=   0.0000E+00  zforce=  -6.4118E+01   energy=   7.8234E-02   setid =     403 xmoment=   0.0000E+00 ymoment=   0.0000E+00 zmoment=   0.0000E+00
 nd#     436  xforce=   0.0000E+00   yforce=   0.0000E+00  zforce=  -8.3018E+01   energy=   8.7810E-02   setid =     436 xmoment=   0.0000E+00 ymoment=   0.0000E+00 zmoment=   0.0000E+00
 nd#     437  xforce=   0.0000E+00   yforce=   0.0000E+00  zforce=  -7.3463E+01   energy=   7.3506E-02   setid =     437 xmoment=   0.0000E+00 ymoment=   0.0000E+00 zmoment=   0.0000E+00
 nd#     438  xforce=   0.0000E+00   yforce=   0.0000E+00  zforce=  -5.3850E+01   energy=   6.1509E-02   setid =     438 xmoment=   0.0000E+00 ymoment=   0.0000E+00 zmoment=   0.0000E+00
 nd#     439  xforce=   0.0000E+00   yforce=   0.0000E+00  zforce=  -5.1330E+01   energy=   5.8788E-02   setid =     439 xmoment=   0.0000E+00 ymoment=   0.0000E+00 zmoment=   0.0000E+00
 nd#     440  xforce=   0.0000E+00   yforce=   0.0000E+00  zforce=  -4.9184E+01   energy=   5.6558E-02   setid =     440 xmoment=   0.0000E+00 ymoment=   0.0000E+00 zmoment=   0.0000E+00
 nd#     441  xforce=   0.0000E+00   yforce=   0.0000E+00  zforce=  -4.6670E+01   energy=   5.4467E-02   setid =     441 xmoment=   0.0000E+00 ymoment=   0.0000E+00 zmoment=   0.0000E+00
 nd#     442  xforce=   0.0000E+00   yforce=   0.0000E+00  zforce=  -4.2383E+01   energy=   5.0823E-02   setid =     442 xmoment=   0.0000E+00 ymoment=   0.0000E+00 zmoment=   0.0000E+00
 nd#     443  xforce=   0.0000E+00   yforce=   0.0000E+00  zforce=  -2.3662E+01   energy=   3.7401E-02   setid =     443 xmoment=   0.0000E+00 ymoment=   0.0000E+00 zmoment=   0.0000E+00
 nd#     444  xforce=   0.0000E+00   yforce=   0.0000E+00  zforce=   2.2118E+01   energy=  -1.3624E-02   setid =     444 xmoment=   0.0000E+00 ymoment=   0.0000E+00 zmoment=   0.0000E+00
 nd#     628  xforce=   0.0000E+00   yforce=   0.0000E+00  zforce=  -9.3553E+01   energy=   8.9447E-02   setid =     628 xmoment=   0.0000E+00 ymoment=   0.0000E+00 zmoment=   0.0000E+00
 nd#     631  xforce=   0.0000E+00   yforce=   0.0000E+00  zforce=  -8.4761E+01   energy=   8.0758E-02   setid =     631 xmoment=   0.0000E+00 ymoment=   0.0000E+00 zmoment=   0.0000E+00
 nd#     632  xforce=   0.0000E+00   yforce=   0.0000E+00  zforce=  -1.3178E+02   energy=   1.2657E-01   setid =     632 xmoment=   0.0000E+00 ymoment=   0.0000E+00 zmoment=   0.0000E+00
 nd#     635  xforce=   0.0000E+00   yforce=   0.0000E+00  zforce=  -1.3264E+02   energy=   1.2721E-01   setid =     635 xmoment=   0.0000E+00 ymoment=   0.0000E+00 zmoment=   0.0000E+00
 nd#     636  xforce=   0.0000E+00   yforce=   0.0000E+00  zforce=  -1.1601E+02   energy=   1.1553E-01   setid =     636 xmoment=   0.0000E+00 ymoment=   0.0000E+00 zmoment=   0.0000E+00
 nd#     639  xforce=   0.0000E+00   yforce=   0.0000E+00  zforce=  -9.8650E+01   energy=   1.0082E-01   setid =     639 xmoment=   0.0000E+00 ymoment=   0.0000E+00 zmoment=   0.0000E+00
 nd#     640  xforce=   0.0000E+00   yforce=   0.0000E+00  zforce=  -6.0595E+01   energy=   6.3972E-02   setid =     640 xmoment=   0.0000E+00 ymoment=   0.0000E+00 zmoment=   0.0000E+00
 nd#     643  xforce=   0.0000E+00   yforce=   0.0000E+00  zforce=  -6.3419E+01   energy=   6.4541E-02   setid =     643 xmoment=   0.0000E+00 ymoment=   0.0000E+00 zmoment=   0.0000E+00
 nd#     692  xforce=   0.0000E+00   yforce=   0.0000E+00  zforce=  -1.0086E+02   energy=   9.7657E-02   setid =     692 xmoment=   0.0000E+00 ymoment=   0.0000E+00 zmoment=   0.0000E+00
 nd#     694  xforce=   0.0000E+00   yforce=   0.0000E+00  zforce=  -1.3211E+02   energy=   1.2755E-01   setid =     694 xmoment=   0.0000E+00 ymoment=   0.0000E+00 zmoment=   0.0000E+00
 nd#     696  xforce=   0.0000E+00   yforce=   0.0000E+00  zforce=  -1.3174E+02   energy=   1.2965E-01   setid =     696 xmoment=   0.0000E+00 ymoment=   0.0000E+00 zmoment=   0.0000E+00
 nd#     698  xforce=   0.0000E+00   yforce=   0.0000E+00  zforce=  -5.8320E+01   energy=   6.2738E-02   setid =     698 xmoment=   0.0000E+00 ymoment=   0.0000E+00 zmoment=   0.0000E+00
 nd#     900  xforce=   0.0000E+00   yforce=   0.0000E+00  zforce=  -7.2095E+01   energy=   7.9303E-02   setid =     900 xmoment=   0.0000E+00 ymoment=   0.0000E+00 zmoment=   0.0000E+00
 nd#     902  xforce=   0.0000E+00   yforce=   0.0000E+00  zforce=  -1.0332E+02   energy=   1.0177E-01   setid =     902 xmoment=   0.0000E+00 ymoment=   0.0000E+00 zmoment=   0.0000E+00
 nd#     903  xforce=   0.0000E+00   yforce=   0.0000E+00  zforce=  -1.0351E+02   energy=   1.0873E-01   setid =     903 xmoment=   0.0000E+00 ymoment=   0.0000E+00 zmoment=   0.0000E+00
 nd#     905  xforce=   0.0000E+00   yforce=   0.0000E+00  zforce=  -1.2922E+02   energy=   1.2734E-01   setid =     905 xmoment=   0.0000E+00 ymoment=   0.0000E+00 zmoment=   0.0000E+00
 nd#     906  xforce=   0.0000E+00   yforce=   0.0000E+00  zforce=  -1.0250E+02   energy=   1.1741E-01   setid =     906 xmoment=   0.0000E+00 ymoment=   0.0000E+00 zmoment=   0.0000E+00
 nd#     908  xforce=   0.0000E+00   yforce=   0.0000E+00  zforce=  -1.4013E+02   energy=   1.4020E-01   setid =     908 xmoment=   0.0000E+00 ymoment=   0.0000E+00 zmoment=   0.0000E+00
 nd#     909  xforce=   0.0000E+00   yforce=   0.0000E+00  zforce=  -1.2842E+01   energy=   2.4037E-02   setid =     909 xmoment=   0.0000E+00 ymoment=   0.0000E+00 zmoment=   0.0000E+00
 nd#     911  xforce=   0.0000E+00   yforce=   0.0000E+00  zforce=  -4.9763E+01   energy=   5.4627E-02   setid =     911 xmoment=   0.0000E+00 ymoment=   0.0000E+00 zmoment=   0.0000E+00
 nd#    1012  xforce=   0.0000E+00   yforce=   0.0000E+00  zforce=  -6.7551E+01   energy=   6.8331E-02   setid =    1012 xmoment=   0.0000E+00 ymoment=   0.0000E+00 zmoment=   0.0000E+00
 nd#    1013  xforce=   0.0000E+00   yforce=   0.0000E+00  zforce=  -1.4047E+02   energy=   1.3190E-01   setid =    1013 xmoment=   0.0000E+00 ymoment=   0.0000E+00 zmoment=   0.0000E+00
 nd#    1014  xforce=   0.0000E+00   yforce=   0.0000E+00  zforce=  -8.2657E+01   energy=   8.8635E-02   setid =    1014 xmoment=   0.0000E+00 ymoment=   0.0000E+00 zmoment=   0.0000E+00
 nd#    1015  xforce=   0.0000E+00   yforce=   0.0000E+00  zforce=  -6.6312E+01   energy=   6.8081E-02   setid =    1015 xmoment=   0.0000E+00 ymoment=   0.0000E+00 zmoment=   0.0000E+00
 nd#    1060  xforce=   0.0000E+00   yforce=   0.0000E+00  zforce=   5.6753E+01   energy=  -4.7369E-02   setid =    1060 xmoment=   0.0000E+00 ymoment=   0.0000E+00 zmoment=   0.0000E+00
 nd#    1061  xforce=   0.0000E+00   yforce=   0.0000E+00  zforce=   6.7565E+01   energy=  -5.3032E-02   setid =    1061 xmoment=   0.0000E+00 ymoment=   0.0000E+00 zmoment=   0.0000E+00
 nd#    1062  xforce=   0.0000E+00   yforce=   0.0000E+00  zforce=   1.0390E+02   energy=  -9.0241E-02   setid =    1062 xmoment=   0.0000E+00 ymoment=   0.0000E+00 zmoment=   0.0000E+00
 nd#    1063  xforce=   0.0000E+00   yforce=   0.0000E+00  zforce=   6.4841E+01   energy=  -6.0959E-02   setid =    1063 xmoment=   0.0000E+00 ymoment=   0.0000E+00 zmoment=   0.0000E+00
              xtotal=   0.0000E+00   ytotal=   0.0000E+00  ztotal=  -3.7294E+03   etotal=   3.9566E+00
