 LS-DYNA keyword deck by LS-PrePost                                      
                    ls-dyna smp d R14 R14.1.1s_1_ef50e1 date 06/16/2024

{BEGIN LEGEND}
 Entity #        Title
        1                                                                                     
        2                                                                                     
        3                                                                                     
        4                                                                                     
        5                                                                                     
        6                                                                                     
        7                                                                                     
        8                                                                                     
        9                                                                                     
       10                                                                                     
       11                                                                                     
       12                                                                                     
       13                                                                                     
       14                                                                                     
       15                                                                                     
       16                                                                                     
       17                                                                                     
       18                                                                                     
       19                                                                                     
      179                                                                                     
      180                                                                                     
      181                                                                                     
      182                                                                                     
      247                                                                                     
      248                                                                                     
      249                                                                                     
      250                                                                                     
      283                                                                                     
      284                                                                                     
      333                                                                                     
      334                                                                                     
      335                                                                                     
      368                                                                                     
      369                                                                                     
      386                                                                                     
      403                                                                                     
      436                                                                                     
      437                                                                                     
      438                                                                                     
      439                                                                                     
      440                                                                                     
      441                                                                                     
      442                                                                                     
      443                                                                                     
      444                                                                                     
      628                                                                                     
      631                                                                                     
      632                                                                                     
      635                                                                                     
      636                                                                                     
      639                                                                                     
      640                                                                                     
      643                                                                                     
      692                                                                                     
      694                                                                                     
      696                                                                                     
      698                                                                                     
      900                                                                                     
      902                                                                                     
      903                                                                                     
      905                                                                                     
      906                                                                                     
      908                                                                                     
      909                                                                                     
      911                                                                                     
     1012                                                                                     
     1013                                                                                     
     1014                                                                                     
     1015                                                                                     
     1060                                                                                     
     1061                                                                                     
     1062                                                                                     
     1063                                                                                     
{END LEGEND}




 n o d a l   p r i n t   o u t   f o r   t i m e  s t e p       1                              ( at time 0.0000000E+00 )

 nodal point  x-disp     y-disp      z-disp      x-vel       y-vel       z-vel      x-accl      y-accl      z-accl      x-coor      y-coor      z-coor
        1  0.00000E+00 0.00000E+00 0.00000E+00 0.00000E+00 0.00000E+00 0.00000E+00 0.00000E+00 0.00000E+00 0.00000E+00 0.00000E+00 0.00000E+00 0.00000E+00
        2  0.00000E+00 0.00000E+00 0.00000E+00 0.00000E+00 0.00000E+00 0.00000E+00 0.00000E+00 0.00000E+00 0.00000E+00 7.93750E-04 0.00000E+00 0.00000E+00
        3  0.00000E+00 0.00000E+00 0.00000E+00 0.00000E+00 0.00000E+00 0.00000E+00 0.00000E+00 0.00000E+00 0.00000E+00 1.58750E-03 0.00000E+00 0.00000E+00
        4  0.00000E+00 0.00000E+00 0.00000E+00 0.00000E+00 0.00000E+00 0.00000E+00 0.00000E+00 0.00000E+00 0.00000E+00 2.38130E-03 0.00000E+00 0.00000E+00
        5  0.00000E+00 0.00000E+00 0.00000E+00 0.00000E+00 0.00000E+00 0.00000E+00 0.00000E+00 0.00000E+00 0.00000E+00 3.17500E-03 0.00000E+00 0.00000E+00
        6  0.00000E+00 0.00000E+00 0.00000E+00 0.00000E+00 0.00000E+00 0.00000E+00 0.00000E+00 0.00000E+00 0.00000E+00 2.93330E-03 1.21500E-03-1.78000E-18
        7  0.00000E+00 0.00000E+00 0.00000E+00 0.00000E+00 0.00000E+00 0.00000E+00 0.00000E+00 0.00000E+00 0.00000E+00 2.24510E-03 2.24510E-03-1.78000E-18
        8  0.00000E+00 0.00000E+00 0.00000E+00 0.00000E+00 0.00000E+00 0.00000E+00 0.00000E+00 0.00000E+00 0.00000E+00 1.21500E-03 2.93330E-03-1.78000E-18
        9  0.00000E+00 0.00000E+00 0.00000E+00 0.00000E+00 0.00000E+00 0.00000E+00 0.00000E+00 0.00000E+00 0.00000E+00 1.94400E-19 3.17500E-03-1.78000E-18
       10  0.00000E+00 0.00000E+00 0.00000E+00 0.00000E+00 0.00000E+00 0.00000E+00 0.00000E+00 0.00000E+00 0.00000E+00 1.45800E-19 2.38130E-03 0.00000E+00
       11  0.00000E+00 0.00000E+00 0.00000E+00 0.00000E+00 0.00000E+00 0.00000E+00 0.00000E+00 0.00000E+00 0.00000E+00 9.72100E-20 1.58750E-03 0.00000E+00
       12  0.00000E+00 0.00000E+00 0.00000E+00 0.00000E+00 0.00000E+00 0.00000E+00 0.00000E+00 0.00000E+00 0.00000E+00 4.86000E-20 7.93750E-04 0.00000E+00
       13  0.00000E+00 0.00000E+00 0.00000E+00 0.00000E+00 0.00000E+00 0.00000E+00 0.00000E+00 0.00000E+00 0.00000E+00 1.35190E-03 1.30830E-03 0.00000E+00
       14  0.00000E+00 0.00000E+00 0.00000E+00 0.00000E+00 0.00000E+00 0.00000E+00 0.00000E+00 0.00000E+00 0.00000E+00 1.50690E-03 6.69579E-04 0.00000E+00
       15  0.00000E+00 0.00000E+00 0.00000E+00 0.00000E+00 0.00000E+00 0.00000E+00 0.00000E+00 0.00000E+00 0.00000E+00 1.76750E-03 1.73630E-03 0.00000E+00
       16  0.00000E+00 0.00000E+00 0.00000E+00 0.00000E+00 0.00000E+00 0.00000E+00 0.00000E+00 0.00000E+00 0.00000E+00 2.19110E-03 9.20134E-04 0.00000E+00
       17  0.00000E+00 0.00000E+00 0.00000E+00 0.00000E+00 0.00000E+00 0.00000E+00 0.00000E+00 0.00000E+00 0.00000E+00 7.06977E-04 1.48830E-03 0.00000E+00
       18  0.00000E+00 0.00000E+00 0.00000E+00 0.00000E+00 0.00000E+00 0.00000E+00 0.00000E+00 0.00000E+00 0.00000E+00 9.50859E-04 2.16330E-03 0.00000E+00
       19  0.00000E+00 0.00000E+00 0.00000E+00 0.00000E+00 0.00000E+00 0.00000E+00 0.00000E+00 0.00000E+00 0.00000E+00 7.82454E-04 7.53789E-04 0.00000E+00
      179  0.00000E+00 0.00000E+00 0.00000E+00 0.00000E+00 0.00000E+00 0.00000E+00 0.00000E+00 0.00000E+00 0.00000E+00 4.49010E-03 4.49010E-03 2.54000E-02
      180  0.00000E+00 0.00000E+00 0.00000E+00 0.00000E+00 0.00000E+00 0.00000E+00 0.00000E+00 0.00000E+00 0.00000E+00 3.53300E-03 3.47070E-03 2.54000E-02
      181  0.00000E+00 0.00000E+00 0.00000E+00 0.00000E+00 0.00000E+00 0.00000E+00 0.00000E+00 0.00000E+00 0.00000E+00 4.37980E-03 1.83920E-03 2.54000E-02
      182  0.00000E+00 0.00000E+00 0.00000E+00 0.00000E+00 0.00000E+00 0.00000E+00 0.00000E+00 0.00000E+00 0.00000E+00 5.86670E-03 2.42980E-03 2.54000E-02
      247  0.00000E+00 0.00000E+00 0.00000E+00 0.00000E+00 0.00000E+00 0.00000E+00 0.00000E+00 0.00000E+00 0.00000E+00 1.58750E-03 0.00000E+00 2.54000E-02
      248  0.00000E+00 0.00000E+00 0.00000E+00 0.00000E+00 0.00000E+00 0.00000E+00 0.00000E+00 0.00000E+00 0.00000E+00 1.56390E-03 1.50640E-03 2.54000E-02
      249  0.00000E+00 0.00000E+00 0.00000E+00 0.00000E+00 0.00000E+00 0.00000E+00 0.00000E+00 0.00000E+00 0.00000E+00 9.72100E-20 1.58750E-03 2.54000E-02
      250  0.00000E+00 0.00000E+00 0.00000E+00 0.00000E+00 0.00000E+00 0.00000E+00 0.00000E+00 0.00000E+00 0.00000E+00 0.00000E+00 0.00000E+00 2.54000E-02
      283  0.00000E+00 0.00000E+00 0.00000E+00 0.00000E+00 0.00000E+00 0.00000E+00 0.00000E+00 0.00000E+00 0.00000E+00 3.17500E-03 0.00000E+00 2.54000E-02
      284  0.00000E+00 0.00000E+00 0.00000E+00 0.00000E+00 0.00000E+00 0.00000E+00 0.00000E+00 0.00000E+00 0.00000E+00 3.01180E-03 1.33810E-03 2.54000E-02
      333  0.00000E+00 0.00000E+00 0.00000E+00 0.00000E+00 0.00000E+00 0.00000E+00 0.00000E+00 0.00000E+00 0.00000E+00 1.41330E-03 2.97530E-03 2.54000E-02
      334  0.00000E+00 0.00000E+00 0.00000E+00 0.00000E+00 0.00000E+00 0.00000E+00 0.00000E+00 0.00000E+00 0.00000E+00 2.70270E-03 2.61550E-03 2.54000E-02
      335  0.00000E+00 0.00000E+00 0.00000E+00 0.00000E+00 0.00000E+00 0.00000E+00 0.00000E+00 0.00000E+00 0.00000E+00 1.90050E-03 4.32390E-03 2.54000E-02
      368  0.00000E+00 0.00000E+00 0.00000E+00 0.00000E+00 0.00000E+00 0.00000E+00 0.00000E+00 0.00000E+00 0.00000E+00 1.94400E-19 3.17500E-03 2.54000E-02
      369  0.00000E+00 0.00000E+00 0.00000E+00 0.00000E+00 0.00000E+00 0.00000E+00 0.00000E+00 0.00000E+00 0.00000E+00 2.91600E-19 4.76250E-03 2.54000E-02
      386  0.00000E+00 0.00000E+00 0.00000E+00 0.00000E+00 0.00000E+00 0.00000E+00 0.00000E+00 0.00000E+00 0.00000E+00 4.76250E-03 0.00000E+00 2.54000E-02
      403  0.00000E+00 0.00000E+00 0.00000E+00 0.00000E+00 0.00000E+00 0.00000E+00 0.00000E+00 0.00000E+00 0.00000E+00 6.35000E-03 0.00000E+00 2.54000E-02
      436  0.00000E+00 0.00000E+00 0.00000E+00 0.00000E+00 0.00000E+00 0.00000E+00 0.00000E+00 0.00000E+00 0.00000E+00 2.42980E-03 5.86670E-03 2.54000E-02
      437  0.00000E+00 0.00000E+00 0.00000E+00 0.00000E+00 0.00000E+00 0.00000E+00 0.00000E+00 0.00000E+00 0.00000E+00 3.88800E-19 6.35000E-03 2.54000E-02
      438  0.00000E+00 0.00000E+00 0.00000E+00 0.00000E+00 0.00000E+00 0.00000E+00 0.00000E+00 0.00000E+00 0.00000E+00 7.25710E-03 0.00000E+00 2.54000E-02
      439  0.00000E+00 0.00000E+00 0.00000E+00 0.00000E+00 0.00000E+00 0.00000E+00 0.00000E+00 0.00000E+00 0.00000E+00 8.16430E-03 0.00000E+00 2.54000E-02
      440  0.00000E+00 0.00000E+00 0.00000E+00 0.00000E+00 0.00000E+00 0.00000E+00 0.00000E+00 0.00000E+00 0.00000E+00 9.07140E-03 0.00000E+00 2.54000E-02
      441  0.00000E+00 0.00000E+00 0.00000E+00 0.00000E+00 0.00000E+00 0.00000E+00 0.00000E+00 0.00000E+00 0.00000E+00 9.97860E-03 0.00000E+00 2.54000E-02
      442  0.00000E+00 0.00000E+00 0.00000E+00 0.00000E+00 0.00000E+00 0.00000E+00 0.00000E+00 0.00000E+00 0.00000E+00 1.08857E-02 0.00000E+00 2.54000E-02
      443  0.00000E+00 0.00000E+00 0.00000E+00 0.00000E+00 0.00000E+00 0.00000E+00 0.00000E+00 0.00000E+00 0.00000E+00 1.17929E-02 0.00000E+00 2.54000E-02
      444  0.00000E+00 0.00000E+00 0.00000E+00 0.00000E+00 0.00000E+00 0.00000E+00 0.00000E+00 0.00000E+00 0.00000E+00 1.27000E-02 0.00000E+00 2.54000E-02
      628  0.00000E+00 0.00000E+00 0.00000E+00 0.00000E+00 0.00000E+00 0.00000E+00 0.00000E+00 0.00000E+00 0.00000E+00 8.39690E-03 3.43240E-03 2.54000E-02
      631  0.00000E+00 0.00000E+00 0.00000E+00 0.00000E+00 0.00000E+00 0.00000E+00 0.00000E+00 0.00000E+00 0.00000E+00 7.55350E-03 3.09820E-03 2.54000E-02
      632  0.00000E+00 0.00000E+00 0.00000E+00 0.00000E+00 0.00000E+00 0.00000E+00 0.00000E+00 0.00000E+00 0.00000E+00 6.41810E-03 6.41090E-03 2.54000E-02
      635  0.00000E+00 0.00000E+00 0.00000E+00 0.00000E+00 0.00000E+00 0.00000E+00 0.00000E+00 0.00000E+00 0.00000E+00 5.77540E-03 5.77060E-03 2.54000E-02
      636  0.00000E+00 0.00000E+00 0.00000E+00 0.00000E+00 0.00000E+00 0.00000E+00 0.00000E+00 0.00000E+00 0.00000E+00 3.43920E-03 8.39420E-03 2.54000E-02
      639  0.00000E+00 0.00000E+00 0.00000E+00 0.00000E+00 0.00000E+00 0.00000E+00 0.00000E+00 0.00000E+00 0.00000E+00 3.10270E-03 7.55170E-03 2.54000E-02
      640  0.00000E+00 0.00000E+00 0.00000E+00 0.00000E+00 0.00000E+00 0.00000E+00 0.00000E+00 0.00000E+00 0.00000E+00 5.55500E-19 9.07140E-03 2.54000E-02
      643  0.00000E+00 0.00000E+00 0.00000E+00 0.00000E+00 0.00000E+00 0.00000E+00 0.00000E+00 0.00000E+00 0.00000E+00 4.99900E-19 8.16430E-03 2.54000E-02
      692  0.00000E+00 0.00000E+00 0.00000E+00 0.00000E+00 0.00000E+00 0.00000E+00 0.00000E+00 0.00000E+00 0.00000E+00 9.24030E-03 3.76660E-03 2.54000E-02
      694  0.00000E+00 0.00000E+00 0.00000E+00 0.00000E+00 0.00000E+00 0.00000E+00 0.00000E+00 0.00000E+00 0.00000E+00 7.06070E-03 7.05110E-03 2.54000E-02
      696  0.00000E+00 0.00000E+00 0.00000E+00 0.00000E+00 0.00000E+00 0.00000E+00 0.00000E+00 0.00000E+00 0.00000E+00 3.77570E-03 9.23660E-03 2.54000E-02
      698  0.00000E+00 0.00000E+00 0.00000E+00 0.00000E+00 0.00000E+00 0.00000E+00 0.00000E+00 0.00000E+00 0.00000E+00 6.11000E-19 9.97860E-03 2.54000E-02
      900  0.00000E+00 0.00000E+00 0.00000E+00 0.00000E+00 0.00000E+00 0.00000E+00 0.00000E+00 0.00000E+00 0.00000E+00 1.09271E-02 4.43500E-03 2.54000E-02
      902  0.00000E+00 0.00000E+00 0.00000E+00 0.00000E+00 0.00000E+00 0.00000E+00 0.00000E+00 0.00000E+00 0.00000E+00 1.00837E-02 4.10080E-03 2.54000E-02
      903  0.00000E+00 0.00000E+00 0.00000E+00 0.00000E+00 0.00000E+00 0.00000E+00 0.00000E+00 0.00000E+00 0.00000E+00 8.34610E-03 8.33160E-03 2.54000E-02
      905  0.00000E+00 0.00000E+00 0.00000E+00 0.00000E+00 0.00000E+00 0.00000E+00 0.00000E+00 0.00000E+00 0.00000E+00 7.70340E-03 7.69130E-03 2.54000E-02
      906  0.00000E+00 0.00000E+00 0.00000E+00 0.00000E+00 0.00000E+00 0.00000E+00 0.00000E+00 0.00000E+00 0.00000E+00 4.44870E-03 1.09215E-02 2.54000E-02
      908  0.00000E+00 0.00000E+00 0.00000E+00 0.00000E+00 0.00000E+00 0.00000E+00 0.00000E+00 0.00000E+00 0.00000E+00 4.11220E-03 1.00791E-02 2.54000E-02
      909  0.00000E+00 0.00000E+00 0.00000E+00 0.00000E+00 0.00000E+00 0.00000E+00 0.00000E+00 0.00000E+00 0.00000E+00 7.22100E-19 1.17929E-02 2.54000E-02
      911  0.00000E+00 0.00000E+00 0.00000E+00 0.00000E+00 0.00000E+00 0.00000E+00 0.00000E+00 0.00000E+00 0.00000E+00 6.66600E-19 1.08857E-02 2.54000E-02
     1012  0.00000E+00 0.00000E+00 0.00000E+00 0.00000E+00 0.00000E+00 0.00000E+00 0.00000E+00 0.00000E+00 0.00000E+00 6.71010E-03 2.76400E-03 2.54000E-02
     1013  0.00000E+00 0.00000E+00 0.00000E+00 0.00000E+00 0.00000E+00 0.00000E+00 0.00000E+00 0.00000E+00 0.00000E+00 5.13280E-03 5.13040E-03 2.54000E-02
     1014  0.00000E+00 0.00000E+00 0.00000E+00 0.00000E+00 0.00000E+00 0.00000E+00 0.00000E+00 0.00000E+00 0.00000E+00 2.76620E-03 6.70920E-03 2.54000E-02
     1015  0.00000E+00 0.00000E+00 0.00000E+00 0.00000E+00 0.00000E+00 0.00000E+00 0.00000E+00 0.00000E+00 0.00000E+00 4.44400E-19 7.25710E-03 2.54000E-02
     1060  0.00000E+00 0.00000E+00 0.00000E+00 0.00000E+00 0.00000E+00 0.00000E+00 0.00000E+00 0.00000E+00 0.00000E+00 1.17705E-02 4.76920E-03 2.54000E-02
     1061  0.00000E+00 0.00000E+00 0.00000E+00 0.00000E+00 0.00000E+00 0.00000E+00 0.00000E+00 0.00000E+00 0.00000E+00 8.98870E-03 8.97180E-03 2.54000E-02
     1062  0.00000E+00 0.00000E+00 0.00000E+00 0.00000E+00 0.00000E+00 0.00000E+00 0.00000E+00 0.00000E+00 0.00000E+00 4.78520E-03 1.17640E-02 2.54000E-02
     1063  0.00000E+00 0.00000E+00 0.00000E+00 0.00000E+00 0.00000E+00 0.00000E+00 0.00000E+00 0.00000E+00 0.00000E+00 7.77700E-19 1.27000E-02 2.54000E-02



 n o d a l   p r i n t   o u t   f o r   t i m e  s t e p      10                              ( at time 1.2924466E+00 )

 nodal point  x-disp     y-disp      z-disp      x-vel       y-vel       z-vel      x-accl      y-accl      z-accl      x-coor      y-coor      z-coor
        1  0.00000E+00 0.00000E+00 0.00000E+00 0.00000E+00 0.00000E+00 0.00000E+00 0.00000E+00 0.00000E+00 0.00000E+00 0.00000E+00 0.00000E+00 0.00000E+00
        2  6.71645E-08 0.00000E+00 0.00000E+00 0.00000E+00 0.00000E+00 0.00000E+00 0.00000E+00 0.00000E+00 0.00000E+00 7.93817E-04 0.00000E+00 0.00000E+00
        3  1.95527E-07 0.00000E+00 0.00000E+00 0.00000E+00 0.00000E+00 0.00000E+00 0.00000E+00 0.00000E+00 0.00000E+00 1.58770E-03 0.00000E+00 0.00000E+00
        4  4.75717E-07 0.00000E+00 0.00000E+00 0.00000E+00 0.00000E+00 0.00000E+00 0.00000E+00 0.00000E+00 0.00000E+00 2.38178E-03 0.00000E+00 0.00000E+00
        5  1.29076E-06 0.00000E+00 0.00000E+00 0.00000E+00 0.00000E+00 0.00000E+00 0.00000E+00 0.00000E+00 0.00000E+00 3.17629E-03 0.00000E+00 0.00000E+00
        6  1.19264E-06 7.31108E-07 0.00000E+00 0.00000E+00 0.00000E+00 0.00000E+00 0.00000E+00 0.00000E+00 0.00000E+00 2.93449E-03 1.21573E-03-1.78000E-18
        7  9.08339E-07 1.24352E-06 0.00000E+00 0.00000E+00 0.00000E+00 0.00000E+00 0.00000E+00 0.00000E+00 0.00000E+00 2.24601E-03 2.24634E-03-1.78000E-18
        8  4.75929E-07 1.46240E-06 0.00000E+00 0.00000E+00 0.00000E+00 0.00000E+00 0.00000E+00 0.00000E+00 0.00000E+00 1.21548E-03 2.93476E-03-1.78000E-18
        9  0.00000E+00 1.45447E-06 0.00000E+00 0.00000E+00 0.00000E+00 0.00000E+00 0.00000E+00 0.00000E+00 0.00000E+00 1.94400E-19 3.17645E-03-1.78000E-18
       10  0.00000E+00 4.86589E-07 0.00000E+00 0.00000E+00 0.00000E+00 0.00000E+00 0.00000E+00 0.00000E+00 0.00000E+00 1.45800E-19 2.38179E-03 0.00000E+00
       11  0.00000E+00 1.30642E-07 0.00000E+00 0.00000E+00 0.00000E+00 0.00000E+00 0.00000E+00 0.00000E+00 0.00000E+00 9.72100E-20 1.58763E-03 0.00000E+00
       12  0.00000E+00 2.95623E-08 0.00000E+00 0.00000E+00 0.00000E+00 0.00000E+00 0.00000E+00 0.00000E+00 0.00000E+00 4.86000E-20 7.93780E-04 0.00000E+00
       13  3.34652E-07 2.62289E-07 0.00000E+00 0.00000E+00 0.00000E+00 0.00000E+00 0.00000E+00 0.00000E+00 0.00000E+00 1.35223E-03 1.30856E-03 0.00000E+00
       14  2.39666E-07 1.19297E-07 0.00000E+00 0.00000E+00 0.00000E+00 0.00000E+00 0.00000E+00 0.00000E+00 0.00000E+00 1.50714E-03 6.69698E-04 0.00000E+00
       15  5.87627E-07 4.35505E-07 0.00000E+00 0.00000E+00 0.00000E+00 0.00000E+00 0.00000E+00 0.00000E+00 0.00000E+00 1.76809E-03 1.73674E-03 0.00000E+00
       16  5.31835E-07 1.68028E-07 0.00000E+00 0.00000E+00 0.00000E+00 0.00000E+00 0.00000E+00 0.00000E+00 0.00000E+00 2.19163E-03 9.20302E-04 0.00000E+00
       17  1.53704E-07 2.47508E-07 0.00000E+00 0.00000E+00 0.00000E+00 0.00000E+00 0.00000E+00 0.00000E+00 0.00000E+00 7.07131E-04 1.48855E-03 0.00000E+00
       18  3.19549E-07 5.29272E-07 0.00000E+00 0.00000E+00 0.00000E+00 0.00000E+00 0.00000E+00 0.00000E+00 0.00000E+00 9.51178E-04 2.16383E-03 0.00000E+00
       19  1.03472E-07 1.01008E-07 0.00000E+00 0.00000E+00 0.00000E+00 0.00000E+00 0.00000E+00 0.00000E+00 0.00000E+00 7.82558E-04 7.53890E-04 0.00000E+00
      179  2.39156E-07 2.92928E-07-1.29245E-05 0.00000E+00 0.00000E+00 0.00000E+00 0.00000E+00 0.00000E+00 0.00000E+00 4.49034E-03 4.49039E-03 2.53871E-02
      180  1.86008E-07 2.12176E-07-1.29245E-05 0.00000E+00 0.00000E+00 0.00000E+00 0.00000E+00 0.00000E+00 0.00000E+00 3.53319E-03 3.47091E-03 2.53871E-02
      181  1.85321E-07 1.09334E-07-1.29245E-05 0.00000E+00 0.00000E+00 0.00000E+00 0.00000E+00 0.00000E+00 0.00000E+00 4.37999E-03 1.83931E-03 2.53871E-02
      182  3.02324E-07 1.61661E-07-1.29245E-05 0.00000E+00 0.00000E+00 0.00000E+00 0.00000E+00 0.00000E+00 0.00000E+00 5.86700E-03 2.42996E-03 2.53871E-02
      247  7.03774E-08 0.00000E+00-1.29245E-05 0.00000E+00 0.00000E+00 0.00000E+00 0.00000E+00 0.00000E+00 0.00000E+00 1.58757E-03 0.00000E+00 2.53871E-02
      248  8.89351E-08 9.22250E-08-1.29245E-05 0.00000E+00 0.00000E+00 0.00000E+00 0.00000E+00 0.00000E+00 0.00000E+00 1.56399E-03 1.50649E-03 2.53871E-02
      249  0.00000E+00 9.73706E-08-1.29245E-05 0.00000E+00 0.00000E+00 0.00000E+00 0.00000E+00 0.00000E+00 0.00000E+00 9.72100E-20 1.58760E-03 2.53871E-02
      250  0.00000E+00 0.00000E+00-1.29245E-05 0.00000E+00 0.00000E+00 0.00000E+00 0.00000E+00 0.00000E+00 0.00000E+00 0.00000E+00 0.00000E+00 2.53871E-02
      283  1.45164E-07 0.00000E+00-1.29245E-05 0.00000E+00 0.00000E+00 0.00000E+00 0.00000E+00 0.00000E+00 0.00000E+00 3.17515E-03 0.00000E+00 2.53871E-02
      284  1.31922E-07 4.18624E-08-1.29245E-05 0.00000E+00 0.00000E+00 0.00000E+00 0.00000E+00 0.00000E+00 0.00000E+00 3.01193E-03 1.33814E-03 2.53871E-02
      333  5.30907E-08 1.47562E-07-1.29245E-05 0.00000E+00 0.00000E+00 0.00000E+00 0.00000E+00 0.00000E+00 0.00000E+00 1.41335E-03 2.97545E-03 2.53871E-02
      334  1.30256E-07 1.34748E-07-1.29245E-05 0.00000E+00 0.00000E+00 0.00000E+00 0.00000E+00 0.00000E+00 0.00000E+00 2.70283E-03 2.61563E-03 2.53871E-02
      335  9.43343E-08 2.14971E-07-1.29245E-05 0.00000E+00 0.00000E+00 0.00000E+00 0.00000E+00 0.00000E+00 0.00000E+00 1.90059E-03 4.32411E-03 2.53871E-02
      368  0.00000E+00 1.90977E-07-1.29245E-05 0.00000E+00 0.00000E+00 0.00000E+00 0.00000E+00 0.00000E+00 0.00000E+00 1.94400E-19 3.17519E-03 2.53871E-02
      369  0.00000E+00 3.07772E-07-1.29245E-05 0.00000E+00 0.00000E+00 0.00000E+00 0.00000E+00 0.00000E+00 0.00000E+00 2.91600E-19 4.76281E-03 2.53871E-02
      386  2.31616E-07 0.00000E+00-1.29245E-05 0.00000E+00 0.00000E+00 0.00000E+00 0.00000E+00 0.00000E+00 0.00000E+00 4.76273E-03 0.00000E+00 2.53871E-02
      403  3.29358E-07 0.00000E+00-1.29245E-05 0.00000E+00 0.00000E+00 0.00000E+00 0.00000E+00 0.00000E+00 0.00000E+00 6.35033E-03 0.00000E+00 2.53871E-02
      436  1.26543E-07 3.81759E-07-1.29245E-05 0.00000E+00 0.00000E+00 0.00000E+00 0.00000E+00 0.00000E+00 0.00000E+00 2.42993E-03 5.86708E-03 2.53871E-02
      437  0.00000E+00 4.48589E-07-1.29245E-05 0.00000E+00 0.00000E+00 0.00000E+00 0.00000E+00 0.00000E+00 0.00000E+00 3.88800E-19 6.35045E-03 2.53871E-02
      438  3.42816E-07 0.00000E+00-1.29245E-05 0.00000E+00 0.00000E+00 0.00000E+00 0.00000E+00 0.00000E+00 0.00000E+00 7.25744E-03 0.00000E+00 2.53871E-02
      439  3.77680E-07 0.00000E+00-1.29245E-05 0.00000E+00 0.00000E+00 0.00000E+00 0.00000E+00 0.00000E+00 0.00000E+00 8.16468E-03 0.00000E+00 2.53871E-02
      440  4.13810E-07 0.00000E+00-1.29245E-05 0.00000E+00 0.00000E+00 0.00000E+00 0.00000E+00 0.00000E+00 0.00000E+00 9.07181E-03 0.00000E+00 2.53871E-02
      441  4.49161E-07 0.00000E+00-1.29245E-05 0.00000E+00 0.00000E+00 0.00000E+00 0.00000E+00 0.00000E+00 0.00000E+00 9.97905E-03 0.00000E+00 2.53871E-02
      442  4.83137E-07 0.00000E+00-1.29245E-05 0.00000E+00 0.00000E+00 0.00000E+00 0.00000E+00 0.00000E+00 0.00000E+00 1.08862E-02 0.00000E+00 2.53871E-02
      443  5.16447E-07 0.00000E+00-1.29245E-05 0.00000E+00 0.00000E+00 0.00000E+00 0.00000E+00 0.00000E+00 0.00000E+00 1.17934E-02 0.00000E+00 2.53871E-02
      444  5.53216E-07 0.00000E+00-1.29245E-05 0.00000E+00 0.00000E+00 0.00000E+00 0.00000E+00 0.00000E+00 0.00000E+00 1.27006E-02 0.00000E+00 2.53871E-02
      628  3.92824E-07 2.03436E-07-1.29245E-05 0.00000E+00 0.00000E+00 0.00000E+00 0.00000E+00 0.00000E+00 0.00000E+00 8.39729E-03 3.43260E-03 2.53871E-02
      631  3.57935E-07 1.87157E-07-1.29245E-05 0.00000E+00 0.00000E+00 0.00000E+00 0.00000E+00 0.00000E+00 0.00000E+00 7.55386E-03 3.09839E-03 2.53871E-02
      632  3.14482E-07 3.73481E-07-1.29245E-05 0.00000E+00 0.00000E+00 0.00000E+00 0.00000E+00 0.00000E+00 0.00000E+00 6.41841E-03 6.41127E-03 2.53871E-02
      635  2.86002E-07 3.42691E-07-1.29245E-05 0.00000E+00 0.00000E+00 0.00000E+00 0.00000E+00 0.00000E+00 0.00000E+00 5.77569E-03 5.77094E-03 2.53871E-02
      636  1.70234E-07 4.76657E-07-1.29245E-05 0.00000E+00 0.00000E+00 0.00000E+00 0.00000E+00 0.00000E+00 0.00000E+00 3.43937E-03 8.39468E-03 2.53871E-02
      639  1.53942E-07 4.39211E-07-1.29245E-05 0.00000E+00 0.00000E+00 0.00000E+00 0.00000E+00 0.00000E+00 0.00000E+00 3.10285E-03 7.55214E-03 2.53871E-02
      640  0.00000E+00 5.11652E-07-1.29245E-05 0.00000E+00 0.00000E+00 0.00000E+00 0.00000E+00 0.00000E+00 0.00000E+00 5.55500E-19 9.07191E-03 2.53871E-02
      643  0.00000E+00 4.74567E-07-1.29245E-05 0.00000E+00 0.00000E+00 0.00000E+00 0.00000E+00 0.00000E+00 0.00000E+00 4.99900E-19 8.16477E-03 2.53871E-02
      692  4.27867E-07 2.18735E-07-1.29245E-05 0.00000E+00 0.00000E+00 0.00000E+00 0.00000E+00 0.00000E+00 0.00000E+00 9.24073E-03 3.76682E-03 2.53871E-02
      694  3.43938E-07 4.03927E-07-1.29245E-05 0.00000E+00 0.00000E+00 0.00000E+00 0.00000E+00 0.00000E+00 0.00000E+00 7.06104E-03 7.05150E-03 2.53871E-02
      696  1.87081E-07 5.14342E-07-1.29245E-05 0.00000E+00 0.00000E+00 0.00000E+00 0.00000E+00 0.00000E+00 0.00000E+00 3.77589E-03 9.23711E-03 2.53871E-02
      698  0.00000E+00 5.49932E-07-1.29245E-05 0.00000E+00 0.00000E+00 0.00000E+00 0.00000E+00 0.00000E+00 0.00000E+00 6.11000E-19 9.97915E-03 2.53871E-02
      900  4.97770E-07 2.45835E-07-1.29245E-05 0.00000E+00 0.00000E+00 0.00000E+00 0.00000E+00 0.00000E+00 0.00000E+00 1.09276E-02 4.43525E-03 2.53871E-02
      902  4.62849E-07 2.32772E-07-1.29245E-05 0.00000E+00 0.00000E+00 0.00000E+00 0.00000E+00 0.00000E+00 0.00000E+00 1.00842E-02 4.10103E-03 2.53871E-02
      903  4.05544E-07 4.64558E-07-1.29245E-05 0.00000E+00 0.00000E+00 0.00000E+00 0.00000E+00 0.00000E+00 0.00000E+00 8.34651E-03 8.33206E-03 2.53871E-02
      905  3.74336E-07 4.34001E-07-1.29245E-05 0.00000E+00 0.00000E+00 0.00000E+00 0.00000E+00 0.00000E+00 0.00000E+00 7.70377E-03 7.69173E-03 2.53871E-02
      906  2.20794E-07 5.90927E-07-1.29245E-05 0.00000E+00 0.00000E+00 0.00000E+00 0.00000E+00 0.00000E+00 0.00000E+00 4.44892E-03 1.09221E-02 2.53871E-02
      908  2.03889E-07 5.51424E-07-1.29245E-05 0.00000E+00 0.00000E+00 0.00000E+00 0.00000E+00 0.00000E+00 0.00000E+00 4.11240E-03 1.00797E-02 2.53871E-02
      909  0.00000E+00 6.29132E-07-1.29245E-05 0.00000E+00 0.00000E+00 0.00000E+00 0.00000E+00 0.00000E+00 0.00000E+00 7.22100E-19 1.17935E-02 2.53871E-02
      911  0.00000E+00 5.86876E-07-1.29245E-05 0.00000E+00 0.00000E+00 0.00000E+00 0.00000E+00 0.00000E+00 0.00000E+00 6.66600E-19 1.08863E-02 2.53871E-02
     1012  3.24584E-07 1.72302E-07-1.29245E-05 0.00000E+00 0.00000E+00 0.00000E+00 0.00000E+00 0.00000E+00 0.00000E+00 6.71042E-03 2.76417E-03 2.53871E-02
     1013  2.58623E-07 3.14773E-07-1.29245E-05 0.00000E+00 0.00000E+00 0.00000E+00 0.00000E+00 0.00000E+00 0.00000E+00 5.13306E-03 5.13071E-03 2.53871E-02
     1014  1.38568E-07 4.07492E-07-1.29245E-05 0.00000E+00 0.00000E+00 0.00000E+00 0.00000E+00 0.00000E+00 0.00000E+00 2.76634E-03 6.70961E-03 2.53871E-02
     1015  0.00000E+00 4.48976E-07-1.29245E-05 0.00000E+00 0.00000E+00 0.00000E+00 0.00000E+00 0.00000E+00 0.00000E+00 4.44400E-19 7.25755E-03 2.53871E-02
     1060  5.18083E-07 2.56879E-07-1.29245E-05 0.00000E+00 0.00000E+00 0.00000E+00 0.00000E+00 0.00000E+00 0.00000E+00 1.17710E-02 4.76946E-03 2.53871E-02
     1061  4.09877E-07 4.84469E-07-1.29245E-05 0.00000E+00 0.00000E+00 0.00000E+00 0.00000E+00 0.00000E+00 0.00000E+00 8.98911E-03 8.97228E-03 2.53871E-02
     1062  2.35379E-07 6.62674E-07-1.29245E-05 0.00000E+00 0.00000E+00 0.00000E+00 0.00000E+00 0.00000E+00 0.00000E+00 4.78544E-03 1.17647E-02 2.53871E-02
     1063  0.00000E+00 7.38668E-07-1.29245E-05 0.00000E+00 0.00000E+00 0.00000E+00 0.00000E+00 0.00000E+00 0.00000E+00 7.77700E-19 1.27007E-02 2.53871E-02



 n o d a l   p r i n t   o u t   f o r   t i m e  s t e p      14                              ( at time 2.5483898E+00 )

 nodal point  x-disp     y-disp      z-disp      x-vel       y-vel       z-vel      x-accl      y-accl      z-accl      x-coor      y-coor      z-coor
        1  0.00000E+00 0.00000E+00 0.00000E+00 0.00000E+00 0.00000E+00 0.00000E+00 0.00000E+00 0.00000E+00 0.00000E+00 0.00000E+00 0.00000E+00 0.00000E+00
        2  1.09988E-07 0.00000E+00 0.00000E+00 0.00000E+00 0.00000E+00 0.00000E+00 0.00000E+00 0.00000E+00 0.00000E+00 7.93860E-04 0.00000E+00 0.00000E+00
        3  3.53248E-07 0.00000E+00 0.00000E+00 0.00000E+00 0.00000E+00 0.00000E+00 0.00000E+00 0.00000E+00 0.00000E+00 1.58785E-03 0.00000E+00 0.00000E+00
        4  9.89714E-07 0.00000E+00 0.00000E+00 0.00000E+00 0.00000E+00 0.00000E+00 0.00000E+00 0.00000E+00 0.00000E+00 2.38229E-03 0.00000E+00 0.00000E+00
        5  3.00285E-06 0.00000E+00 0.00000E+00 0.00000E+00 0.00000E+00 0.00000E+00 0.00000E+00 0.00000E+00 0.00000E+00 3.17800E-03 0.00000E+00 0.00000E+00
        6  2.82987E-06 1.68539E-06 0.00000E+00 0.00000E+00 0.00000E+00 0.00000E+00 0.00000E+00 0.00000E+00 0.00000E+00 2.93613E-03 1.21669E-03-1.78000E-18
        7  2.19669E-06 2.88750E-06 0.00000E+00 0.00000E+00 0.00000E+00 0.00000E+00 0.00000E+00 0.00000E+00 0.00000E+00 2.24730E-03 2.24799E-03-1.78000E-18
        8  1.16991E-06 3.38254E-06 0.00000E+00 0.00000E+00 0.00000E+00 0.00000E+00 0.00000E+00 0.00000E+00 0.00000E+00 1.21617E-03 2.93668E-03-1.78000E-18
        9  0.00000E+00 3.31808E-06 0.00000E+00 0.00000E+00 0.00000E+00 0.00000E+00 0.00000E+00 0.00000E+00 0.00000E+00 1.94400E-19 3.17832E-03-1.78000E-18
       10  0.00000E+00 1.07237E-06 0.00000E+00 0.00000E+00 0.00000E+00 0.00000E+00 0.00000E+00 0.00000E+00 0.00000E+00 1.45800E-19 2.38237E-03 0.00000E+00
       11  0.00000E+00 2.62689E-07 0.00000E+00 0.00000E+00 0.00000E+00 0.00000E+00 0.00000E+00 0.00000E+00 0.00000E+00 9.72100E-20 1.58776E-03 0.00000E+00
       12  0.00000E+00 3.89724E-08 0.00000E+00 0.00000E+00 0.00000E+00 0.00000E+00 0.00000E+00 0.00000E+00 0.00000E+00 4.86000E-20 7.93789E-04 0.00000E+00
       13  7.29937E-07 5.93763E-07 0.00000E+00 0.00000E+00 0.00000E+00 0.00000E+00 0.00000E+00 0.00000E+00 0.00000E+00 1.35263E-03 1.30889E-03 0.00000E+00
       14  5.08593E-07 2.71304E-07 0.00000E+00 0.00000E+00 0.00000E+00 0.00000E+00 0.00000E+00 0.00000E+00 0.00000E+00 1.50741E-03 6.69850E-04 0.00000E+00
       15  1.26205E-06 1.03903E-06 0.00000E+00 0.00000E+00 0.00000E+00 0.00000E+00 0.00000E+00 0.00000E+00 0.00000E+00 1.76876E-03 1.73734E-03 0.00000E+00
       16  1.16534E-06 4.25969E-07 0.00000E+00 0.00000E+00 0.00000E+00 0.00000E+00 0.00000E+00 0.00000E+00 0.00000E+00 2.19227E-03 9.20559E-04 0.00000E+00
       17  3.41817E-07 5.61293E-07 0.00000E+00 0.00000E+00 0.00000E+00 0.00000E+00 0.00000E+00 0.00000E+00 0.00000E+00 7.07319E-04 1.48886E-03 0.00000E+00
       18  6.76238E-07 1.22550E-06 0.00000E+00 0.00000E+00 0.00000E+00 0.00000E+00 0.00000E+00 0.00000E+00 0.00000E+00 9.51535E-04 2.16453E-03 0.00000E+00
       19  2.16026E-07 2.27403E-07 0.00000E+00 0.00000E+00 0.00000E+00 0.00000E+00 0.00000E+00 0.00000E+00 0.00000E+00 7.82670E-04 7.54016E-04 0.00000E+00
      179  4.51488E-07 5.89831E-07-2.54839E-05 0.00000E+00 0.00000E+00 0.00000E+00 0.00000E+00 0.00000E+00 0.00000E+00 4.49055E-03 4.49069E-03 2.53745E-02
      180  3.49515E-07 4.29088E-07-2.54839E-05 0.00000E+00 0.00000E+00 0.00000E+00 0.00000E+00 0.00000E+00 0.00000E+00 3.53335E-03 3.47113E-03 2.53745E-02
      181  3.34910E-07 2.26659E-07-2.54839E-05 0.00000E+00 0.00000E+00 0.00000E+00 0.00000E+00 0.00000E+00 0.00000E+00 4.38013E-03 1.83943E-03 2.53745E-02
      182  5.58264E-07 3.31986E-07-2.54839E-05 0.00000E+00 0.00000E+00 0.00000E+00 0.00000E+00 0.00000E+00 0.00000E+00 5.86726E-03 2.43013E-03 2.53745E-02
      247  1.21411E-07 0.00000E+00-2.54839E-05 0.00000E+00 0.00000E+00 0.00000E+00 0.00000E+00 0.00000E+00 0.00000E+00 1.58762E-03 0.00000E+00 2.53745E-02
      248  1.61143E-07 1.85049E-07-2.54839E-05 0.00000E+00 0.00000E+00 0.00000E+00 0.00000E+00 0.00000E+00 0.00000E+00 1.56406E-03 1.50659E-03 2.53745E-02
      249  0.00000E+00 2.02352E-07-2.54839E-05 0.00000E+00 0.00000E+00 0.00000E+00 0.00000E+00 0.00000E+00 0.00000E+00 9.72100E-20 1.58770E-03 2.53745E-02
      250  0.00000E+00 0.00000E+00-2.54839E-05 0.00000E+00 0.00000E+00 0.00000E+00 0.00000E+00 0.00000E+00 0.00000E+00 0.00000E+00 0.00000E+00 2.53745E-02
      283  2.60543E-07 0.00000E+00-2.54839E-05 0.00000E+00 0.00000E+00 0.00000E+00 0.00000E+00 0.00000E+00 0.00000E+00 3.17526E-03 0.00000E+00 2.53745E-02
      284  2.35956E-07 8.94776E-08-2.54839E-05 0.00000E+00 0.00000E+00 0.00000E+00 0.00000E+00 0.00000E+00 0.00000E+00 3.01204E-03 1.33819E-03 2.53745E-02
      333  9.52799E-08 2.86344E-07-2.54839E-05 0.00000E+00 0.00000E+00 0.00000E+00 0.00000E+00 0.00000E+00 0.00000E+00 1.41340E-03 2.97559E-03 2.53745E-02
      334  2.38585E-07 2.69358E-07-2.54839E-05 0.00000E+00 0.00000E+00 0.00000E+00 0.00000E+00 0.00000E+00 0.00000E+00 2.70294E-03 2.61577E-03 2.53745E-02
      335  1.73518E-07 4.18753E-07-2.54839E-05 0.00000E+00 0.00000E+00 0.00000E+00 0.00000E+00 0.00000E+00 0.00000E+00 1.90067E-03 4.32432E-03 2.53745E-02
      368  0.00000E+00 3.86336E-07-2.54839E-05 0.00000E+00 0.00000E+00 0.00000E+00 0.00000E+00 0.00000E+00 0.00000E+00 1.94400E-19 3.17539E-03 2.53745E-02
      369  0.00000E+00 6.18044E-07-2.54839E-05 0.00000E+00 0.00000E+00 0.00000E+00 0.00000E+00 0.00000E+00 0.00000E+00 2.91600E-19 4.76312E-03 2.53745E-02
      386  4.26045E-07 0.00000E+00-2.54839E-05 0.00000E+00 0.00000E+00 0.00000E+00 0.00000E+00 0.00000E+00 0.00000E+00 4.76293E-03 0.00000E+00 2.53745E-02
      403  6.10818E-07 0.00000E+00-2.54839E-05 0.00000E+00 0.00000E+00 0.00000E+00 0.00000E+00 0.00000E+00 0.00000E+00 6.35061E-03 0.00000E+00 2.53745E-02
      436  2.36667E-07 7.54763E-07-2.54839E-05 0.00000E+00 0.00000E+00 0.00000E+00 0.00000E+00 0.00000E+00 0.00000E+00 2.43004E-03 5.86745E-03 2.53745E-02
      437  0.00000E+00 9.08437E-07-2.54839E-05 0.00000E+00 0.00000E+00 0.00000E+00 0.00000E+00 0.00000E+00 0.00000E+00 3.88800E-19 6.35091E-03 2.53745E-02
      438  6.27510E-07 0.00000E+00-2.54839E-05 0.00000E+00 0.00000E+00 0.00000E+00 0.00000E+00 0.00000E+00 0.00000E+00 7.25773E-03 0.00000E+00 2.53745E-02
      439  6.91530E-07 0.00000E+00-2.54839E-05 0.00000E+00 0.00000E+00 0.00000E+00 0.00000E+00 0.00000E+00 0.00000E+00 8.16499E-03 0.00000E+00 2.53745E-02
      440  7.58327E-07 0.00000E+00-2.54839E-05 0.00000E+00 0.00000E+00 0.00000E+00 0.00000E+00 0.00000E+00 0.00000E+00 9.07216E-03 0.00000E+00 2.53745E-02
      441  8.23523E-07 0.00000E+00-2.54839E-05 0.00000E+00 0.00000E+00 0.00000E+00 0.00000E+00 0.00000E+00 0.00000E+00 9.97942E-03 0.00000E+00 2.53745E-02
      442  8.85787E-07 0.00000E+00-2.54839E-05 0.00000E+00 0.00000E+00 0.00000E+00 0.00000E+00 0.00000E+00 0.00000E+00 1.08866E-02 0.00000E+00 2.53745E-02
      443  9.46027E-07 0.00000E+00-2.54839E-05 0.00000E+00 0.00000E+00 0.00000E+00 0.00000E+00 0.00000E+00 0.00000E+00 1.17938E-02 0.00000E+00 2.53745E-02
      444  1.00712E-06 0.00000E+00-2.54839E-05 0.00000E+00 0.00000E+00 0.00000E+00 0.00000E+00 0.00000E+00 0.00000E+00 1.27010E-02 0.00000E+00 2.53745E-02
      628  7.29276E-07 4.18865E-07-2.54839E-05 0.00000E+00 0.00000E+00 0.00000E+00 0.00000E+00 0.00000E+00 0.00000E+00 8.39763E-03 3.43282E-03 2.53745E-02
      631  6.63626E-07 3.86171E-07-2.54839E-05 0.00000E+00 0.00000E+00 0.00000E+00 0.00000E+00 0.00000E+00 0.00000E+00 7.55416E-03 3.09859E-03 2.53745E-02
      632  5.95528E-07 7.44562E-07-2.54839E-05 0.00000E+00 0.00000E+00 0.00000E+00 0.00000E+00 0.00000E+00 0.00000E+00 6.41870E-03 6.41164E-03 2.53745E-02
      635  5.40507E-07 6.86094E-07-2.54839E-05 0.00000E+00 0.00000E+00 0.00000E+00 0.00000E+00 0.00000E+00 0.00000E+00 5.77594E-03 5.77129E-03 2.53745E-02
      636  3.25919E-07 9.38903E-07-2.54839E-05 0.00000E+00 0.00000E+00 0.00000E+00 0.00000E+00 0.00000E+00 0.00000E+00 3.43953E-03 8.39514E-03 2.53745E-02
      639  2.93057E-07 8.68170E-07-2.54839E-05 0.00000E+00 0.00000E+00 0.00000E+00 0.00000E+00 0.00000E+00 0.00000E+00 3.10299E-03 7.55257E-03 2.53745E-02
      640  0.00000E+00 1.00639E-06-2.54839E-05 0.00000E+00 0.00000E+00 0.00000E+00 0.00000E+00 0.00000E+00 0.00000E+00 5.55500E-19 9.07241E-03 2.53745E-02
      643  0.00000E+00 9.40355E-07-2.54839E-05 0.00000E+00 0.00000E+00 0.00000E+00 0.00000E+00 0.00000E+00 0.00000E+00 4.99900E-19 8.16524E-03 2.53745E-02
      692  7.95513E-07 4.49120E-07-2.54839E-05 0.00000E+00 0.00000E+00 0.00000E+00 0.00000E+00 0.00000E+00 0.00000E+00 9.24110E-03 3.76705E-03 2.53745E-02
      694  6.52976E-07 8.02455E-07-2.54839E-05 0.00000E+00 0.00000E+00 0.00000E+00 0.00000E+00 0.00000E+00 0.00000E+00 7.06135E-03 7.05190E-03 2.53745E-02
      696  3.59714E-07 1.01030E-06-2.54839E-05 0.00000E+00 0.00000E+00 0.00000E+00 0.00000E+00 0.00000E+00 0.00000E+00 3.77606E-03 9.23761E-03 2.53745E-02
      698  0.00000E+00 1.07602E-06-2.54839E-05 0.00000E+00 0.00000E+00 0.00000E+00 0.00000E+00 0.00000E+00 0.00000E+00 6.11000E-19 9.97968E-03 2.53745E-02
      900  9.27743E-07 4.99084E-07-2.54839E-05 0.00000E+00 0.00000E+00 0.00000E+00 0.00000E+00 0.00000E+00 0.00000E+00 1.09280E-02 4.43550E-03 2.53745E-02
      902  8.61958E-07 4.76108E-07-2.54839E-05 0.00000E+00 0.00000E+00 0.00000E+00 0.00000E+00 0.00000E+00 0.00000E+00 1.00846E-02 4.10128E-03 2.53745E-02
      903  7.74296E-07 9.18184E-07-2.54839E-05 0.00000E+00 0.00000E+00 0.00000E+00 0.00000E+00 0.00000E+00 0.00000E+00 8.34687E-03 8.33252E-03 2.53745E-02
      905  7.12687E-07 8.59859E-07-2.54839E-05 0.00000E+00 0.00000E+00 0.00000E+00 0.00000E+00 0.00000E+00 0.00000E+00 7.70411E-03 7.69216E-03 2.53745E-02
      906  4.25122E-07 1.15635E-06-2.54839E-05 0.00000E+00 0.00000E+00 0.00000E+00 0.00000E+00 0.00000E+00 0.00000E+00 4.44913E-03 1.09227E-02 2.53745E-02
      908  3.93004E-07 1.08102E-06-2.54839E-05 0.00000E+00 0.00000E+00 0.00000E+00 0.00000E+00 0.00000E+00 0.00000E+00 4.11259E-03 1.00802E-02 2.53745E-02
      909  0.00000E+00 1.22842E-06-2.54839E-05 0.00000E+00 0.00000E+00 0.00000E+00 0.00000E+00 0.00000E+00 0.00000E+00 7.22100E-19 1.17941E-02 2.53745E-02
      911  0.00000E+00 1.14364E-06-2.54839E-05 0.00000E+00 0.00000E+00 0.00000E+00 0.00000E+00 0.00000E+00 0.00000E+00 6.66600E-19 1.08868E-02 2.53745E-02
     1012  6.01031E-07 3.55934E-07-2.54839E-05 0.00000E+00 0.00000E+00 0.00000E+00 0.00000E+00 0.00000E+00 0.00000E+00 6.71070E-03 2.76436E-03 2.53745E-02
     1013  4.87965E-07 6.33239E-07-2.54839E-05 0.00000E+00 0.00000E+00 0.00000E+00 0.00000E+00 0.00000E+00 0.00000E+00 5.13329E-03 5.13103E-03 2.53745E-02
     1014  2.61480E-07 8.08083E-07-2.54839E-05 0.00000E+00 0.00000E+00 0.00000E+00 0.00000E+00 0.00000E+00 0.00000E+00 2.76646E-03 6.71001E-03 2.53745E-02
     1015  0.00000E+00 9.00032E-07-2.54839E-05 0.00000E+00 0.00000E+00 0.00000E+00 0.00000E+00 0.00000E+00 0.00000E+00 4.44400E-19 7.25800E-03 2.53745E-02
     1060  9.52192E-07 5.12700E-07-2.54839E-05 0.00000E+00 0.00000E+00 0.00000E+00 0.00000E+00 0.00000E+00 0.00000E+00 1.17715E-02 4.76971E-03 2.53745E-02
     1061  7.63591E-07 9.46717E-07-2.54839E-05 0.00000E+00 0.00000E+00 0.00000E+00 0.00000E+00 0.00000E+00 0.00000E+00 8.98946E-03 8.97275E-03 2.53745E-02
     1062  4.46933E-07 1.30560E-06-2.54839E-05 0.00000E+00 0.00000E+00 0.00000E+00 0.00000E+00 0.00000E+00 0.00000E+00 4.78565E-03 1.17653E-02 2.53745E-02
     1063  0.00000E+00 1.48667E-06-2.54839E-05 0.00000E+00 0.00000E+00 0.00000E+00 0.00000E+00 0.00000E+00 0.00000E+00 7.77700E-19 1.27015E-02 2.53745E-02



 n o d a l   p r i n t   o u t   f o r   t i m e  s t e p     243                              ( at time 3.4723147E+00 )

 nodal point  x-disp     y-disp      z-disp      x-vel       y-vel       z-vel      x-accl      y-accl      z-accl      x-coor      y-coor      z-coor
        1  0.00000E+00 0.00000E+00 0.00000E+00 0.00000E+00 0.00000E+00 0.00000E+00 0.00000E+00 0.00000E+00 0.00000E+00 0.00000E+00 0.00000E+00 0.00000E+00
        2  2.96910E-06 0.00000E+00 0.00000E+00 0.00000E+00 0.00000E+00 0.00000E+00 0.00000E+00 0.00000E+00 0.00000E+00 7.96719E-04 0.00000E+00 0.00000E+00
        3  7.54370E-06 0.00000E+00 0.00000E+00 0.00000E+00 0.00000E+00 0.00000E+00 0.00000E+00 0.00000E+00 0.00000E+00 1.59504E-03 0.00000E+00 0.00000E+00
        4  1.26329E-05 0.00000E+00 0.00000E+00 0.00000E+00 0.00000E+00 0.00000E+00 0.00000E+00 0.00000E+00 0.00000E+00 2.39393E-03 0.00000E+00 0.00000E+00
        5  1.70763E-05 0.00000E+00 0.00000E+00 0.00000E+00 0.00000E+00 0.00000E+00 0.00000E+00 0.00000E+00 0.00000E+00 3.19208E-03 0.00000E+00 0.00000E+00
        6  8.36071E-06 2.91799E-06 0.00000E+00 0.00000E+00 0.00000E+00 0.00000E+00 0.00000E+00 0.00000E+00 0.00000E+00 2.94166E-03 1.21792E-03-1.78000E-18
        7  4.80102E-06 8.19523E-06 0.00000E+00 0.00000E+00 0.00000E+00 0.00000E+00 0.00000E+00 0.00000E+00 0.00000E+00 2.24990E-03 2.25330E-03-1.78000E-18
        8  2.23487E-06 1.09676E-05 0.00000E+00 0.00000E+00 0.00000E+00 0.00000E+00 0.00000E+00 0.00000E+00 0.00000E+00 1.21723E-03 2.94427E-03-1.78000E-18
        9  0.00000E+00 1.16273E-05 0.00000E+00 0.00000E+00 0.00000E+00 0.00000E+00 0.00000E+00 0.00000E+00 0.00000E+00 1.94400E-19 3.18663E-03-1.78000E-18
       10  0.00000E+00 6.57449E-06 0.00000E+00 0.00000E+00 0.00000E+00 0.00000E+00 0.00000E+00 0.00000E+00 0.00000E+00 1.45800E-19 2.38787E-03 0.00000E+00
       11  0.00000E+00 3.38044E-06 0.00000E+00 0.00000E+00 0.00000E+00 0.00000E+00 0.00000E+00 0.00000E+00 0.00000E+00 9.72100E-20 1.59088E-03 0.00000E+00
       12  0.00000E+00 1.51300E-06 0.00000E+00 0.00000E+00 0.00000E+00 0.00000E+00 0.00000E+00 0.00000E+00 0.00000E+00 4.86000E-20 7.95263E-04 0.00000E+00
       13  7.87334E-07-1.18366E-06 0.00000E+00 0.00000E+00 0.00000E+00 0.00000E+00 0.00000E+00 0.00000E+00 0.00000E+00 1.35269E-03 1.30712E-03 0.00000E+00
       14 -3.59328E-07-2.52046E-06 0.00000E+00 0.00000E+00 0.00000E+00 0.00000E+00 0.00000E+00 0.00000E+00 0.00000E+00 1.50654E-03 6.67058E-04 0.00000E+00
       15  2.61685E-06 1.89141E-06 0.00000E+00 0.00000E+00 0.00000E+00 0.00000E+00 0.00000E+00 0.00000E+00 0.00000E+00 1.77012E-03 1.73819E-03 0.00000E+00
       16  2.66211E-06-9.47177E-07 0.00000E+00 0.00000E+00 0.00000E+00 0.00000E+00 0.00000E+00 0.00000E+00 0.00000E+00 2.19376E-03 9.19186E-04 0.00000E+00
       17  6.26932E-07 3.04054E-06 0.00000E+00 0.00000E+00 0.00000E+00 0.00000E+00 0.00000E+00 0.00000E+00 0.00000E+00 7.07604E-04 1.49134E-03 0.00000E+00
       18  1.61611E-06 5.93722E-06 0.00000E+00 0.00000E+00 0.00000E+00 0.00000E+00 0.00000E+00 0.00000E+00 0.00000E+00 9.52475E-04 2.16924E-03 0.00000E+00
       19 -4.43491E-07 1.11561E-06 0.00000E+00 0.00000E+00 0.00000E+00 0.00000E+00 0.00000E+00 0.00000E+00 0.00000E+00 7.82011E-04 7.54905E-04 0.00000E+00
      179  4.79763E-07 1.17820E-06-3.47231E-05 0.00000E+00 0.00000E+00 0.00000E+00 0.00000E+00 0.00000E+00 0.00000E+00 4.49058E-03 4.49128E-03 2.53653E-02
      180  5.48589E-07 1.04310E-06-3.47231E-05 0.00000E+00 0.00000E+00 0.00000E+00 0.00000E+00 0.00000E+00 0.00000E+00 3.53355E-03 3.47174E-03 2.53653E-02
      181  2.62299E-07 4.71343E-07-3.47231E-05 0.00000E+00 0.00000E+00 0.00000E+00 0.00000E+00 0.00000E+00 0.00000E+00 4.38006E-03 1.83967E-03 2.53653E-02
      182  4.02076E-07 8.43701E-07-3.47231E-05 0.00000E+00 0.00000E+00 0.00000E+00 0.00000E+00 0.00000E+00 0.00000E+00 5.86710E-03 2.43064E-03 2.53653E-02
      247 -1.27377E-07 0.00000E+00-3.47231E-05 0.00000E+00 0.00000E+00 0.00000E+00 0.00000E+00 0.00000E+00 0.00000E+00 1.58737E-03 0.00000E+00 2.53653E-02
      248  3.25551E-07 1.41757E-07-3.47231E-05 0.00000E+00 0.00000E+00 0.00000E+00 0.00000E+00 0.00000E+00 0.00000E+00 1.56423E-03 1.50654E-03 2.53653E-02
      249  0.00000E+00 1.56429E-07-3.47231E-05 0.00000E+00 0.00000E+00 0.00000E+00 0.00000E+00 0.00000E+00 0.00000E+00 9.72100E-20 1.58766E-03 2.53653E-02
      250  0.00000E+00 0.00000E+00-3.47231E-05 0.00000E+00 0.00000E+00 0.00000E+00 0.00000E+00 0.00000E+00 0.00000E+00 0.00000E+00 0.00000E+00 2.53653E-02
      283 -4.69521E-07 0.00000E+00-3.47231E-05 0.00000E+00 0.00000E+00 0.00000E+00 0.00000E+00 0.00000E+00 0.00000E+00 3.17453E-03 0.00000E+00 2.53653E-02
      284  3.28861E-07-1.39924E-07-3.47231E-05 0.00000E+00 0.00000E+00 0.00000E+00 0.00000E+00 0.00000E+00 0.00000E+00 3.01213E-03 1.33796E-03 2.53653E-02
      333  2.80078E-07 9.03491E-07-3.47231E-05 0.00000E+00 0.00000E+00 0.00000E+00 0.00000E+00 0.00000E+00 0.00000E+00 1.41358E-03 2.97620E-03 2.53653E-02
      334  4.68129E-07 1.07825E-06-3.47231E-05 0.00000E+00 0.00000E+00 0.00000E+00 0.00000E+00 0.00000E+00 0.00000E+00 2.70317E-03 2.61658E-03 2.53653E-02
      335  4.41869E-07 1.29761E-06-3.47231E-05 0.00000E+00 0.00000E+00 0.00000E+00 0.00000E+00 0.00000E+00 0.00000E+00 1.90094E-03 4.32520E-03 2.53653E-02
      368  0.00000E+00 6.93249E-07-3.47231E-05 0.00000E+00 0.00000E+00 0.00000E+00 0.00000E+00 0.00000E+00 0.00000E+00 1.94400E-19 3.17569E-03 2.53653E-02
      369  0.00000E+00 9.04451E-07-3.47231E-05 0.00000E+00 0.00000E+00 0.00000E+00 0.00000E+00 0.00000E+00 0.00000E+00 2.91600E-19 4.76340E-03 2.53653E-02
      386 -5.87201E-07 0.00000E+00-3.47231E-05 0.00000E+00 0.00000E+00 0.00000E+00 0.00000E+00 0.00000E+00 0.00000E+00 4.76191E-03 0.00000E+00 2.53653E-02
      403 -5.06275E-07 0.00000E+00-3.47231E-05 0.00000E+00 0.00000E+00 0.00000E+00 0.00000E+00 0.00000E+00 0.00000E+00 6.34949E-03 0.00000E+00 2.53653E-02
      436  5.48408E-07 1.84270E-06-3.47231E-05 0.00000E+00 0.00000E+00 0.00000E+00 0.00000E+00 0.00000E+00 0.00000E+00 2.43035E-03 5.86854E-03 2.53653E-02
      437  0.00000E+00 1.70908E-06-3.47231E-05 0.00000E+00 0.00000E+00 0.00000E+00 0.00000E+00 0.00000E+00 0.00000E+00 3.88800E-19 6.35171E-03 2.53653E-02
      438 -3.53089E-07 0.00000E+00-3.47231E-05 0.00000E+00 0.00000E+00 0.00000E+00 0.00000E+00 0.00000E+00 0.00000E+00 7.25675E-03 0.00000E+00 2.53653E-02
      439 -2.62339E-07 0.00000E+00-3.47231E-05 0.00000E+00 0.00000E+00 0.00000E+00 0.00000E+00 0.00000E+00 0.00000E+00 8.16404E-03 0.00000E+00 2.53653E-02
      440 -1.96153E-07 0.00000E+00-3.47231E-05 0.00000E+00 0.00000E+00 0.00000E+00 0.00000E+00 0.00000E+00 0.00000E+00 9.07120E-03 0.00000E+00 2.53653E-02
      441 -1.43790E-07 0.00000E+00-3.47231E-05 0.00000E+00 0.00000E+00 0.00000E+00 0.00000E+00 0.00000E+00 0.00000E+00 9.97846E-03 0.00000E+00 2.53653E-02
      442 -1.40382E-07 0.00000E+00-3.47231E-05 0.00000E+00 0.00000E+00 0.00000E+00 0.00000E+00 0.00000E+00 0.00000E+00 1.08856E-02 0.00000E+00 2.53653E-02
      443 -1.49379E-07 0.00000E+00-3.47231E-05 0.00000E+00 0.00000E+00 0.00000E+00 0.00000E+00 0.00000E+00 0.00000E+00 1.17928E-02 0.00000E+00 2.53653E-02
      444 -3.67121E-07 0.00000E+00-3.47231E-05 0.00000E+00 0.00000E+00 0.00000E+00 0.00000E+00 0.00000E+00 0.00000E+00 1.26996E-02 0.00000E+00 2.53653E-02
      628  4.16716E-07 9.83636E-07-3.47231E-05 0.00000E+00 0.00000E+00 0.00000E+00 0.00000E+00 0.00000E+00 0.00000E+00 8.39732E-03 3.43338E-03 2.53653E-02
      631  3.66534E-07 9.34964E-07-3.47231E-05 0.00000E+00 0.00000E+00 0.00000E+00 0.00000E+00 0.00000E+00 0.00000E+00 7.55387E-03 3.09913E-03 2.53653E-02
      632  5.73446E-07 1.22584E-06-3.47231E-05 0.00000E+00 0.00000E+00 0.00000E+00 0.00000E+00 0.00000E+00 0.00000E+00 6.41867E-03 6.41213E-03 2.53653E-02
      635  5.04644E-07 1.22444E-06-3.47231E-05 0.00000E+00 0.00000E+00 0.00000E+00 0.00000E+00 0.00000E+00 0.00000E+00 5.77590E-03 5.77182E-03 2.53653E-02
      636  4.45495E-07 1.50235E-06-3.47231E-05 0.00000E+00 0.00000E+00 0.00000E+00 0.00000E+00 0.00000E+00 0.00000E+00 3.43965E-03 8.39570E-03 2.53653E-02
      639  4.47647E-07 1.61365E-06-3.47231E-05 0.00000E+00 0.00000E+00 0.00000E+00 0.00000E+00 0.00000E+00 0.00000E+00 3.10315E-03 7.55331E-03 2.53653E-02
      640  0.00000E+00 1.95440E-06-3.47231E-05 0.00000E+00 0.00000E+00 0.00000E+00 0.00000E+00 0.00000E+00 0.00000E+00 5.55500E-19 9.07335E-03 2.53653E-02
      643  0.00000E+00 2.01229E-06-3.47231E-05 0.00000E+00 0.00000E+00 0.00000E+00 0.00000E+00 0.00000E+00 0.00000E+00 4.99900E-19 8.16631E-03 2.53653E-02
      692  4.80303E-07 1.01004E-06-3.47231E-05 0.00000E+00 0.00000E+00 0.00000E+00 0.00000E+00 0.00000E+00 0.00000E+00 9.24078E-03 3.76761E-03 2.53653E-02
      694  6.45319E-07 1.22048E-06-3.47231E-05 0.00000E+00 0.00000E+00 0.00000E+00 0.00000E+00 0.00000E+00 0.00000E+00 7.06135E-03 7.05232E-03 2.53653E-02
      696  4.86195E-07 1.44225E-06-3.47231E-05 0.00000E+00 0.00000E+00 0.00000E+00 0.00000E+00 0.00000E+00 0.00000E+00 3.77619E-03 9.23804E-03 2.53653E-02
      698  0.00000E+00 1.81835E-06-3.47231E-05 0.00000E+00 0.00000E+00 0.00000E+00 0.00000E+00 0.00000E+00 0.00000E+00 6.11000E-19 9.98042E-03 2.53653E-02
      900  5.67337E-07 9.07194E-07-3.47231E-05 0.00000E+00 0.00000E+00 0.00000E+00 0.00000E+00 0.00000E+00 0.00000E+00 1.09277E-02 4.43591E-03 2.53653E-02
      902  5.65488E-07 1.00735E-06-3.47231E-05 0.00000E+00 0.00000E+00 0.00000E+00 0.00000E+00 0.00000E+00 0.00000E+00 1.00843E-02 4.10181E-03 2.53653E-02
      903  9.69941E-07 1.37421E-06-3.47231E-05 0.00000E+00 0.00000E+00 0.00000E+00 0.00000E+00 0.00000E+00 0.00000E+00 8.34707E-03 8.33297E-03 2.53653E-02
      905  7.21858E-07 1.22156E-06-3.47231E-05 0.00000E+00 0.00000E+00 0.00000E+00 0.00000E+00 0.00000E+00 0.00000E+00 7.70412E-03 7.69252E-03 2.53653E-02
      906  3.54722E-07 1.16732E-06-3.47231E-05 0.00000E+00 0.00000E+00 0.00000E+00 0.00000E+00 0.00000E+00 0.00000E+00 4.44905E-03 1.09227E-02 2.53653E-02
      908  5.07316E-07 1.40387E-06-3.47231E-05 0.00000E+00 0.00000E+00 0.00000E+00 0.00000E+00 0.00000E+00 0.00000E+00 4.11271E-03 1.00805E-02 2.53653E-02
      909  0.00000E+00 2.19074E-06-3.47231E-05 0.00000E+00 0.00000E+00 0.00000E+00 0.00000E+00 0.00000E+00 0.00000E+00 7.22100E-19 1.17951E-02 2.53653E-02
      911  0.00000E+00 1.78589E-06-3.47231E-05 0.00000E+00 0.00000E+00 0.00000E+00 0.00000E+00 0.00000E+00 0.00000E+00 6.66600E-19 1.08875E-02 2.53653E-02
     1012  3.30638E-07 8.71083E-07-3.47231E-05 0.00000E+00 0.00000E+00 0.00000E+00 0.00000E+00 0.00000E+00 0.00000E+00 6.71043E-03 2.76487E-03 2.53653E-02
     1013  4.87890E-07 1.24317E-06-3.47231E-05 0.00000E+00 0.00000E+00 0.00000E+00 0.00000E+00 0.00000E+00 0.00000E+00 5.13329E-03 5.13164E-03 2.53653E-02
     1014  4.39852E-07 1.70904E-06-3.47231E-05 0.00000E+00 0.00000E+00 0.00000E+00 0.00000E+00 0.00000E+00 0.00000E+00 2.76664E-03 6.71091E-03 2.53653E-02
     1015  0.00000E+00 2.02778E-06-3.47231E-05 0.00000E+00 0.00000E+00 0.00000E+00 0.00000E+00 0.00000E+00 0.00000E+00 4.44400E-19 7.25913E-03 2.53653E-02
     1060  3.13959E-07 7.06752E-07-3.47231E-05 0.00000E+00 0.00000E+00 0.00000E+00 0.00000E+00 0.00000E+00 0.00000E+00 1.17708E-02 4.76991E-03 2.53653E-02
     1061  5.23124E-07 1.17104E-06-3.47231E-05 0.00000E+00 0.00000E+00 0.00000E+00 0.00000E+00 0.00000E+00 0.00000E+00 8.98922E-03 8.97297E-03 2.53653E-02
     1062  3.30052E-07 1.67262E-06-3.47231E-05 0.00000E+00 0.00000E+00 0.00000E+00 0.00000E+00 0.00000E+00 0.00000E+00 4.78553E-03 1.17657E-02 2.53653E-02
     1063  0.00000E+00 2.91767E-06-3.47231E-05 0.00000E+00 0.00000E+00 0.00000E+00 0.00000E+00 0.00000E+00 0.00000E+00 7.77700E-19 1.27029E-02 2.53653E-02



 n o d a l   p r i n t   o u t   f o r   t i m e  s t e p     386                              ( at time 4.6692737E+00 )

 nodal point  x-disp     y-disp      z-disp      x-vel       y-vel       z-vel      x-accl      y-accl      z-accl      x-coor      y-coor      z-coor
        1  0.00000E+00 0.00000E+00 0.00000E+00 0.00000E+00 0.00000E+00 0.00000E+00 0.00000E+00 0.00000E+00 0.00000E+00 0.00000E+00 0.00000E+00 0.00000E+00
        2  2.54345E-06 0.00000E+00 0.00000E+00 0.00000E+00 0.00000E+00 0.00000E+00 0.00000E+00 0.00000E+00 0.00000E+00 7.96293E-04 0.00000E+00 0.00000E+00
        3  6.99961E-06 0.00000E+00 0.00000E+00 0.00000E+00 0.00000E+00 0.00000E+00 0.00000E+00 0.00000E+00 0.00000E+00 1.59450E-03 0.00000E+00 0.00000E+00
        4  1.27478E-05 0.00000E+00 0.00000E+00 0.00000E+00 0.00000E+00 0.00000E+00 0.00000E+00 0.00000E+00 0.00000E+00 2.39405E-03 0.00000E+00 0.00000E+00
        5  1.97768E-05 0.00000E+00 0.00000E+00 0.00000E+00 0.00000E+00 0.00000E+00 0.00000E+00 0.00000E+00 0.00000E+00 3.19478E-03 0.00000E+00 0.00000E+00
        6  2.00313E-05 9.06487E-06 0.00000E+00 0.00000E+00 0.00000E+00 0.00000E+00 0.00000E+00 0.00000E+00 0.00000E+00 2.95333E-03 1.22406E-03-1.78000E-18
        7  1.50520E-05 1.68418E-05 0.00000E+00 0.00000E+00 0.00000E+00 0.00000E+00 0.00000E+00 0.00000E+00 0.00000E+00 2.26015E-03 2.26194E-03-1.78000E-18
        8  7.97002E-06 1.93910E-05 0.00000E+00 0.00000E+00 0.00000E+00 0.00000E+00 0.00000E+00 0.00000E+00 0.00000E+00 1.22297E-03 2.95269E-03-1.78000E-18
        9  0.00000E+00 1.94396E-05 0.00000E+00 0.00000E+00 0.00000E+00 0.00000E+00 0.00000E+00 0.00000E+00 0.00000E+00 1.94400E-19 3.19444E-03-1.78000E-18
       10  0.00000E+00 1.07175E-05 0.00000E+00 0.00000E+00 0.00000E+00 0.00000E+00 0.00000E+00 0.00000E+00 0.00000E+00 1.45800E-19 2.39202E-03 0.00000E+00
       11  0.00000E+00 4.55727E-06 0.00000E+00 0.00000E+00 0.00000E+00 0.00000E+00 0.00000E+00 0.00000E+00 0.00000E+00 9.72100E-20 1.59206E-03 0.00000E+00
       12  0.00000E+00 1.11875E-06 0.00000E+00 0.00000E+00 0.00000E+00 0.00000E+00 0.00000E+00 0.00000E+00 0.00000E+00 4.86000E-20 7.94869E-04 0.00000E+00
       13  7.49975E-06 6.53236E-06 0.00000E+00 0.00000E+00 0.00000E+00 0.00000E+00 0.00000E+00 0.00000E+00 0.00000E+00 1.35940E-03 1.31483E-03 0.00000E+00
       14  6.80978E-06 2.99819E-06 0.00000E+00 0.00000E+00 0.00000E+00 0.00000E+00 0.00000E+00 0.00000E+00 0.00000E+00 1.51371E-03 6.72577E-04 0.00000E+00
       15  1.14886E-05 1.01291E-05 0.00000E+00 0.00000E+00 0.00000E+00 0.00000E+00 0.00000E+00 0.00000E+00 0.00000E+00 1.77899E-03 1.74643E-03 0.00000E+00
       16  1.26909E-05 4.72610E-06 0.00000E+00 0.00000E+00 0.00000E+00 0.00000E+00 0.00000E+00 0.00000E+00 0.00000E+00 2.20379E-03 9.24860E-04 0.00000E+00
       17  3.81393E-06 7.09273E-06 0.00000E+00 0.00000E+00 0.00000E+00 0.00000E+00 0.00000E+00 0.00000E+00 0.00000E+00 7.10791E-04 1.49539E-03 0.00000E+00
       18  6.22337E-06 1.19941E-05 0.00000E+00 0.00000E+00 0.00000E+00 0.00000E+00 0.00000E+00 0.00000E+00 0.00000E+00 9.57082E-04 2.17529E-03 0.00000E+00
       19  2.89752E-06 2.96835E-06 0.00000E+00 0.00000E+00 0.00000E+00 0.00000E+00 0.00000E+00 0.00000E+00 0.00000E+00 7.85352E-04 7.56757E-04 0.00000E+00
      179  5.06907E-07 1.39625E-06-4.66927E-05 0.00000E+00 0.00000E+00 0.00000E+00 0.00000E+00 0.00000E+00 0.00000E+00 4.49061E-03 4.49150E-03 2.53533E-02
      180  2.50111E-07 1.20507E-06-4.66927E-05 0.00000E+00 0.00000E+00 0.00000E+00 0.00000E+00 0.00000E+00 0.00000E+00 3.53325E-03 3.47191E-03 2.53533E-02
      181 -9.78005E-08 1.25777E-06-4.66927E-05 0.00000E+00 0.00000E+00 0.00000E+00 0.00000E+00 0.00000E+00 0.00000E+00 4.37970E-03 1.84046E-03 2.53533E-02
      182  1.41067E-07 1.28625E-06-4.66927E-05 0.00000E+00 0.00000E+00 0.00000E+00 0.00000E+00 0.00000E+00 0.00000E+00 5.86684E-03 2.43109E-03 2.53533E-02
      247  5.18771E-07 0.00000E+00-4.66927E-05 0.00000E+00 0.00000E+00 0.00000E+00 0.00000E+00 0.00000E+00 0.00000E+00 1.58802E-03 0.00000E+00 2.53533E-02
      248 -1.50710E-07 1.14936E-06-4.66927E-05 0.00000E+00 0.00000E+00 0.00000E+00 0.00000E+00 0.00000E+00 0.00000E+00 1.56375E-03 1.50755E-03 2.53533E-02
      249  0.00000E+00 1.30477E-06-4.66927E-05 0.00000E+00 0.00000E+00 0.00000E+00 0.00000E+00 0.00000E+00 0.00000E+00 9.72100E-20 1.58880E-03 2.53533E-02
      250  0.00000E+00 0.00000E+00-4.66927E-05 0.00000E+00 0.00000E+00 0.00000E+00 0.00000E+00 0.00000E+00 0.00000E+00 0.00000E+00 0.00000E+00 2.53533E-02
      283  6.31378E-07 0.00000E+00-4.66927E-05 0.00000E+00 0.00000E+00 0.00000E+00 0.00000E+00 0.00000E+00 0.00000E+00 3.17563E-03 0.00000E+00 2.53533E-02
      284 -1.03491E-07 8.71014E-07-4.66927E-05 0.00000E+00 0.00000E+00 0.00000E+00 0.00000E+00 0.00000E+00 0.00000E+00 3.01170E-03 1.33897E-03 2.53533E-02
      333  1.16863E-07 8.82279E-07-4.66927E-05 0.00000E+00 0.00000E+00 0.00000E+00 0.00000E+00 0.00000E+00 0.00000E+00 1.41342E-03 2.97618E-03 2.53533E-02
      334  2.15645E-07 9.37523E-07-4.66927E-05 0.00000E+00 0.00000E+00 0.00000E+00 0.00000E+00 0.00000E+00 0.00000E+00 2.70292E-03 2.61644E-03 2.53533E-02
      335  1.18874E-07 9.68715E-07-4.66927E-05 0.00000E+00 0.00000E+00 0.00000E+00 0.00000E+00 0.00000E+00 0.00000E+00 1.90062E-03 4.32487E-03 2.53533E-02
      368  0.00000E+00 1.33240E-06-4.66927E-05 0.00000E+00 0.00000E+00 0.00000E+00 0.00000E+00 0.00000E+00 0.00000E+00 1.94400E-19 3.17633E-03 2.53533E-02
      369  0.00000E+00 2.01581E-06-4.66927E-05 0.00000E+00 0.00000E+00 0.00000E+00 0.00000E+00 0.00000E+00 0.00000E+00 2.91600E-19 4.76452E-03 2.53533E-02
      386  7.03681E-07 0.00000E+00-4.66927E-05 0.00000E+00 0.00000E+00 0.00000E+00 0.00000E+00 0.00000E+00 0.00000E+00 4.76320E-03 0.00000E+00 2.53533E-02
      403  6.44249E-07 0.00000E+00-4.66927E-05 0.00000E+00 0.00000E+00 0.00000E+00 0.00000E+00 0.00000E+00 0.00000E+00 6.35064E-03 0.00000E+00 2.53533E-02
      436  2.62069E-07 1.26545E-06-4.66927E-05 0.00000E+00 0.00000E+00 0.00000E+00 0.00000E+00 0.00000E+00 0.00000E+00 2.43006E-03 5.86797E-03 2.53533E-02
      437  0.00000E+00 2.63060E-06-4.66927E-05 0.00000E+00 0.00000E+00 0.00000E+00 0.00000E+00 0.00000E+00 0.00000E+00 3.88800E-19 6.35263E-03 2.53533E-02
      438  2.98696E-07 0.00000E+00-4.66927E-05 0.00000E+00 0.00000E+00 0.00000E+00 0.00000E+00 0.00000E+00 0.00000E+00 7.25740E-03 0.00000E+00 2.53533E-02
      439  2.12679E-07 0.00000E+00-4.66927E-05 0.00000E+00 0.00000E+00 0.00000E+00 0.00000E+00 0.00000E+00 0.00000E+00 8.16451E-03 0.00000E+00 2.53533E-02
      440  1.90122E-07 0.00000E+00-4.66927E-05 0.00000E+00 0.00000E+00 0.00000E+00 0.00000E+00 0.00000E+00 0.00000E+00 9.07159E-03 0.00000E+00 2.53533E-02
      441  1.88182E-07 0.00000E+00-4.66927E-05 0.00000E+00 0.00000E+00 0.00000E+00 0.00000E+00 0.00000E+00 0.00000E+00 9.97879E-03 0.00000E+00 2.53533E-02
      442  1.81760E-07 0.00000E+00-4.66927E-05 0.00000E+00 0.00000E+00 0.00000E+00 0.00000E+00 0.00000E+00 0.00000E+00 1.08859E-02 0.00000E+00 2.53533E-02
      443  1.70695E-07 0.00000E+00-4.66927E-05 0.00000E+00 0.00000E+00 0.00000E+00 0.00000E+00 0.00000E+00 0.00000E+00 1.17931E-02 0.00000E+00 2.53533E-02
      444 -1.92343E-08 0.00000E+00-4.66927E-05 0.00000E+00 0.00000E+00 0.00000E+00 0.00000E+00 0.00000E+00 0.00000E+00 1.27000E-02 0.00000E+00 2.53533E-02
      628  4.54407E-07 1.47294E-06-4.66927E-05 0.00000E+00 0.00000E+00 0.00000E+00 0.00000E+00 0.00000E+00 0.00000E+00 8.39735E-03 3.43387E-03 2.53533E-02
      631  3.81955E-07 1.43897E-06-4.66927E-05 0.00000E+00 0.00000E+00 0.00000E+00 0.00000E+00 0.00000E+00 0.00000E+00 7.55388E-03 3.09964E-03 2.53533E-02
      632  6.11626E-07 1.31323E-06-4.66927E-05 0.00000E+00 0.00000E+00 0.00000E+00 0.00000E+00 0.00000E+00 0.00000E+00 6.41871E-03 6.41221E-03 2.53533E-02
      635  5.27143E-07 1.32477E-06-4.66927E-05 0.00000E+00 0.00000E+00 0.00000E+00 0.00000E+00 0.00000E+00 0.00000E+00 5.77593E-03 5.77192E-03 2.53533E-02
      636  4.48134E-07 1.51029E-06-4.66927E-05 0.00000E+00 0.00000E+00 0.00000E+00 0.00000E+00 0.00000E+00 0.00000E+00 3.43965E-03 8.39571E-03 2.53533E-02
      639  3.90459E-07 1.50577E-06-4.66927E-05 0.00000E+00 0.00000E+00 0.00000E+00 0.00000E+00 0.00000E+00 0.00000E+00 3.10309E-03 7.55321E-03 2.53533E-02
      640  0.00000E+00 2.03514E-06-4.66927E-05 0.00000E+00 0.00000E+00 0.00000E+00 0.00000E+00 0.00000E+00 0.00000E+00 5.55500E-19 9.07344E-03 2.53533E-02
      643  0.00000E+00 2.18740E-06-4.66927E-05 0.00000E+00 0.00000E+00 0.00000E+00 0.00000E+00 0.00000E+00 0.00000E+00 4.99900E-19 8.16649E-03 2.53533E-02
      692  5.34161E-07 1.50714E-06-4.66927E-05 0.00000E+00 0.00000E+00 0.00000E+00 0.00000E+00 0.00000E+00 0.00000E+00 9.24083E-03 3.76811E-03 2.53533E-02
      694  6.94246E-07 1.30739E-06-4.66927E-05 0.00000E+00 0.00000E+00 0.00000E+00 0.00000E+00 0.00000E+00 0.00000E+00 7.06139E-03 7.05241E-03 2.53533E-02
      696  4.97546E-07 1.48876E-06-4.66927E-05 0.00000E+00 0.00000E+00 0.00000E+00 0.00000E+00 0.00000E+00 0.00000E+00 3.77620E-03 9.23809E-03 2.53533E-02
      698  0.00000E+00 1.92941E-06-4.66927E-05 0.00000E+00 0.00000E+00 0.00000E+00 0.00000E+00 0.00000E+00 0.00000E+00 6.11000E-19 9.98053E-03 2.53533E-02
      900  6.47636E-07 1.46520E-06-4.66927E-05 0.00000E+00 0.00000E+00 0.00000E+00 0.00000E+00 0.00000E+00 0.00000E+00 1.09277E-02 4.43647E-03 2.53533E-02
      902  6.19681E-07 1.52172E-06-4.66927E-05 0.00000E+00 0.00000E+00 0.00000E+00 0.00000E+00 0.00000E+00 0.00000E+00 1.00843E-02 4.10232E-03 2.53533E-02
      903  1.00155E-06 1.41502E-06-4.66927E-05 0.00000E+00 0.00000E+00 0.00000E+00 0.00000E+00 0.00000E+00 0.00000E+00 8.34710E-03 8.33302E-03 2.53533E-02
      905  7.92129E-07 1.31786E-06-4.66927E-05 0.00000E+00 0.00000E+00 0.00000E+00 0.00000E+00 0.00000E+00 0.00000E+00 7.70419E-03 7.69262E-03 2.53533E-02
      906  3.84741E-07 1.31899E-06-4.66927E-05 0.00000E+00 0.00000E+00 0.00000E+00 0.00000E+00 0.00000E+00 0.00000E+00 4.44908E-03 1.09228E-02 2.53533E-02
      908  5.03770E-07 1.45154E-06-4.66927E-05 0.00000E+00 0.00000E+00 0.00000E+00 0.00000E+00 0.00000E+00 0.00000E+00 4.11270E-03 1.00806E-02 2.53533E-02
      909  0.00000E+00 2.21704E-06-4.66927E-05 0.00000E+00 0.00000E+00 0.00000E+00 0.00000E+00 0.00000E+00 0.00000E+00 7.22100E-19 1.17951E-02 2.53533E-02
      911  0.00000E+00 1.95161E-06-4.66927E-05 0.00000E+00 0.00000E+00 0.00000E+00 0.00000E+00 0.00000E+00 0.00000E+00 6.66600E-19 1.08877E-02 2.53533E-02
     1012  3.01709E-07 1.38341E-06-4.66927E-05 0.00000E+00 0.00000E+00 0.00000E+00 0.00000E+00 0.00000E+00 0.00000E+00 6.71040E-03 2.76538E-03 2.53533E-02
     1013  4.68314E-07 1.34688E-06-4.66927E-05 0.00000E+00 0.00000E+00 0.00000E+00 0.00000E+00 0.00000E+00 0.00000E+00 5.13327E-03 5.13175E-03 2.53533E-02
     1014  2.99814E-07 1.43169E-06-4.66927E-05 0.00000E+00 0.00000E+00 0.00000E+00 0.00000E+00 0.00000E+00 0.00000E+00 2.76650E-03 6.71063E-03 2.53533E-02
     1015  0.00000E+00 2.40906E-06-4.66927E-05 0.00000E+00 0.00000E+00 0.00000E+00 0.00000E+00 0.00000E+00 0.00000E+00 4.44400E-19 7.25951E-03 2.53533E-02
     1060  3.97085E-07 1.27347E-06-4.66927E-05 0.00000E+00 0.00000E+00 0.00000E+00 0.00000E+00 0.00000E+00 0.00000E+00 1.17709E-02 4.77047E-03 2.53533E-02
     1061  6.51259E-07 1.27311E-06-4.66927E-05 0.00000E+00 0.00000E+00 0.00000E+00 0.00000E+00 0.00000E+00 0.00000E+00 8.98935E-03 8.97307E-03 2.53533E-02
     1062  2.92066E-07 1.71952E-06-4.66927E-05 0.00000E+00 0.00000E+00 0.00000E+00 0.00000E+00 0.00000E+00 0.00000E+00 4.78549E-03 1.17657E-02 2.53533E-02
     1063  0.00000E+00 3.16622E-06-4.66927E-05 0.00000E+00 0.00000E+00 0.00000E+00 0.00000E+00 0.00000E+00 0.00000E+00 7.77700E-19 1.27032E-02 2.53533E-02



 n o d a l   p r i n t   o u t   f o r   t i m e  s t e p     392                              ( at time 5.4031733E+00 )

 nodal point  x-disp     y-disp      z-disp      x-vel       y-vel       z-vel      x-accl      y-accl      z-accl      x-coor      y-coor      z-coor
        1  0.00000E+00 0.00000E+00 0.00000E+00 0.00000E+00 0.00000E+00 0.00000E+00 0.00000E+00 0.00000E+00 0.00000E+00 0.00000E+00 0.00000E+00 0.00000E+00
        2  3.40659E-06 0.00000E+00 0.00000E+00 0.00000E+00 0.00000E+00 0.00000E+00 0.00000E+00 0.00000E+00 0.00000E+00 7.97157E-04 0.00000E+00 0.00000E+00
        3  8.76461E-06 0.00000E+00 0.00000E+00 0.00000E+00 0.00000E+00 0.00000E+00 0.00000E+00 0.00000E+00 0.00000E+00 1.59626E-03 0.00000E+00 0.00000E+00
        4  1.57881E-05 0.00000E+00 0.00000E+00 0.00000E+00 0.00000E+00 0.00000E+00 0.00000E+00 0.00000E+00 0.00000E+00 2.39709E-03 0.00000E+00 0.00000E+00
        5  2.50106E-05 0.00000E+00 0.00000E+00 0.00000E+00 0.00000E+00 0.00000E+00 0.00000E+00 0.00000E+00 0.00000E+00 3.20001E-03 0.00000E+00 0.00000E+00
        6  2.52568E-05 1.13141E-05 0.00000E+00 0.00000E+00 0.00000E+00 0.00000E+00 0.00000E+00 0.00000E+00 0.00000E+00 2.95856E-03 1.22631E-03-1.78000E-18
        7  1.97022E-05 2.04289E-05 0.00000E+00 0.00000E+00 0.00000E+00 0.00000E+00 0.00000E+00 0.00000E+00 0.00000E+00 2.26480E-03 2.26553E-03-1.78000E-18
        8  1.11406E-05 2.47277E-05 0.00000E+00 0.00000E+00 0.00000E+00 0.00000E+00 0.00000E+00 0.00000E+00 0.00000E+00 1.22614E-03 2.95803E-03-1.78000E-18
        9  0.00000E+00 2.53266E-05 0.00000E+00 0.00000E+00 0.00000E+00 0.00000E+00 0.00000E+00 0.00000E+00 0.00000E+00 1.94400E-19 3.20033E-03-1.78000E-18
       10  0.00000E+00 1.40490E-05 0.00000E+00 0.00000E+00 0.00000E+00 0.00000E+00 0.00000E+00 0.00000E+00 0.00000E+00 1.45800E-19 2.39535E-03 0.00000E+00
       11  0.00000E+00 5.90913E-06 0.00000E+00 0.00000E+00 0.00000E+00 0.00000E+00 0.00000E+00 0.00000E+00 0.00000E+00 9.72100E-20 1.59341E-03 0.00000E+00
       12  0.00000E+00 1.35323E-06 0.00000E+00 0.00000E+00 0.00000E+00 0.00000E+00 0.00000E+00 0.00000E+00 0.00000E+00 4.86000E-20 7.95103E-04 0.00000E+00
       13  1.03969E-05 8.79986E-06 0.00000E+00 0.00000E+00 0.00000E+00 0.00000E+00 0.00000E+00 0.00000E+00 0.00000E+00 1.36230E-03 1.31710E-03 0.00000E+00
       14  9.76219E-06 4.53036E-06 0.00000E+00 0.00000E+00 0.00000E+00 0.00000E+00 0.00000E+00 0.00000E+00 0.00000E+00 1.51666E-03 6.74109E-04 0.00000E+00
       15  1.51543E-05 1.29908E-05 0.00000E+00 0.00000E+00 0.00000E+00 0.00000E+00 0.00000E+00 0.00000E+00 0.00000E+00 1.78265E-03 1.74929E-03 0.00000E+00
       16  1.66644E-05 6.38565E-06 0.00000E+00 0.00000E+00 0.00000E+00 0.00000E+00 0.00000E+00 0.00000E+00 0.00000E+00 2.20776E-03 9.26519E-04 0.00000E+00
       17  5.56913E-06 9.37844E-06 0.00000E+00 0.00000E+00 0.00000E+00 0.00000E+00 0.00000E+00 0.00000E+00 0.00000E+00 7.12546E-04 1.49768E-03 0.00000E+00
       18  8.60940E-06 1.55836E-05 0.00000E+00 0.00000E+00 0.00000E+00 0.00000E+00 0.00000E+00 0.00000E+00 0.00000E+00 9.59468E-04 2.17888E-03 0.00000E+00
       19  4.54374E-06 4.10591E-06 0.00000E+00 0.00000E+00 0.00000E+00 0.00000E+00 0.00000E+00 0.00000E+00 0.00000E+00 7.86998E-04 7.57895E-04 0.00000E+00
      179  5.27658E-07 1.47897E-06-5.40317E-05 0.00000E+00 0.00000E+00 0.00000E+00 0.00000E+00 0.00000E+00 0.00000E+00 4.49063E-03 4.49158E-03 2.53460E-02
      180  2.53942E-07 1.24890E-06-5.40317E-05 0.00000E+00 0.00000E+00 0.00000E+00 0.00000E+00 0.00000E+00 0.00000E+00 3.53325E-03 3.47195E-03 2.53460E-02
      181 -1.08788E-07 1.33869E-06-5.40317E-05 0.00000E+00 0.00000E+00 0.00000E+00 0.00000E+00 0.00000E+00 0.00000E+00 4.37969E-03 1.84054E-03 2.53460E-02
      182  1.42771E-07 1.33727E-06-5.40317E-05 0.00000E+00 0.00000E+00 0.00000E+00 0.00000E+00 0.00000E+00 0.00000E+00 5.86684E-03 2.43114E-03 2.53460E-02
      247  4.98149E-07 0.00000E+00-5.40317E-05 0.00000E+00 0.00000E+00 0.00000E+00 0.00000E+00 0.00000E+00 0.00000E+00 1.58800E-03 0.00000E+00 2.53460E-02
      248 -1.49943E-07 1.12313E-06-5.40317E-05 0.00000E+00 0.00000E+00 0.00000E+00 0.00000E+00 0.00000E+00 0.00000E+00 1.56375E-03 1.50752E-03 2.53460E-02
      249  0.00000E+00 1.34962E-06-5.40317E-05 0.00000E+00 0.00000E+00 0.00000E+00 0.00000E+00 0.00000E+00 0.00000E+00 9.72100E-20 1.58885E-03 2.53460E-02
      250  0.00000E+00 0.00000E+00-5.40317E-05 0.00000E+00 0.00000E+00 0.00000E+00 0.00000E+00 0.00000E+00 0.00000E+00 0.00000E+00 0.00000E+00 2.53460E-02
      283  6.80724E-07 0.00000E+00-5.40317E-05 0.00000E+00 0.00000E+00 0.00000E+00 0.00000E+00 0.00000E+00 0.00000E+00 3.17568E-03 0.00000E+00 2.53460E-02
      284 -1.03552E-07 9.13329E-07-5.40317E-05 0.00000E+00 0.00000E+00 0.00000E+00 0.00000E+00 0.00000E+00 0.00000E+00 3.01170E-03 1.33901E-03 2.53460E-02
      333  1.36788E-07 8.63583E-07-5.40317E-05 0.00000E+00 0.00000E+00 0.00000E+00 0.00000E+00 0.00000E+00 0.00000E+00 1.41344E-03 2.97616E-03 2.53460E-02
      334  2.64702E-07 9.83378E-07-5.40317E-05 0.00000E+00 0.00000E+00 0.00000E+00 0.00000E+00 0.00000E+00 0.00000E+00 2.70296E-03 2.61648E-03 2.53460E-02
      335  1.23960E-07 1.06858E-06-5.40317E-05 0.00000E+00 0.00000E+00 0.00000E+00 0.00000E+00 0.00000E+00 0.00000E+00 1.90062E-03 4.32497E-03 2.53460E-02
      368  0.00000E+00 1.43879E-06-5.40317E-05 0.00000E+00 0.00000E+00 0.00000E+00 0.00000E+00 0.00000E+00 0.00000E+00 1.94400E-19 3.17644E-03 2.53460E-02
      369  0.00000E+00 2.21007E-06-5.40317E-05 0.00000E+00 0.00000E+00 0.00000E+00 0.00000E+00 0.00000E+00 0.00000E+00 2.91600E-19 4.76471E-03 2.53460E-02
      386  7.20473E-07 0.00000E+00-5.40317E-05 0.00000E+00 0.00000E+00 0.00000E+00 0.00000E+00 0.00000E+00 0.00000E+00 4.76322E-03 0.00000E+00 2.53460E-02
      403  6.30626E-07 0.00000E+00-5.40317E-05 0.00000E+00 0.00000E+00 0.00000E+00 0.00000E+00 0.00000E+00 0.00000E+00 6.35063E-03 0.00000E+00 2.53460E-02
      436  2.53968E-07 1.34934E-06-5.40317E-05 0.00000E+00 0.00000E+00 0.00000E+00 0.00000E+00 0.00000E+00 0.00000E+00 2.43005E-03 5.86805E-03 2.53460E-02
      437  0.00000E+00 2.92027E-06-5.40317E-05 0.00000E+00 0.00000E+00 0.00000E+00 0.00000E+00 0.00000E+00 0.00000E+00 3.88800E-19 6.35292E-03 2.53460E-02
      438  2.72034E-07 0.00000E+00-5.40317E-05 0.00000E+00 0.00000E+00 0.00000E+00 0.00000E+00 0.00000E+00 0.00000E+00 7.25737E-03 0.00000E+00 2.53460E-02
      439  1.94954E-07 0.00000E+00-5.40317E-05 0.00000E+00 0.00000E+00 0.00000E+00 0.00000E+00 0.00000E+00 0.00000E+00 8.16449E-03 0.00000E+00 2.53460E-02
      440  1.76174E-07 0.00000E+00-5.40317E-05 0.00000E+00 0.00000E+00 0.00000E+00 0.00000E+00 0.00000E+00 0.00000E+00 9.07158E-03 0.00000E+00 2.53460E-02
      441  1.74454E-07 0.00000E+00-5.40317E-05 0.00000E+00 0.00000E+00 0.00000E+00 0.00000E+00 0.00000E+00 0.00000E+00 9.97877E-03 0.00000E+00 2.53460E-02
      442  1.69078E-07 0.00000E+00-5.40317E-05 0.00000E+00 0.00000E+00 0.00000E+00 0.00000E+00 0.00000E+00 0.00000E+00 1.08859E-02 0.00000E+00 2.53460E-02
      443  1.57949E-07 0.00000E+00-5.40317E-05 0.00000E+00 0.00000E+00 0.00000E+00 0.00000E+00 0.00000E+00 0.00000E+00 1.17931E-02 0.00000E+00 2.53460E-02
      444 -3.59046E-08 0.00000E+00-5.40317E-05 0.00000E+00 0.00000E+00 0.00000E+00 0.00000E+00 0.00000E+00 0.00000E+00 1.27000E-02 0.00000E+00 2.53460E-02
      628  4.58249E-07 1.51045E-06-5.40317E-05 0.00000E+00 0.00000E+00 0.00000E+00 0.00000E+00 0.00000E+00 0.00000E+00 8.39736E-03 3.43391E-03 2.53460E-02
      631  3.84524E-07 1.47873E-06-5.40317E-05 0.00000E+00 0.00000E+00 0.00000E+00 0.00000E+00 0.00000E+00 0.00000E+00 7.55388E-03 3.09968E-03 2.53460E-02
      632  6.31269E-07 1.38602E-06-5.40317E-05 0.00000E+00 0.00000E+00 0.00000E+00 0.00000E+00 0.00000E+00 0.00000E+00 6.41873E-03 6.41229E-03 2.53460E-02
      635  5.43246E-07 1.39285E-06-5.40317E-05 0.00000E+00 0.00000E+00 0.00000E+00 0.00000E+00 0.00000E+00 0.00000E+00 5.77594E-03 5.77199E-03 2.53460E-02
      636  4.52977E-07 1.58787E-06-5.40317E-05 0.00000E+00 0.00000E+00 0.00000E+00 0.00000E+00 0.00000E+00 0.00000E+00 3.43965E-03 8.39579E-03 2.53460E-02
      639  3.93361E-07 1.57584E-06-5.40317E-05 0.00000E+00 0.00000E+00 0.00000E+00 0.00000E+00 0.00000E+00 0.00000E+00 3.10309E-03 7.55328E-03 2.53460E-02
      640  0.00000E+00 2.18469E-06-5.40317E-05 0.00000E+00 0.00000E+00 0.00000E+00 0.00000E+00 0.00000E+00 0.00000E+00 5.55500E-19 9.07358E-03 2.53460E-02
      643  0.00000E+00 2.38456E-06-5.40317E-05 0.00000E+00 0.00000E+00 0.00000E+00 0.00000E+00 0.00000E+00 0.00000E+00 4.99900E-19 8.16668E-03 2.53460E-02
      692  5.40172E-07 1.54425E-06-5.40317E-05 0.00000E+00 0.00000E+00 0.00000E+00 0.00000E+00 0.00000E+00 0.00000E+00 9.24084E-03 3.76814E-03 2.53460E-02
      694  7.17580E-07 1.38212E-06-5.40317E-05 0.00000E+00 0.00000E+00 0.00000E+00 0.00000E+00 0.00000E+00 0.00000E+00 7.06142E-03 7.05248E-03 2.53460E-02
      696  5.08283E-07 1.57608E-06-5.40317E-05 0.00000E+00 0.00000E+00 0.00000E+00 0.00000E+00 0.00000E+00 0.00000E+00 3.77621E-03 9.23818E-03 2.53460E-02
      698  0.00000E+00 2.05155E-06-5.40317E-05 0.00000E+00 0.00000E+00 0.00000E+00 0.00000E+00 0.00000E+00 0.00000E+00 6.11000E-19 9.98065E-03 2.53460E-02
      900  6.58106E-07 1.50106E-06-5.40317E-05 0.00000E+00 0.00000E+00 0.00000E+00 0.00000E+00 0.00000E+00 0.00000E+00 1.09278E-02 4.43650E-03 2.53460E-02
      902  6.31695E-07 1.55867E-06-5.40317E-05 0.00000E+00 0.00000E+00 0.00000E+00 0.00000E+00 0.00000E+00 0.00000E+00 1.00843E-02 4.10236E-03 2.53460E-02
      903  1.02823E-06 1.50298E-06-5.40317E-05 0.00000E+00 0.00000E+00 0.00000E+00 0.00000E+00 0.00000E+00 0.00000E+00 8.34713E-03 8.33310E-03 2.53460E-02
      905  8.17098E-07 1.39319E-06-5.40317E-05 0.00000E+00 0.00000E+00 0.00000E+00 0.00000E+00 0.00000E+00 0.00000E+00 7.70422E-03 7.69269E-03 2.53460E-02
      906  3.98466E-07 1.40905E-06-5.40317E-05 0.00000E+00 0.00000E+00 0.00000E+00 0.00000E+00 0.00000E+00 0.00000E+00 4.44910E-03 1.09229E-02 2.53460E-02
      908  5.24355E-07 1.54101E-06-5.40317E-05 0.00000E+00 0.00000E+00 0.00000E+00 0.00000E+00 0.00000E+00 0.00000E+00 4.11272E-03 1.00806E-02 2.53460E-02
      909  0.00000E+00 2.36110E-06-5.40317E-05 0.00000E+00 0.00000E+00 0.00000E+00 0.00000E+00 0.00000E+00 0.00000E+00 7.22100E-19 1.17953E-02 2.53460E-02
      911  0.00000E+00 2.06251E-06-5.40317E-05 0.00000E+00 0.00000E+00 0.00000E+00 0.00000E+00 0.00000E+00 0.00000E+00 6.66600E-19 1.08878E-02 2.53460E-02
     1012  3.11952E-07 1.43436E-06-5.40317E-05 0.00000E+00 0.00000E+00 0.00000E+00 0.00000E+00 0.00000E+00 0.00000E+00 6.71041E-03 2.76543E-03 2.53460E-02
     1013  4.71346E-07 1.39976E-06-5.40317E-05 0.00000E+00 0.00000E+00 0.00000E+00 0.00000E+00 0.00000E+00 0.00000E+00 5.13327E-03 5.13180E-03 2.53460E-02
     1014  3.03863E-07 1.52672E-06-5.40317E-05 0.00000E+00 0.00000E+00 0.00000E+00 0.00000E+00 0.00000E+00 0.00000E+00 2.76650E-03 6.71073E-03 2.53460E-02
     1015  0.00000E+00 2.63885E-06-5.40317E-05 0.00000E+00 0.00000E+00 0.00000E+00 0.00000E+00 0.00000E+00 0.00000E+00 4.44400E-19 7.25974E-03 2.53460E-02
     1060  3.89351E-07 1.29984E-06-5.40317E-05 0.00000E+00 0.00000E+00 0.00000E+00 0.00000E+00 0.00000E+00 0.00000E+00 1.17709E-02 4.77050E-03 2.53460E-02
     1061  6.44966E-07 1.34699E-06-5.40317E-05 0.00000E+00 0.00000E+00 0.00000E+00 0.00000E+00 0.00000E+00 0.00000E+00 8.98934E-03 8.97315E-03 2.53460E-02
     1062  3.20553E-07 1.86673E-06-5.40317E-05 0.00000E+00 0.00000E+00 0.00000E+00 0.00000E+00 0.00000E+00 0.00000E+00 4.78552E-03 1.17659E-02 2.53460E-02
     1063  0.00000E+00 3.33207E-06-5.40317E-05 0.00000E+00 0.00000E+00 0.00000E+00 0.00000E+00 0.00000E+00 0.00000E+00 7.77700E-19 1.27033E-02 2.53460E-02



 n o d a l   p r i n t   o u t   f o r   t i m e  s t e p     398                              ( at time 6.5663259E+00 )

 nodal point  x-disp     y-disp      z-disp      x-vel       y-vel       z-vel      x-accl      y-accl      z-accl      x-coor      y-coor      z-coor
        1  0.00000E+00 0.00000E+00 0.00000E+00 0.00000E+00 0.00000E+00 0.00000E+00 0.00000E+00 0.00000E+00 0.00000E+00 0.00000E+00 0.00000E+00 0.00000E+00
        2  5.40983E-06 0.00000E+00 0.00000E+00 0.00000E+00 0.00000E+00 0.00000E+00 0.00000E+00 0.00000E+00 0.00000E+00 7.99160E-04 0.00000E+00 0.00000E+00
        3  1.28257E-05 0.00000E+00 0.00000E+00 0.00000E+00 0.00000E+00 0.00000E+00 0.00000E+00 0.00000E+00 0.00000E+00 1.60033E-03 0.00000E+00 0.00000E+00
        4  2.21831E-05 0.00000E+00 0.00000E+00 0.00000E+00 0.00000E+00 0.00000E+00 0.00000E+00 0.00000E+00 0.00000E+00 2.40348E-03 0.00000E+00 0.00000E+00
        5  3.46745E-05 0.00000E+00 0.00000E+00 0.00000E+00 0.00000E+00 0.00000E+00 0.00000E+00 0.00000E+00 0.00000E+00 3.20967E-03 0.00000E+00 0.00000E+00
        6  3.44024E-05 1.50827E-05 0.00000E+00 0.00000E+00 0.00000E+00 0.00000E+00 0.00000E+00 0.00000E+00 0.00000E+00 2.96770E-03 1.23008E-03-1.78000E-18
        7  2.73932E-05 2.72066E-05 0.00000E+00 0.00000E+00 0.00000E+00 0.00000E+00 0.00000E+00 0.00000E+00 0.00000E+00 2.27249E-03 2.27231E-03-1.78000E-18
        8  1.55126E-05 3.40575E-05 0.00000E+00 0.00000E+00 0.00000E+00 0.00000E+00 0.00000E+00 0.00000E+00 0.00000E+00 1.23051E-03 2.96736E-03-1.78000E-18
        9  0.00000E+00 3.55551E-05 0.00000E+00 0.00000E+00 0.00000E+00 0.00000E+00 0.00000E+00 0.00000E+00 0.00000E+00 1.94400E-19 3.21056E-03-1.78000E-18
       10  0.00000E+00 2.13524E-05 0.00000E+00 0.00000E+00 0.00000E+00 0.00000E+00 0.00000E+00 0.00000E+00 0.00000E+00 1.45800E-19 2.40265E-03 0.00000E+00
       11  0.00000E+00 1.03642E-05 0.00000E+00 0.00000E+00 0.00000E+00 0.00000E+00 0.00000E+00 0.00000E+00 0.00000E+00 9.72100E-20 1.59786E-03 0.00000E+00
       12  0.00000E+00 3.44687E-06 0.00000E+00 0.00000E+00 0.00000E+00 0.00000E+00 0.00000E+00 0.00000E+00 0.00000E+00 4.86000E-20 7.97197E-04 0.00000E+00
       13  1.56139E-05 1.33081E-05 0.00000E+00 0.00000E+00 0.00000E+00 0.00000E+00 0.00000E+00 0.00000E+00 0.00000E+00 1.36751E-03 1.32161E-03 0.00000E+00
       14  1.52114E-05 7.24070E-06 0.00000E+00 0.00000E+00 0.00000E+00 0.00000E+00 0.00000E+00 0.00000E+00 0.00000E+00 1.52211E-03 6.76819E-04 0.00000E+00
       15  2.16274E-05 1.85754E-05 0.00000E+00 0.00000E+00 0.00000E+00 0.00000E+00 0.00000E+00 0.00000E+00 0.00000E+00 1.78913E-03 1.75488E-03 0.00000E+00
       16  2.40403E-05 9.39934E-06 0.00000E+00 0.00000E+00 0.00000E+00 0.00000E+00 0.00000E+00 0.00000E+00 0.00000E+00 2.21514E-03 9.29533E-04 0.00000E+00
       17  8.49437E-06 1.43604E-05 0.00000E+00 0.00000E+00 0.00000E+00 0.00000E+00 0.00000E+00 0.00000E+00 0.00000E+00 7.15471E-04 1.50266E-03 0.00000E+00
       18  1.25128E-05 2.26434E-05 0.00000E+00 0.00000E+00 0.00000E+00 0.00000E+00 0.00000E+00 0.00000E+00 0.00000E+00 9.63371E-04 2.18594E-03 0.00000E+00
       19  7.55776E-06 6.85261E-06 0.00000E+00 0.00000E+00 0.00000E+00 0.00000E+00 0.00000E+00 0.00000E+00 0.00000E+00 7.90012E-04 7.60642E-04 0.00000E+00
[...]
      179  9.45610E-07 2.57294E-06-9.89827E-04 0.00000E+00 0.00000E+00 0.00000E+00 0.00000E+00 0.00000E+00 0.00000E+00 4.49105E-03 4.49267E-03 2.44102E-02
      180  5.74792E-07 2.28808E-06-9.89827E-04 0.00000E+00 0.00000E+00 0.00000E+00 0.00000E+00 0.00000E+00 0.00000E+00 3.53357E-03 3.47299E-03 2.44102E-02
      181 -1.60140E-07 1.74744E-06-9.89827E-04 0.00000E+00 0.00000E+00 0.00000E+00 0.00000E+00 0.00000E+00 0.00000E+00 4.37964E-03 1.84095E-03 2.44102E-02
      182  4.92260E-07 2.18053E-06-9.89827E-04 0.00000E+00 0.00000E+00 0.00000E+00 0.00000E+00 0.00000E+00 0.00000E+00 5.86719E-03 2.43198E-03 2.44102E-02
      247  2.42306E-06 0.00000E+00-9.89827E-04 0.00000E+00 0.00000E+00 0.00000E+00 0.00000E+00 0.00000E+00 0.00000E+00 1.58992E-03 0.00000E+00 2.44102E-02
      248  5.14498E-08 8.96465E-07-9.89827E-04 0.00000E+00 0.00000E+00 0.00000E+00 0.00000E+00 0.00000E+00 0.00000E+00 1.56395E-03 1.50730E-03 2.44102E-02
      249  0.00000E+00 3.28314E-06-9.89827E-04 0.00000E+00 0.00000E+00 0.00000E+00 0.00000E+00 0.00000E+00 0.00000E+00 9.72100E-20 1.59078E-03 2.44102E-02
      250  0.00000E+00 0.00000E+00-9.89827E-04 0.00000E+00 0.00000E+00 0.00000E+00 0.00000E+00 0.00000E+00 0.00000E+00 0.00000E+00 0.00000E+00 2.44102E-02
      283  2.82919E-06 0.00000E+00-9.89827E-04 0.00000E+00 0.00000E+00 0.00000E+00 0.00000E+00 0.00000E+00 0.00000E+00 3.17783E-03 0.00000E+00 2.44102E-02
      284 -1.82083E-07 1.95550E-06-9.89827E-04 0.00000E+00 0.00000E+00 0.00000E+00 0.00000E+00 0.00000E+00 0.00000E+00 3.01162E-03 1.34006E-03 2.44102E-02
      333  3.78598E-07 1.64566E-06-9.89827E-04 0.00000E+00 0.00000E+00 0.00000E+00 0.00000E+00 0.00000E+00 0.00000E+00 1.41368E-03 2.97695E-03 2.44102E-02
      334  5.62724E-07 1.32316E-06-9.89827E-04 0.00000E+00 0.00000E+00 0.00000E+00 0.00000E+00 0.00000E+00 0.00000E+00 2.70326E-03 2.61682E-03 2.44102E-02
      335  2.15098E-07 1.84095E-06-9.89827E-04 0.00000E+00 0.00000E+00 0.00000E+00 0.00000E+00 0.00000E+00 0.00000E+00 1.90072E-03 4.32574E-03 2.44102E-02
      368  0.00000E+00 4.16708E-06-9.89827E-04 0.00000E+00 0.00000E+00 0.00000E+00 0.00000E+00 0.00000E+00 0.00000E+00 1.94400E-19 3.17917E-03 2.44102E-02
      369  0.00000E+00 5.17856E-06-9.89827E-04 0.00000E+00 0.00000E+00 0.00000E+00 0.00000E+00 0.00000E+00 0.00000E+00 2.91600E-19 4.76768E-03 2.44102E-02
      386  1.80062E-06 0.00000E+00-9.89827E-04 0.00000E+00 0.00000E+00 0.00000E+00 0.00000E+00 0.00000E+00 0.00000E+00 4.76430E-03 0.00000E+00 2.44102E-02
      403  1.23562E-06 0.00000E+00-9.89827E-04 0.00000E+00 0.00000E+00 0.00000E+00 0.00000E+00 0.00000E+00 0.00000E+00 6.35124E-03 0.00000E+00 2.44102E-02
      436  3.53423E-07 2.20443E-06-9.89827E-04 0.00000E+00 0.00000E+00 0.00000E+00 0.00000E+00 0.00000E+00 0.00000E+00 2.43015E-03 5.86890E-03 2.44102E-02
      437  0.00000E+00 5.69374E-06-9.89827E-04 0.00000E+00 0.00000E+00 0.00000E+00 0.00000E+00 0.00000E+00 0.00000E+00 3.88800E-19 6.35569E-03 2.44102E-02
      438  6.11108E-07 0.00000E+00-9.89827E-04 0.00000E+00 0.00000E+00 0.00000E+00 0.00000E+00 0.00000E+00 0.00000E+00 7.25771E-03 0.00000E+00 2.44102E-02
      439  4.87167E-07 0.00000E+00-9.89827E-04 0.00000E+00 0.00000E+00 0.00000E+00 0.00000E+00 0.00000E+00 0.00000E+00 8.16479E-03 0.00000E+00 2.44102E-02
      440  4.61882E-07 0.00000E+00-9.89827E-04 0.00000E+00 0.00000E+00 0.00000E+00 0.00000E+00 0.00000E+00 0.00000E+00 9.07186E-03 0.00000E+00 2.44102E-02
      441  4.31737E-07 0.00000E+00-9.89827E-04 0.00000E+00 0.00000E+00 0.00000E+00 0.00000E+00 0.00000E+00 0.00000E+00 9.97903E-03 0.00000E+00 2.44102E-02
      442  3.83529E-07 0.00000E+00-9.89827E-04 0.00000E+00 0.00000E+00 0.00000E+00 0.00000E+00 0.00000E+00 0.00000E+00 1.08861E-02 0.00000E+00 2.44102E-02
      443  2.62079E-07 0.00000E+00-9.89827E-04 0.00000E+00 0.00000E+00 0.00000E+00 0.00000E+00 0.00000E+00 0.00000E+00 1.17932E-02 0.00000E+00 2.44102E-02
      444 -2.37978E-07 0.00000E+00-9.89827E-04 0.00000E+00 0.00000E+00 0.00000E+00 0.00000E+00 0.00000E+00 0.00000E+00 1.26998E-02 0.00000E+00 2.44102E-02
      628  8.38586E-07 2.45530E-06-9.89827E-04 0.00000E+00 0.00000E+00 0.00000E+00 0.00000E+00 0.00000E+00 0.00000E+00 8.39774E-03 3.43486E-03 2.44102E-02
      631  7.94117E-07 2.42659E-06-9.89827E-04 0.00000E+00 0.00000E+00 0.00000E+00 0.00000E+00 0.00000E+00 0.00000E+00 7.55429E-03 3.10063E-03 2.44102E-02
      632  1.13278E-06 2.32387E-06-9.89827E-04 0.00000E+00 0.00000E+00 0.00000E+00 0.00000E+00 0.00000E+00 0.00000E+00 6.41923E-03 6.41322E-03 2.44102E-02
      635  9.41730E-07 2.37436E-06-9.89827E-04 0.00000E+00 0.00000E+00 0.00000E+00 0.00000E+00 0.00000E+00 0.00000E+00 5.77634E-03 5.77297E-03 2.44102E-02
      636  5.58701E-07 2.13978E-06-9.89827E-04 0.00000E+00 0.00000E+00 0.00000E+00 0.00000E+00 0.00000E+00 0.00000E+00 3.43976E-03 8.39634E-03 2.44102E-02
      639  4.88785E-07 2.26879E-06-9.89827E-04 0.00000E+00 0.00000E+00 0.00000E+00 0.00000E+00 0.00000E+00 0.00000E+00 3.10319E-03 7.55397E-03 2.44102E-02
      640  0.00000E+00 4.39795E-06-9.89827E-04 0.00000E+00 0.00000E+00 0.00000E+00 0.00000E+00 0.00000E+00 0.00000E+00 5.55500E-19 9.07580E-03 2.44102E-02
      643  0.00000E+00 4.85465E-06-9.89827E-04 0.00000E+00 0.00000E+00 0.00000E+00 0.00000E+00 0.00000E+00 0.00000E+00 4.99900E-19 8.16915E-03 2.44102E-02
      692  9.34598E-07 2.45007E-06-9.89827E-04 0.00000E+00 0.00000E+00 0.00000E+00 0.00000E+00 0.00000E+00 0.00000E+00 9.24123E-03 3.76905E-03 2.44102E-02
      694  1.29070E-06 2.25752E-06-9.89827E-04 0.00000E+00 0.00000E+00 0.00000E+00 0.00000E+00 0.00000E+00 0.00000E+00 7.06199E-03 7.05336E-03 2.44102E-02
      696  6.40109E-07 2.14609E-06-9.89827E-04 0.00000E+00 0.00000E+00 0.00000E+00 0.00000E+00 0.00000E+00 0.00000E+00 3.77634E-03 9.23875E-03 2.44102E-02
      698  0.00000E+00 3.99573E-06-9.89827E-04 0.00000E+00 0.00000E+00 0.00000E+00 0.00000E+00 0.00000E+00 0.00000E+00 6.11000E-19 9.98260E-03 2.44102E-02
      900  1.11589E-06 2.25800E-06-9.89827E-04 0.00000E+00 0.00000E+00 0.00000E+00 0.00000E+00 0.00000E+00 0.00000E+00 1.09282E-02 4.43726E-03 2.44102E-02
      902  1.04004E-06 2.40670E-06-9.89827E-04 0.00000E+00 0.00000E+00 0.00000E+00 0.00000E+00 0.00000E+00 0.00000E+00 1.00847E-02 4.10321E-03 2.44102E-02
      903  1.63833E-06 2.19156E-06-9.89827E-04 0.00000E+00 0.00000E+00 0.00000E+00 0.00000E+00 0.00000E+00 0.00000E+00 8.34774E-03 8.33379E-03 2.44102E-02
      905  1.44547E-06 2.21643E-06-9.89827E-04 0.00000E+00 0.00000E+00 0.00000E+00 0.00000E+00 0.00000E+00 0.00000E+00 7.70485E-03 7.69352E-03 2.44102E-02
      906  5.08706E-07 2.26844E-06-9.89827E-04 0.00000E+00 0.00000E+00 0.00000E+00 0.00000E+00 0.00000E+00 0.00000E+00 4.44921E-03 1.09238E-02 2.44102E-02
      908  6.39144E-07 2.14185E-06-9.89827E-04 0.00000E+00 0.00000E+00 0.00000E+00 0.00000E+00 0.00000E+00 0.00000E+00 4.11284E-03 1.00812E-02 2.44102E-02
      909  0.00000E+00 4.14167E-06-9.89827E-04 0.00000E+00 0.00000E+00 0.00000E+00 0.00000E+00 0.00000E+00 0.00000E+00 7.22100E-19 1.17970E-02 2.44102E-02
      911  0.00000E+00 3.96162E-06-9.89827E-04 0.00000E+00 0.00000E+00 0.00000E+00 0.00000E+00 0.00000E+00 0.00000E+00 6.66600E-19 1.08897E-02 2.44102E-02
     1012  7.52145E-07 2.38616E-06-9.89827E-04 0.00000E+00 0.00000E+00 0.00000E+00 0.00000E+00 0.00000E+00 0.00000E+00 6.71085E-03 2.76639E-03 2.44102E-02
     1013  8.02569E-07 2.44541E-06-9.89827E-04 0.00000E+00 0.00000E+00 0.00000E+00 0.00000E+00 0.00000E+00 0.00000E+00 5.13360E-03 5.13285E-03 2.44102E-02
     1014  4.13662E-07 2.36596E-06-9.89827E-04 0.00000E+00 0.00000E+00 0.00000E+00 0.00000E+00 0.00000E+00 0.00000E+00 2.76661E-03 6.71157E-03 2.44102E-02
     1015  0.00000E+00 5.25839E-06-9.89827E-04 0.00000E+00 0.00000E+00 0.00000E+00 0.00000E+00 0.00000E+00 0.00000E+00 4.44400E-19 7.26236E-03 2.44102E-02
     1060  8.05230E-07 1.91426E-06-9.89827E-04 0.00000E+00 0.00000E+00 0.00000E+00 0.00000E+00 0.00000E+00 0.00000E+00 1.17713E-02 4.77111E-03 2.44102E-02
     1061  9.30331E-07 2.10932E-06-9.89827E-04 0.00000E+00 0.00000E+00 0.00000E+00 0.00000E+00 0.00000E+00 0.00000E+00 8.98963E-03 8.97391E-03 2.44102E-02
     1062  6.73515E-07 2.81903E-06-9.89827E-04 0.00000E+00 0.00000E+00 0.00000E+00 0.00000E+00 0.00000E+00 0.00000E+00 4.78587E-03 1.17668E-02 2.44102E-02
     1063  0.00000E+00 4.81833E-06-9.89827E-04 0.00000E+00 0.00000E+00 0.00000E+00 0.00000E+00 0.00000E+00 0.00000E+00 7.77700E-19 1.27048E-02 2.44102E-02



 n o d a l   p r i n t   o u t   f o r   t i m e  s t e p     748                              ( at time 1.0000000E+02 )

 nodal point  x-disp     y-disp      z-disp      x-vel       y-vel       z-vel      x-accl      y-accl      z-accl      x-coor      y-coor      z-coor
        1  0.00000E+00 0.00000E+00 0.00000E+00 0.00000E+00 0.00000E+00 0.00000E+00 0.00000E+00 0.00000E+00 0.00000E+00 0.00000E+00 0.00000E+00 0.00000E+00
        2  7.26324E-04 0.00000E+00 0.00000E+00 0.00000E+00 0.00000E+00 0.00000E+00 0.00000E+00 0.00000E+00 0.00000E+00 1.52007E-03 0.00000E+00 0.00000E+00
        3  1.26025E-03 0.00000E+00 0.00000E+00 0.00000E+00 0.00000E+00 0.00000E+00 0.00000E+00 0.00000E+00 0.00000E+00 2.84775E-03 0.00000E+00 0.00000E+00
        4  1.59729E-03 0.00000E+00 0.00000E+00 0.00000E+00 0.00000E+00 0.00000E+00 0.00000E+00 0.00000E+00 0.00000E+00 3.97859E-03 0.00000E+00 0.00000E+00
        5  1.94430E-03 0.00000E+00 0.00000E+00 0.00000E+00 0.00000E+00 0.00000E+00 0.00000E+00 0.00000E+00 0.00000E+00 5.11930E-03 0.00000E+00 0.00000E+00
        6  1.65092E-03 7.29566E-04 0.00000E+00 0.00000E+00 0.00000E+00 0.00000E+00 0.00000E+00 0.00000E+00 0.00000E+00 4.58422E-03 1.94457E-03-1.78000E-18
        7  1.12536E-03 1.14549E-03 0.00000E+00 0.00000E+00 0.00000E+00 0.00000E+00 0.00000E+00 0.00000E+00 0.00000E+00 3.37046E-03 3.39059E-03-1.78000E-18
        8  6.27016E-04 1.35838E-03 0.00000E+00 0.00000E+00 0.00000E+00 0.00000E+00 0.00000E+00 0.00000E+00 0.00000E+00 1.84202E-03 4.29168E-03-1.78000E-18
        9  0.00000E+00 1.53024E-03 0.00000E+00 0.00000E+00 0.00000E+00 0.00000E+00 0.00000E+00 0.00000E+00 0.00000E+00 1.94400E-19 4.70524E-03-1.78000E-18
       10  0.00000E+00 1.14757E-03 0.00000E+00 0.00000E+00 0.00000E+00 0.00000E+00 0.00000E+00 0.00000E+00 0.00000E+00 1.45800E-19 3.52887E-03 0.00000E+00
       11  0.00000E+00 7.38393E-04 0.00000E+00 0.00000E+00 0.00000E+00 0.00000E+00 0.00000E+00 0.00000E+00 0.00000E+00 9.72100E-20 2.32589E-03 0.00000E+00
       12  0.00000E+00 3.90996E-04 0.00000E+00 0.00000E+00 0.00000E+00 0.00000E+00 0.00000E+00 0.00000E+00 0.00000E+00 4.86000E-20 1.18475E-03 0.00000E+00
       13  9.24738E-04 6.52117E-04 0.00000E+00 0.00000E+00 0.00000E+00 0.00000E+00 0.00000E+00 0.00000E+00 0.00000E+00 2.27664E-03 1.96042E-03 0.00000E+00
       14  1.08798E-03 3.55599E-04 0.00000E+00 0.00000E+00 0.00000E+00 0.00000E+00 0.00000E+00 0.00000E+00 0.00000E+00 2.59488E-03 1.02518E-03 0.00000E+00
       15  1.02682E-03 8.59009E-04 0.00000E+00 0.00000E+00 0.00000E+00 0.00000E+00 0.00000E+00 0.00000E+00 0.00000E+00 2.79432E-03 2.59531E-03 0.00000E+00
       16  1.38189E-03 4.45291E-04 0.00000E+00 0.00000E+00 0.00000E+00 0.00000E+00 0.00000E+00 0.00000E+00 0.00000E+00 3.57299E-03 1.36542E-03 0.00000E+00
       17  4.80827E-04 7.37670E-04 0.00000E+00 0.00000E+00 0.00000E+00 0.00000E+00 0.00000E+00 0.00000E+00 0.00000E+00 1.18780E-03 2.22597E-03 0.00000E+00
       18  5.54978E-04 1.06873E-03 0.00000E+00 0.00000E+00 0.00000E+00 0.00000E+00 0.00000E+00 0.00000E+00 0.00000E+00 1.50584E-03 3.23203E-03 0.00000E+00
       19  5.68915E-04 4.13668E-04 0.00000E+00 0.00000E+00 0.00000E+00 0.00000E+00 0.00000E+00 0.00000E+00 0.00000E+00 1.35137E-03 1.16746E-03 0.00000E+00
      179  1.08256E-06 2.56859E-06-1.00000E-03 0.00000E+00 0.00000E+00 0.00000E+00 0.00000E+00 0.00000E+00 0.00000E+00 4.49118E-03 4.49267E-03 2.44000E-02
      180  6.93884E-07 2.18637E-06-1.00000E-03 0.00000E+00 0.00000E+00 0.00000E+00 0.00000E+00 0.00000E+00 0.00000E+00 3.53369E-03 3.47289E-03 2.44000E-02
      181 -2.03932E-08 1.69638E-06-1.00000E-03 0.00000E+00 0.00000E+00 0.00000E+00 0.00000E+00 0.00000E+00 0.00000E+00 4.37978E-03 1.84090E-03 2.44000E-02
      182  7.11406E-07 2.09557E-06-1.00000E-03 0.00000E+00 0.00000E+00 0.00000E+00 0.00000E+00 0.00000E+00 0.00000E+00 5.86741E-03 2.43190E-03 2.44000E-02
      247  2.55179E-06 0.00000E+00-1.00000E-03 0.00000E+00 0.00000E+00 0.00000E+00 0.00000E+00 0.00000E+00 0.00000E+00 1.59005E-03 0.00000E+00 2.44000E-02
      248  1.93771E-07 9.37844E-07-1.00000E-03 0.00000E+00 0.00000E+00 0.00000E+00 0.00000E+00 0.00000E+00 0.00000E+00 1.56409E-03 1.50734E-03 2.44000E-02
      249  0.00000E+00 3.18492E-06-1.00000E-03 0.00000E+00 0.00000E+00 0.00000E+00 0.00000E+00 0.00000E+00 0.00000E+00 9.72100E-20 1.59068E-03 2.44000E-02
      250  0.00000E+00 0.00000E+00-1.00000E-03 0.00000E+00 0.00000E+00 0.00000E+00 0.00000E+00 0.00000E+00 0.00000E+00 0.00000E+00 0.00000E+00 2.44000E-02
      283  3.01417E-06 0.00000E+00-1.00000E-03 0.00000E+00 0.00000E+00 0.00000E+00 0.00000E+00 0.00000E+00 0.00000E+00 3.17801E-03 0.00000E+00 2.44000E-02
      284 -2.53063E-08 1.65395E-06-1.00000E-03 0.00000E+00 0.00000E+00 0.00000E+00 0.00000E+00 0.00000E+00 0.00000E+00 3.01177E-03 1.33975E-03 2.44000E-02
      333  4.88195E-07 1.62264E-06-1.00000E-03 0.00000E+00 0.00000E+00 0.00000E+00 0.00000E+00 0.00000E+00 0.00000E+00 1.41379E-03 2.97692E-03 2.44000E-02
      334  7.19145E-07 1.10752E-06-1.00000E-03 0.00000E+00 0.00000E+00 0.00000E+00 0.00000E+00 0.00000E+00 0.00000E+00 2.70342E-03 2.61661E-03 2.44000E-02
      335  2.96813E-07 1.92519E-06-1.00000E-03 0.00000E+00 0.00000E+00 0.00000E+00 0.00000E+00 0.00000E+00 0.00000E+00 1.90080E-03 4.32583E-03 2.44000E-02
      368  0.00000E+00 4.11341E-06-1.00000E-03 0.00000E+00 0.00000E+00 0.00000E+00 0.00000E+00 0.00000E+00 0.00000E+00 1.94400E-19 3.17911E-03 2.44000E-02
      369  0.00000E+00 5.21223E-06-1.00000E-03 0.00000E+00 0.00000E+00 0.00000E+00 0.00000E+00 0.00000E+00 0.00000E+00 2.91600E-19 4.76771E-03 2.44000E-02
      386  1.96911E-06 0.00000E+00-1.00000E-03 0.00000E+00 0.00000E+00 0.00000E+00 0.00000E+00 0.00000E+00 0.00000E+00 4.76447E-03 0.00000E+00 2.44000E-02
      403  1.41426E-06 0.00000E+00-1.00000E-03 0.00000E+00 0.00000E+00 0.00000E+00 0.00000E+00 0.00000E+00 0.00000E+00 6.35141E-03 0.00000E+00 2.44000E-02
      436  4.48763E-07 2.42660E-06-1.00000E-03 0.00000E+00 0.00000E+00 0.00000E+00 0.00000E+00 0.00000E+00 0.00000E+00 2.43025E-03 5.86913E-03 2.44000E-02
      437  0.00000E+00 5.82070E-06-1.00000E-03 0.00000E+00 0.00000E+00 0.00000E+00 0.00000E+00 0.00000E+00 0.00000E+00 3.88800E-19 6.35582E-03 2.44000E-02
      438  8.76161E-07 0.00000E+00-1.00000E-03 0.00000E+00 0.00000E+00 0.00000E+00 0.00000E+00 0.00000E+00 0.00000E+00 7.25798E-03 0.00000E+00 2.44000E-02
      439  7.48189E-07 0.00000E+00-1.00000E-03 0.00000E+00 0.00000E+00 0.00000E+00 0.00000E+00 0.00000E+00 0.00000E+00 8.16505E-03 0.00000E+00 2.44000E-02
      440  7.10421E-07 0.00000E+00-1.00000E-03 0.00000E+00 0.00000E+00 0.00000E+00 0.00000E+00 0.00000E+00 0.00000E+00 9.07211E-03 0.00000E+00 2.44000E-02
      441  6.95500E-07 0.00000E+00-1.00000E-03 0.00000E+00 0.00000E+00 0.00000E+00 0.00000E+00 0.00000E+00 0.00000E+00 9.97930E-03 0.00000E+00 2.44000E-02
      442  6.79086E-07 0.00000E+00-1.00000E-03 0.00000E+00 0.00000E+00 0.00000E+00 0.00000E+00 0.00000E+00 0.00000E+00 1.08864E-02 0.00000E+00 2.44000E-02
      443  5.88615E-07 0.00000E+00-1.00000E-03 0.00000E+00 0.00000E+00 0.00000E+00 0.00000E+00 0.00000E+00 0.00000E+00 1.17935E-02 0.00000E+00 2.44000E-02
      444  1.67261E-07 0.00000E+00-1.00000E-03 0.00000E+00 0.00000E+00 0.00000E+00 0.00000E+00 0.00000E+00 0.00000E+00 1.27002E-02 0.00000E+00 2.44000E-02
      628  1.10151E-06 2.36754E-06-1.00000E-03 0.00000E+00 0.00000E+00 0.00000E+00 0.00000E+00 0.00000E+00 0.00000E+00 8.39800E-03 3.43477E-03 2.44000E-02
      631  1.02613E-06 2.33914E-06-1.00000E-03 0.00000E+00 0.00000E+00 0.00000E+00 0.00000E+00 0.00000E+00 0.00000E+00 7.55453E-03 3.10054E-03 2.44000E-02
      632  1.24711E-06 2.46450E-06-1.00000E-03 0.00000E+00 0.00000E+00 0.00000E+00 0.00000E+00 0.00000E+00 0.00000E+00 6.41935E-03 6.41336E-03 2.44000E-02
      635  1.06100E-06 2.45921E-06-1.00000E-03 0.00000E+00 0.00000E+00 0.00000E+00 0.00000E+00 0.00000E+00 0.00000E+00 5.77646E-03 5.77306E-03 2.44000E-02
      636  6.43352E-07 2.48894E-06-1.00000E-03 0.00000E+00 0.00000E+00 0.00000E+00 0.00000E+00 0.00000E+00 0.00000E+00 3.43984E-03 8.39669E-03 2.44000E-02
      639  5.71857E-07 2.55382E-06-1.00000E-03 0.00000E+00 0.00000E+00 0.00000E+00 0.00000E+00 0.00000E+00 0.00000E+00 3.10327E-03 7.55425E-03 2.44000E-02
      640  0.00000E+00 4.74616E-06-1.00000E-03 0.00000E+00 0.00000E+00 0.00000E+00 0.00000E+00 0.00000E+00 0.00000E+00 5.55500E-19 9.07615E-03 2.44000E-02
      643  0.00000E+00 5.09673E-06-1.00000E-03 0.00000E+00 0.00000E+00 0.00000E+00 0.00000E+00 0.00000E+00 0.00000E+00 4.99900E-19 8.16940E-03 2.44000E-02
      692  1.20782E-06 2.39230E-06-1.00000E-03 0.00000E+00 0.00000E+00 0.00000E+00 0.00000E+00 0.00000E+00 0.00000E+00 9.24151E-03 3.76899E-03 2.44000E-02
      694  1.41119E-06 2.43380E-06-1.00000E-03 0.00000E+00 0.00000E+00 0.00000E+00 0.00000E+00 0.00000E+00 0.00000E+00 7.06211E-03 7.05353E-03 2.44000E-02
      696  7.08478E-07 2.48983E-06-1.00000E-03 0.00000E+00 0.00000E+00 0.00000E+00 0.00000E+00 0.00000E+00 0.00000E+00 3.77641E-03 9.23909E-03 2.44000E-02
      698  0.00000E+00 4.42756E-06-1.00000E-03 0.00000E+00 0.00000E+00 0.00000E+00 0.00000E+00 0.00000E+00 0.00000E+00 6.11000E-19 9.98303E-03 2.44000E-02
      900  1.40931E-06 2.18834E-06-1.00000E-03 0.00000E+00 0.00000E+00 0.00000E+00 0.00000E+00 0.00000E+00 0.00000E+00 1.09285E-02 4.43719E-03 2.44000E-02
      902  1.32777E-06 2.34132E-06-1.00000E-03 0.00000E+00 0.00000E+00 0.00000E+00 0.00000E+00 0.00000E+00 0.00000E+00 1.00850E-02 4.10314E-03 2.44000E-02
      903  1.77295E-06 2.46125E-06-1.00000E-03 0.00000E+00 0.00000E+00 0.00000E+00 0.00000E+00 0.00000E+00 0.00000E+00 8.34787E-03 8.33406E-03 2.44000E-02
      905  1.58011E-06 2.43758E-06-1.00000E-03 0.00000E+00 0.00000E+00 0.00000E+00 0.00000E+00 0.00000E+00 0.00000E+00 7.70498E-03 7.69374E-03 2.44000E-02
      906  6.16003E-07 2.64571E-06-1.00000E-03 0.00000E+00 0.00000E+00 0.00000E+00 0.00000E+00 0.00000E+00 0.00000E+00 4.44932E-03 1.09241E-02 2.44000E-02
      908  7.08025E-07 2.48395E-06-1.00000E-03 0.00000E+00 0.00000E+00 0.00000E+00 0.00000E+00 0.00000E+00 0.00000E+00 4.11291E-03 1.00816E-02 2.44000E-02
      909  0.00000E+00 4.45112E-06-1.00000E-03 0.00000E+00 0.00000E+00 0.00000E+00 0.00000E+00 0.00000E+00 0.00000E+00 7.22100E-19 1.17974E-02 2.44000E-02
      911  0.00000E+00 4.33675E-06-1.00000E-03 0.00000E+00 0.00000E+00 0.00000E+00 0.00000E+00 0.00000E+00 0.00000E+00 6.66600E-19 1.08900E-02 2.44000E-02
     1012  9.56028E-07 2.27249E-06-1.00000E-03 0.00000E+00 0.00000E+00 0.00000E+00 0.00000E+00 0.00000E+00 0.00000E+00 6.71106E-03 2.76627E-03 2.44000E-02
     1013  9.33742E-07 2.46690E-06-1.00000E-03 0.00000E+00 0.00000E+00 0.00000E+00 0.00000E+00 0.00000E+00 0.00000E+00 5.13373E-03 5.13287E-03 2.44000E-02
     1014  5.06103E-07 2.59872E-06-1.00000E-03 0.00000E+00 0.00000E+00 0.00000E+00 0.00000E+00 0.00000E+00 0.00000E+00 2.76671E-03 6.71180E-03 2.44000E-02
     1015  0.00000E+00 5.43983E-06-1.00000E-03 0.00000E+00 0.00000E+00 0.00000E+00 0.00000E+00 0.00000E+00 0.00000E+00 4.44400E-19 7.26254E-03 2.44000E-02
     1060  1.11378E-06 1.88032E-06-1.00000E-03 0.00000E+00 0.00000E+00 0.00000E+00 0.00000E+00 0.00000E+00 0.00000E+00 1.17716E-02 4.77108E-03 2.44000E-02
     1061  1.13118E-06 2.42023E-06-1.00000E-03 0.00000E+00 0.00000E+00 0.00000E+00 0.00000E+00 0.00000E+00 0.00000E+00 8.98983E-03 8.97422E-03 2.44000E-02
     1062  7.94905E-07 3.20662E-06-1.00000E-03 0.00000E+00 0.00000E+00 0.00000E+00 0.00000E+00 0.00000E+00 0.00000E+00 4.78599E-03 1.17672E-02 2.44000E-02
     1063  0.00000E+00 4.98039E-06-1.00000E-03 0.00000E+00 0.00000E+00 0.00000E+00 0.00000E+00 0.00000E+00 0.00000E+00 7.77700E-19 1.27050E-02 2.44000E-02
