 LS-DYNA keyword deck by LS-PrePost                                      
                    ls-dyna smp d R14 R14.1.1s_1_ef50e1 date 06/16/2024

 n o d a l   f o r c e/e n e r g y    o u t p u t  t=   0.00000E+00

 velocity boundary condition forces/rigid body moments 

 nd#     179  xforce=   0.0000E+00   yforce=   0.0000E+00  zforce=   0.0000E+00   energy=   0.0000E+00   setid =     179 xmoment=   0.0000E+00 ymoment=   0.0000E+00 zmoment=   0.0000E+00
 nd#     180  xforce=   0.0000E+00   yforce=   0.0000E+00  zforce=   0.0000E+00   energy=   0.0000E+00   setid =     180 xmoment=   0.0000E+00 ymoment=   0.0000E+00 zmoment=   0.0000E+00
 nd#     181  xforce=   0.0000E+00   yforce=   0.0000E+00  zforce=   0.0000E+00   energy=   0.0000E+00   setid =     181 xmoment=   0.0000E+00 ymoment=   0.0000E+00 zmoment=   0.0000E+00
 nd#     182  xforce=   0.0000E+00   yforce=   0.0000E+00  zforce=   0.0000E+00   energy=   0.0000E+00   setid =     182 xmoment=   0.0000E+00 ymoment=   0.0000E+00 zmoment=   0.0000E+00
 nd#     248  xforce=   0.0000E+00   yforce=   0.0000E+00  zforce=   0.0000E+00   energy=   0.0000E+00   setid =     248 xmoment=   0.0000E+00 ymoment=   0.0000E+00 zmoment=   0.0000E+00
 nd#     284  xforce=   0.0000E+00   yforce=   0.0000E+00  zforce=   0.0000E+00   energy=   0.0000E+00   setid =     284 xmoment=   0.0000E+00 ymoment=   0.0000E+00 zmoment=   0.0000E+00
 nd#     333  xforce=   0.0000E+00   yforce=   0.0000E+00  zforce=   0.0000E+00   energy=   0.0000E+00   setid =     333 xmoment=   0.0000E+00 ymoment=   0.0000E+00 zmoment=   0.0000E+00
 nd#     334  xforce=   0.0000E+00   yforce=   0.0000E+00  zforce=   0.0000E+00   energy=   0.0000E+00   setid =     334 xmoment=   0.0000E+00 ymoment=   0.0000E+00 zmoment=   0.0000E+00
 nd#     335  xforce=   0.0000E+00   yforce=   0.0000E+00  zforce=   0.0000E+00   energy=   0.0000E+00   setid =     335 xmoment=   0.0000E+00 ymoment=   0.0000E+00 zmoment=   0.0000E+00
 nd#     436  xforce=   0.0000E+00   yforce=   0.0000E+00  zforce=   0.0000E+00   energy=   0.0000E+00   setid =     436 xmoment=   0.0000E+00 ymoment=   0.0000E+00 zmoment=   0.0000E+00
 nd#     628  xforce=   0.0000E+00   yforce=   0.0000E+00  zforce=   0.0000E+00   energy=   0.0000E+00   setid =     628 xmoment=   0.0000E+00 ymoment=   0.0000E+00 zmoment=   0.0000E+00
 nd#     631  xforce=   0.0000E+00   yforce=   0.0000E+00  zforce=   0.0000E+00   energy=   0.0000E+00   setid =     631 xmoment=   0.0000E+00 ymoment=   0.0000E+00 zmoment=   0.0000E+00
 nd#     632  xforce=   0.0000E+00   yforce=   0.0000E+00  zforce=   0.0000E+00   energy=   0.0000E+00   setid =     632 xmoment=   0.0000E+00 ymoment=   0.0000E+00 zmoment=   0.0000E+00
 nd#     635  xforce=   0.0000E+00   yforce=   0.0000E+00  zforce=   0.0000E+00   energy=   0.0000E+00   setid =     635 xmoment=   0.0000E+00 ymoment=   0.0000E+00 zmoment=   0.0000E+00
 nd#     636  xforce=   0.0000E+00   yforce=   0.0000E+00  zforce=   0.0000E+00   energy=   0.0000E+00   setid =     636 xmoment=   0.0000E+00 ymoment=   0.0000E+00 zmoment=   0.0000E+00
 nd#     639  xforce=   0.0000E+00   yforce=   0.0000E+00  zforce=   0.0000E+00   energy=   0.0000E+00   setid =     639 xmoment=   0.0000E+00 ymoment=   0.0000E+00 zmoment=   0.0000E+00
 nd#     692  xforce=   0.0000E+00   yforce=   0.0000E+00  zforce=   0.0000E+00   energy=   0.0000E+00   setid =     692 xmoment=   0.0000E+00 ymoment=   0.0000E+00 zmoment=   0.0000E+00
 nd#     694  xforce=   0.0000E+00   yforce=   0.0000E+00  zforce=   0.0000E+00   energy=   0.0000E+00   setid =     694 xmoment=   0.0000E+00 ymoment=   0.0000E+00 zmoment=   0.0000E+00
 nd#     696  xforce=   0.0000E+00   yforce=   0.0000E+00  zforce=   0.0000E+00   energy=   0.0000E+00   setid =     696 xmoment=   0.0000E+00 ymoment=   0.0000E+00 zmoment=   0.0000E+00
 nd#     900  xforce=   0.0000E+00   yforce=   0.0000E+00  zforce=   0.0000E+00   energy=   0.0000E+00   setid =     900 xmoment=   0.0000E+00 ymoment=   0.0000E+00 zmoment=   0.0000E+00
 nd#     902  xforce=   0.0000E+00   yforce=   0.0000E+00  zforce=   0.0000E+00   energy=   0.0000E+00   setid =     902 xmoment=   0.0000E+00 ymoment=   0.0000E+00 zmoment=   0.0000E+00
 nd#     903  xforce=   0.0000E+00   yforce=   0.0000E+00  zforce=   0.0000E+00   energy=   0.0000E+00   setid =     903 xmoment=   0.0000E+00 ymoment=   0.0000E+00 zmoment=   0.0000E+00
 nd#     905  xforce=   0.0000E+00   yforce=   0.0000E+00  zforce=   0.0000E+00   energy=   0.0000E+00   setid =     905 xmoment=   0.0000E+00 ymoment=   0.0000E+00 zmoment=   0.0000E+00
 nd#     906  xforce=   0.0000E+00   yforce=   0.0000E+00  zforce=   0.0000E+00   energy=   0.0000E+00   setid =     906 xmoment=   0.0000E+00 ymoment=   0.0000E+00 zmoment=   0.0000E+00
 nd#     908  xforce=   0.0000E+00   yforce=   0.0000E+00  zforce=   0.0000E+00   energy=   0.0000E+00   setid =     908 xmoment=   0.0000E+00 ymoment=   0.0000E+00 zmoment=   0.0000E+00
 nd#    1012  xforce=   0.0000E+00   yforce=   0.0000E+00  zforce=   0.0000E+00   energy=   0.0000E+00   setid =    1012 xmoment=   0.0000E+00 ymoment=   0.0000E+00 zmoment=   0.0000E+00
 nd#    1013  xforce=   0.0000E+00   yforce=   0.0000E+00  zforce=   0.0000E+00   energy=   0.0000E+00   setid =    1013 xmoment=   0.0000E+00 ymoment=   0.0000E+00 zmoment=   0.0000E+00
 nd#    1014  xforce=   0.0000E+00   yforce=   0.0000E+00  zforce=   0.0000E+00   energy=   0.0000E+00   setid =    1014 xmoment=   0.0000E+00 ymoment=   0.0000E+00 zmoment=   0.0000E+00
 nd#    1060  xforce=   0.0000E+00   yforce=   0.0000E+00  zforce=   0.0000E+00   energy=   0.0000E+00   setid =    1060 xmoment=   0.0000E+00 ymoment=   0.0000E+00 zmoment=   0.0000E+00
 nd#    1061  xforce=   0.0000E+00   yforce=   0.0000E+00  zforce=   0.0000E+00   energy=   0.0000E+00   setid =    1061 xmoment=   0.0000E+00 ymoment=   0.0000E+00 zmoment=   0.0000E+00
 nd#    1062  xforce=   0.0000E+00   yforce=   0.0000E+00  zforce=   0.0000E+00   energy=   0.0000E+00   setid =    1062 xmoment=   0.0000E+00 ymoment=   0.0000E+00 zmoment=   0.0000E+00
              xtotal=   0.0000E+00   ytotal=   0.0000E+00  ztotal=   0.0000E+00   etotal=   0.0000E+00

 n o d a l   f o r c e/e n e r g y    o u t p u t  t=   1.29245E+00

 velocity boundary condition forces/rigid body moments 

 nd#     179  xforce=   0.0000E+00   yforce=   0.0000E+00  zforce=  -5.3957E+01   energy=   6.3307E-04   setid =     179 xmoment=   0.0000E+00 ymoment=   0.0000E+00 zmoment=   0.0000E+00
 nd#     180  xforce=   0.0000E+00   yforce=   0.0000E+00  zforce=  -6.1305E+01   energy=   7.8691E-04   setid =     180 xmoment=   0.0000E+00 ymoment=   0.0000E+00 zmoment=   0.0000E+00
 nd#     181  xforce=   0.0000E+00   yforce=   0.0000E+00  zforce=  -7.8108E+01   energy=   1.0182E-03   setid =     181 xmoment=   0.0000E+00 ymoment=   0.0000E+00 zmoment=   0.0000E+00
 nd#     182  xforce=   0.0000E+00   yforce=   0.0000E+00  zforce=  -9.6728E+01   energy=   1.1297E-03   setid =     182 xmoment=   0.0000E+00 ymoment=   0.0000E+00 zmoment=   0.0000E+00
 nd#     248  xforce=   0.0000E+00   yforce=   0.0000E+00  zforce=  -8.8854E+01   energy=   1.1258E-03   setid =     248 xmoment=   0.0000E+00 ymoment=   0.0000E+00 zmoment=   0.0000E+00
 nd#     284  xforce=   0.0000E+00   yforce=   0.0000E+00  zforce=  -1.2110E+02   energy=   1.3522E-03   setid =     284 xmoment=   0.0000E+00 ymoment=   0.0000E+00 zmoment=   0.0000E+00
 nd#     333  xforce=   0.0000E+00   yforce=   0.0000E+00  zforce=  -8.0241E+01   energy=   9.9806E-04   setid =     333 xmoment=   0.0000E+00 ymoment=   0.0000E+00 zmoment=   0.0000E+00
 nd#     334  xforce=   0.0000E+00   yforce=   0.0000E+00  zforce=  -4.1864E+01   energy=   5.5245E-04   setid =     334 xmoment=   0.0000E+00 ymoment=   0.0000E+00 zmoment=   0.0000E+00
 nd#     335  xforce=   0.0000E+00   yforce=   0.0000E+00  zforce=  -7.3255E+01   energy=   9.8754E-04   setid =     335 xmoment=   0.0000E+00 ymoment=   0.0000E+00 zmoment=   0.0000E+00
 nd#     436  xforce=   0.0000E+00   yforce=   0.0000E+00  zforce=  -8.9750E+01   energy=   1.0046E-03   setid =     436 xmoment=   0.0000E+00 ymoment=   0.0000E+00 zmoment=   0.0000E+00
 nd#     628  xforce=   0.0000E+00   yforce=   0.0000E+00  zforce=  -1.0401E+02   energy=   1.3152E-03   setid =     628 xmoment=   0.0000E+00 ymoment=   0.0000E+00 zmoment=   0.0000E+00
 nd#     631  xforce=   0.0000E+00   yforce=   0.0000E+00  zforce=  -9.2807E+01   energy=   1.2123E-03   setid =     631 xmoment=   0.0000E+00 ymoment=   0.0000E+00 zmoment=   0.0000E+00
 nd#     632  xforce=   0.0000E+00   yforce=   0.0000E+00  zforce=  -4.8610E+01   energy=   6.7509E-04   setid =     632 xmoment=   0.0000E+00 ymoment=   0.0000E+00 zmoment=   0.0000E+00
 nd#     635  xforce=   0.0000E+00   yforce=   0.0000E+00  zforce=  -5.4260E+01   energy=   7.2739E-04   setid =     635 xmoment=   0.0000E+00 ymoment=   0.0000E+00 zmoment=   0.0000E+00
 nd#     636  xforce=   0.0000E+00   yforce=   0.0000E+00  zforce=  -6.3902E+01   energy=   7.6277E-04   setid =     636 xmoment=   0.0000E+00 ymoment=   0.0000E+00 zmoment=   0.0000E+00
 nd#     639  xforce=   0.0000E+00   yforce=   0.0000E+00  zforce=  -1.2533E+02   energy=   1.4536E-03   setid =     639 xmoment=   0.0000E+00 ymoment=   0.0000E+00 zmoment=   0.0000E+00
 nd#     692  xforce=   0.0000E+00   yforce=   0.0000E+00  zforce=  -1.4887E+02   energy=   1.7618E-03   setid =     692 xmoment=   0.0000E+00 ymoment=   0.0000E+00 zmoment=   0.0000E+00
 nd#     694  xforce=   0.0000E+00   yforce=   0.0000E+00  zforce=  -7.0497E+01   energy=   1.0407E-03   setid =     694 xmoment=   0.0000E+00 ymoment=   0.0000E+00 zmoment=   0.0000E+00
 nd#     696  xforce=   0.0000E+00   yforce=   0.0000E+00  zforce=  -7.9044E+01   energy=   9.4630E-04   setid =     696 xmoment=   0.0000E+00 ymoment=   0.0000E+00 zmoment=   0.0000E+00
 nd#     900  xforce=   0.0000E+00   yforce=   0.0000E+00  zforce=  -5.9542E+01   energy=   7.8225E-04   setid =     900 xmoment=   0.0000E+00 ymoment=   0.0000E+00 zmoment=   0.0000E+00
 nd#     902  xforce=   0.0000E+00   yforce=   0.0000E+00  zforce=  -9.7855E+01   energy=   1.4272E-03   setid =     902 xmoment=   0.0000E+00 ymoment=   0.0000E+00 zmoment=   0.0000E+00
 nd#     903  xforce=   0.0000E+00   yforce=   0.0000E+00  zforce=  -1.3825E+01   energy=   2.0482E-04   setid =     903 xmoment=   0.0000E+00 ymoment=   0.0000E+00 zmoment=   0.0000E+00
 nd#     905  xforce=   0.0000E+00   yforce=   0.0000E+00  zforce=  -4.3925E+01   energy=   6.8949E-04   setid =     905 xmoment=   0.0000E+00 ymoment=   0.0000E+00 zmoment=   0.0000E+00
 nd#     906  xforce=   0.0000E+00   yforce=   0.0000E+00  zforce=  -4.5372E+01   energy=   5.6982E-04   setid =     906 xmoment=   0.0000E+00 ymoment=   0.0000E+00 zmoment=   0.0000E+00
 nd#     908  xforce=   0.0000E+00   yforce=   0.0000E+00  zforce=  -1.1647E+02   energy=   1.3607E-03   setid =     908 xmoment=   0.0000E+00 ymoment=   0.0000E+00 zmoment=   0.0000E+00
 nd#    1012  xforce=   0.0000E+00   yforce=   0.0000E+00  zforce=  -1.2256E+02   energy=   1.4497E-03   setid =    1012 xmoment=   0.0000E+00 ymoment=   0.0000E+00 zmoment=   0.0000E+00
 nd#    1013  xforce=   0.0000E+00   yforce=   0.0000E+00  zforce=  -7.5449E+01   energy=   1.0057E-03   setid =    1013 xmoment=   0.0000E+00 ymoment=   0.0000E+00 zmoment=   0.0000E+00
 nd#    1014  xforce=   0.0000E+00   yforce=   0.0000E+00  zforce=  -1.3180E+02   energy=   1.5298E-03   setid =    1014 xmoment=   0.0000E+00 ymoment=   0.0000E+00 zmoment=   0.0000E+00
 nd#    1060  xforce=   0.0000E+00   yforce=   0.0000E+00  zforce=  -4.3627E+01   energy=   5.0173E-04   setid =    1060 xmoment=   0.0000E+00 ymoment=   0.0000E+00 zmoment=   0.0000E+00
 nd#    1061  xforce=   0.0000E+00   yforce=   0.0000E+00  zforce=  -1.1463E+01   energy=   1.1558E-04   setid =    1061 xmoment=   0.0000E+00 ymoment=   0.0000E+00 zmoment=   0.0000E+00
 nd#    1062  xforce=   0.0000E+00   yforce=   0.0000E+00  zforce=   7.0318E+00   energy=  -3.5150E-04   setid =    1062 xmoment=   0.0000E+00 ymoment=   0.0000E+00 zmoment=   0.0000E+00
              xtotal=   0.0000E+00   ytotal=   0.0000E+00  ztotal=  -2.3273E+03   etotal=   2.8769E-02

 n o d a l   f o r c e/e n e r g y    o u t p u t  t=   2.54839E+00

 velocity boundary condition forces/rigid body moments 

 nd#     179  xforce=   0.0000E+00   yforce=   0.0000E+00  zforce=  -1.5831E+02   energy=   3.2990E-03   setid =     179 xmoment=   0.0000E+00 ymoment=   0.0000E+00 zmoment=   0.0000E+00
 nd#     180  xforce=   0.0000E+00   yforce=   0.0000E+00  zforce=  -1.8422E+02   energy=   3.8705E-03   setid =     180 xmoment=   0.0000E+00 ymoment=   0.0000E+00 zmoment=   0.0000E+00
 nd#     181  xforce=   0.0000E+00   yforce=   0.0000E+00  zforce=  -1.6242E+01   energy=   2.2031E-03   setid =     181 xmoment=   0.0000E+00 ymoment=   0.0000E+00 zmoment=   0.0000E+00
 nd#     182  xforce=   0.0000E+00   yforce=   0.0000E+00  zforce=  -1.3866E+02   energy=   4.0861E-03   setid =     182 xmoment=   0.0000E+00 ymoment=   0.0000E+00 zmoment=   0.0000E+00
 nd#     248  xforce=   0.0000E+00   yforce=   0.0000E+00  zforce=  -6.1559E+01   energy=   3.0149E-03   setid =     248 xmoment=   0.0000E+00 ymoment=   0.0000E+00 zmoment=   0.0000E+00
 nd#     284  xforce=   0.0000E+00   yforce=   0.0000E+00  zforce=   1.2345E+02   energy=   1.3228E-03   setid =     284 xmoment=   0.0000E+00 ymoment=   0.0000E+00 zmoment=   0.0000E+00
 nd#     333  xforce=   0.0000E+00   yforce=   0.0000E+00  zforce=  -1.1132E+02   energy=   3.4040E-03   setid =     333 xmoment=   0.0000E+00 ymoment=   0.0000E+00 zmoment=   0.0000E+00
 nd#     334  xforce=   0.0000E+00   yforce=   0.0000E+00  zforce=  -1.0402E+02   energy=   2.3847E-03   setid =     334 xmoment=   0.0000E+00 ymoment=   0.0000E+00 zmoment=   0.0000E+00
 nd#     335  xforce=   0.0000E+00   yforce=   0.0000E+00  zforce=  -7.4698E+01   energy=   2.8457E-03   setid =     335 xmoment=   0.0000E+00 ymoment=   0.0000E+00 zmoment=   0.0000E+00
 nd#     436  xforce=   0.0000E+00   yforce=   0.0000E+00  zforce=  -1.4644E+02   energy=   3.9710E-03   setid =     436 xmoment=   0.0000E+00 ymoment=   0.0000E+00 zmoment=   0.0000E+00
 nd#     628  xforce=   0.0000E+00   yforce=   0.0000E+00  zforce=  -1.0065E+02   energy=   3.8856E-03   setid =     628 xmoment=   0.0000E+00 ymoment=   0.0000E+00 zmoment=   0.0000E+00
 nd#     631  xforce=   0.0000E+00   yforce=   0.0000E+00  zforce=  -1.1511E+02   energy=   3.8237E-03   setid =     631 xmoment=   0.0000E+00 ymoment=   0.0000E+00 zmoment=   0.0000E+00
 nd#     632  xforce=   0.0000E+00   yforce=   0.0000E+00  zforce=  -7.8896E+01   energy=   2.2765E-03   setid =     632 xmoment=   0.0000E+00 ymoment=   0.0000E+00 zmoment=   0.0000E+00
 nd#     635  xforce=   0.0000E+00   yforce=   0.0000E+00  zforce=  -8.0329E+01   energy=   2.4177E-03   setid =     635 xmoment=   0.0000E+00 ymoment=   0.0000E+00 zmoment=   0.0000E+00
 nd#     636  xforce=   0.0000E+00   yforce=   0.0000E+00  zforce=  -1.1680E+02   energy=   3.0323E-03   setid =     636 xmoment=   0.0000E+00 ymoment=   0.0000E+00 zmoment=   0.0000E+00
 nd#     639  xforce=   0.0000E+00   yforce=   0.0000E+00  zforce=  -1.2195E+02   energy=   4.5594E-03   setid =     639 xmoment=   0.0000E+00 ymoment=   0.0000E+00 zmoment=   0.0000E+00
 nd#     692  xforce=   0.0000E+00   yforce=   0.0000E+00  zforce=  -1.3256E+02   energy=   5.2964E-03   setid =     692 xmoment=   0.0000E+00 ymoment=   0.0000E+00 zmoment=   0.0000E+00
 nd#     694  xforce=   0.0000E+00   yforce=   0.0000E+00  zforce=  -1.0430E+02   energy=   3.2361E-03   setid =     694 xmoment=   0.0000E+00 ymoment=   0.0000E+00 zmoment=   0.0000E+00
 nd#     696  xforce=   0.0000E+00   yforce=   0.0000E+00  zforce=  -1.1374E+02   energy=   3.3675E-03   setid =     696 xmoment=   0.0000E+00 ymoment=   0.0000E+00 zmoment=   0.0000E+00
 nd#     900  xforce=   0.0000E+00   yforce=   0.0000E+00  zforce=  -8.4569E+01   energy=   2.5922E-03   setid =     900 xmoment=   0.0000E+00 ymoment=   0.0000E+00 zmoment=   0.0000E+00
 nd#     902  xforce=   0.0000E+00   yforce=   0.0000E+00  zforce=  -1.2070E+02   energy=   4.1722E-03   setid =     902 xmoment=   0.0000E+00 ymoment=   0.0000E+00 zmoment=   0.0000E+00
 nd#     903  xforce=   0.0000E+00   yforce=   0.0000E+00  zforce=  -3.9099E+01   energy=   8.6952E-04   setid =     903 xmoment=   0.0000E+00 ymoment=   0.0000E+00 zmoment=   0.0000E+00
 nd#     905  xforce=   0.0000E+00   yforce=   0.0000E+00  zforce=  -6.8613E+01   energy=   2.1029E-03   setid =     905 xmoment=   0.0000E+00 ymoment=   0.0000E+00 zmoment=   0.0000E+00
 nd#     906  xforce=   0.0000E+00   yforce=   0.0000E+00  zforce=  -5.2673E+01   energy=   1.8012E-03   setid =     906 xmoment=   0.0000E+00 ymoment=   0.0000E+00 zmoment=   0.0000E+00
 nd#     908  xforce=   0.0000E+00   yforce=   0.0000E+00  zforce=  -1.0514E+02   energy=   4.1439E-03   setid =     908 xmoment=   0.0000E+00 ymoment=   0.0000E+00 zmoment=   0.0000E+00
 nd#    1012  xforce=   0.0000E+00   yforce=   0.0000E+00  zforce=  -9.8056E+01   energy=   4.2205E-03   setid =    1012 xmoment=   0.0000E+00 ymoment=   0.0000E+00 zmoment=   0.0000E+00
 nd#    1013  xforce=   0.0000E+00   yforce=   0.0000E+00  zforce=  -1.0453E+02   energy=   3.2662E-03   setid =    1013 xmoment=   0.0000E+00 ymoment=   0.0000E+00 zmoment=   0.0000E+00
 nd#    1014  xforce=   0.0000E+00   yforce=   0.0000E+00  zforce=  -1.3735E+02   energy=   4.9101E-03   setid =    1014 xmoment=   0.0000E+00 ymoment=   0.0000E+00 zmoment=   0.0000E+00
 nd#    1060  xforce=   0.0000E+00   yforce=   0.0000E+00  zforce=  -1.4413E+01   energy=   1.2307E-03   setid =    1060 xmoment=   0.0000E+00 ymoment=   0.0000E+00 zmoment=   0.0000E+00
 nd#    1061  xforce=   0.0000E+00   yforce=   0.0000E+00  zforce=   2.8475E+01   energy=  -9.8075E-05   setid =    1061 xmoment=   0.0000E+00 ymoment=   0.0000E+00 zmoment=   0.0000E+00
 nd#    1062  xforce=   0.0000E+00   yforce=   0.0000E+00  zforce=  -1.0220E+02   energy=   8.4380E-04   setid =    1062 xmoment=   0.0000E+00 ymoment=   0.0000E+00 zmoment=   0.0000E+00
              xtotal=   0.0000E+00   ytotal=   0.0000E+00  ztotal=  -2.7352E+03   etotal=   9.2352E-02

 n o d a l   f o r c e/e n e r g y    o u t p u t  t=   3.17785E+00

 velocity boundary condition forces/rigid body moments 

 nd#     179  xforce=   0.0000E+00   yforce=   0.0000E+00  zforce=  -1.5591E+02   energy=   5.2769E-03   setid =     179 xmoment=   0.0000E+00 ymoment=   0.0000E+00 zmoment=   0.0000E+00
 nd#     180  xforce=   0.0000E+00   yforce=   0.0000E+00  zforce=  -2.0692E+02   energy=   6.3326E-03   setid =     180 xmoment=   0.0000E+00 ymoment=   0.0000E+00 zmoment=   0.0000E+00
 nd#     181  xforce=   0.0000E+00   yforce=   0.0000E+00  zforce=  -5.5902E+01   energy=   2.6573E-03   setid =     181 xmoment=   0.0000E+00 ymoment=   0.0000E+00 zmoment=   0.0000E+00
 nd#     182  xforce=   0.0000E+00   yforce=   0.0000E+00  zforce=  -1.0151E+02   energy=   5.5979E-03   setid =     182 xmoment=   0.0000E+00 ymoment=   0.0000E+00 zmoment=   0.0000E+00
 nd#     248  xforce=   0.0000E+00   yforce=   0.0000E+00  zforce=  -1.3362E+02   energy=   4.2435E-03   setid =     248 xmoment=   0.0000E+00 ymoment=   0.0000E+00 zmoment=   0.0000E+00
 nd#     284  xforce=   0.0000E+00   yforce=   0.0000E+00  zforce=   1.4868E+02   energy=  -3.9010E-04   setid =     284 xmoment=   0.0000E+00 ymoment=   0.0000E+00 zmoment=   0.0000E+00
 nd#     333  xforce=   0.0000E+00   yforce=   0.0000E+00  zforce=  -8.2119E+01   energy=   4.6216E-03   setid =     333 xmoment=   0.0000E+00 ymoment=   0.0000E+00 zmoment=   0.0000E+00
 nd#     334  xforce=   0.0000E+00   yforce=   0.0000E+00  zforce=  -7.0521E+01   energy=   3.4833E-03   setid =     334 xmoment=   0.0000E+00 ymoment=   0.0000E+00 zmoment=   0.0000E+00
 nd#     335  xforce=   0.0000E+00   yforce=   0.0000E+00  zforce=  -1.0925E+02   energy=   4.0036E-03   setid =     335 xmoment=   0.0000E+00 ymoment=   0.0000E+00 zmoment=   0.0000E+00
 nd#     436  xforce=   0.0000E+00   yforce=   0.0000E+00  zforce=  -1.3262E+02   energy=   5.7276E-03   setid =     436 xmoment=   0.0000E+00 ymoment=   0.0000E+00 zmoment=   0.0000E+00
 nd#     628  xforce=   0.0000E+00   yforce=   0.0000E+00  zforce=  -1.1640E+02   energy=   5.2519E-03   setid =     628 xmoment=   0.0000E+00 ymoment=   0.0000E+00 zmoment=   0.0000E+00
 nd#     631  xforce=   0.0000E+00   yforce=   0.0000E+00  zforce=  -1.1711E+02   energy=   5.2854E-03   setid =     631 xmoment=   0.0000E+00 ymoment=   0.0000E+00 zmoment=   0.0000E+00
 nd#     632  xforce=   0.0000E+00   yforce=   0.0000E+00  zforce=  -7.7337E+01   energy=   3.2599E-03   setid =     632 xmoment=   0.0000E+00 ymoment=   0.0000E+00 zmoment=   0.0000E+00
 nd#     635  xforce=   0.0000E+00   yforce=   0.0000E+00  zforce=  -7.9862E+01   energy=   3.4261E-03   setid =     635 xmoment=   0.0000E+00 ymoment=   0.0000E+00 zmoment=   0.0000E+00
 nd#     636  xforce=   0.0000E+00   yforce=   0.0000E+00  zforce=  -1.3811E+02   energy=   4.6368E-03   setid =     636 xmoment=   0.0000E+00 ymoment=   0.0000E+00 zmoment=   0.0000E+00
 nd#     639  xforce=   0.0000E+00   yforce=   0.0000E+00  zforce=  -1.3478E+02   energy=   6.1754E-03   setid =     639 xmoment=   0.0000E+00 ymoment=   0.0000E+00 zmoment=   0.0000E+00
 nd#     692  xforce=   0.0000E+00   yforce=   0.0000E+00  zforce=  -1.2369E+02   energy=   6.9094E-03   setid =     692 xmoment=   0.0000E+00 ymoment=   0.0000E+00 zmoment=   0.0000E+00
 nd#     694  xforce=   0.0000E+00   yforce=   0.0000E+00  zforce=  -9.2666E+01   energy=   4.4760E-03   setid =     694 xmoment=   0.0000E+00 ymoment=   0.0000E+00 zmoment=   0.0000E+00
 nd#     696  xforce=   0.0000E+00   yforce=   0.0000E+00  zforce=  -1.2671E+02   energy=   4.8810E-03   setid =     696 xmoment=   0.0000E+00 ymoment=   0.0000E+00 zmoment=   0.0000E+00
 nd#     900  xforce=   0.0000E+00   yforce=   0.0000E+00  zforce=  -7.5578E+01   energy=   3.6003E-03   setid =     900 xmoment=   0.0000E+00 ymoment=   0.0000E+00 zmoment=   0.0000E+00
 nd#     902  xforce=   0.0000E+00   yforce=   0.0000E+00  zforce=  -8.6728E+01   energy=   5.4779E-03   setid =     902 xmoment=   0.0000E+00 ymoment=   0.0000E+00 zmoment=   0.0000E+00
 nd#     903  xforce=   0.0000E+00   yforce=   0.0000E+00  zforce=  -1.2342E+01   energy=   1.1933E-03   setid =     903 xmoment=   0.0000E+00 ymoment=   0.0000E+00 zmoment=   0.0000E+00
 nd#     905  xforce=   0.0000E+00   yforce=   0.0000E+00  zforce=  -5.5697E+01   energy=   2.8854E-03   setid =     905 xmoment=   0.0000E+00 ymoment=   0.0000E+00 zmoment=   0.0000E+00
 nd#     906  xforce=   0.0000E+00   yforce=   0.0000E+00  zforce=  -1.8033E+02   energy=   3.2679E-03   setid =     906 xmoment=   0.0000E+00 ymoment=   0.0000E+00 zmoment=   0.0000E+00
 nd#     908  xforce=   0.0000E+00   yforce=   0.0000E+00  zforce=  -1.0709E+02   energy=   5.4798E-03   setid =     908 xmoment=   0.0000E+00 ymoment=   0.0000E+00 zmoment=   0.0000E+00
 nd#    1012  xforce=   0.0000E+00   yforce=   0.0000E+00  zforce=  -9.8475E+01   energy=   5.4576E-03   setid =    1012 xmoment=   0.0000E+00 ymoment=   0.0000E+00 zmoment=   0.0000E+00
 nd#    1013  xforce=   0.0000E+00   yforce=   0.0000E+00  zforce=  -8.5458E+01   energy=   4.4621E-03   setid =    1013 xmoment=   0.0000E+00 ymoment=   0.0000E+00 zmoment=   0.0000E+00
 nd#    1014  xforce=   0.0000E+00   yforce=   0.0000E+00  zforce=  -1.3868E+02   energy=   6.6476E-03   setid =    1014 xmoment=   0.0000E+00 ymoment=   0.0000E+00 zmoment=   0.0000E+00
 nd#    1060  xforce=   0.0000E+00   yforce=   0.0000E+00  zforce=  -7.6242E+01   energy=   1.8013E-03   setid =    1060 xmoment=   0.0000E+00 ymoment=   0.0000E+00 zmoment=   0.0000E+00
 nd#    1061  xforce=   0.0000E+00   yforce=   0.0000E+00  zforce=  -1.5031E+01   energy=  -1.8270E-04   setid =    1061 xmoment=   0.0000E+00 ymoment=   0.0000E+00 zmoment=   0.0000E+00
 nd#    1062  xforce=   0.0000E+00   yforce=   0.0000E+00  zforce=  -2.1994E+02   energy=   2.8715E-03   setid =    1062 xmoment=   0.0000E+00 ymoment=   0.0000E+00 zmoment=   0.0000E+00
              xtotal=   0.0000E+00   ytotal=   0.0000E+00  ztotal=  -3.0579E+03   etotal=   1.2882E-01

 n o d a l   f o r c e/e n e r g y    o u t p u t  t=   4.29920E+00

 velocity boundary condition forces/rigid body moments 

 nd#     179  xforce=   0.0000E+00   yforce=   0.0000E+00  zforce=  -1.4330E+02   energy=   8.3519E-03   setid =     179 xmoment=   0.0000E+00 ymoment=   0.0000E+00 zmoment=   0.0000E+00
 nd#     180  xforce=   0.0000E+00   yforce=   0.0000E+00  zforce=  -1.7648E+02   energy=   1.0256E-02   setid =     180 xmoment=   0.0000E+00 ymoment=   0.0000E+00 zmoment=   0.0000E+00
 nd#     181  xforce=   0.0000E+00   yforce=   0.0000E+00  zforce=  -2.5253E+01   energy=   3.6337E-03   setid =     181 xmoment=   0.0000E+00 ymoment=   0.0000E+00 zmoment=   0.0000E+00
 nd#     182  xforce=   0.0000E+00   yforce=   0.0000E+00  zforce=  -6.8668E+01   energy=   7.4605E-03   setid =     182 xmoment=   0.0000E+00 ymoment=   0.0000E+00 zmoment=   0.0000E+00
 nd#     248  xforce=   0.0000E+00   yforce=   0.0000E+00  zforce=  -1.0887E+02   energy=   5.9404E-03   setid =     248 xmoment=   0.0000E+00 ymoment=   0.0000E+00 zmoment=   0.0000E+00
 nd#     284  xforce=   0.0000E+00   yforce=   0.0000E+00  zforce=   1.0449E+02   energy=  -3.1226E-03   setid =     284 xmoment=   0.0000E+00 ymoment=   0.0000E+00 zmoment=   0.0000E+00
 nd#     333  xforce=   0.0000E+00   yforce=   0.0000E+00  zforce=  -1.4434E+02   energy=   6.9033E-03   setid =     333 xmoment=   0.0000E+00 ymoment=   0.0000E+00 zmoment=   0.0000E+00
 nd#     334  xforce=   0.0000E+00   yforce=   0.0000E+00  zforce=  -3.7640E+01   energy=   4.8554E-03   setid =     334 xmoment=   0.0000E+00 ymoment=   0.0000E+00 zmoment=   0.0000E+00
 nd#     335  xforce=   0.0000E+00   yforce=   0.0000E+00  zforce=  -1.7289E+02   energy=   6.9811E-03   setid =     335 xmoment=   0.0000E+00 ymoment=   0.0000E+00 zmoment=   0.0000E+00
 nd#     436  xforce=   0.0000E+00   yforce=   0.0000E+00  zforce=  -1.2590E+02   energy=   8.4194E-03   setid =     436 xmoment=   0.0000E+00 ymoment=   0.0000E+00 zmoment=   0.0000E+00
 nd#     628  xforce=   0.0000E+00   yforce=   0.0000E+00  zforce=  -1.1690E+02   energy=   7.4794E-03   setid =     628 xmoment=   0.0000E+00 ymoment=   0.0000E+00 zmoment=   0.0000E+00
 nd#     631  xforce=   0.0000E+00   yforce=   0.0000E+00  zforce=  -9.2646E+01   energy=   7.5179E-03   setid =     631 xmoment=   0.0000E+00 ymoment=   0.0000E+00 zmoment=   0.0000E+00
 nd#     632  xforce=   0.0000E+00   yforce=   0.0000E+00  zforce=  -1.4840E+02   energy=   5.3670E-03   setid =     632 xmoment=   0.0000E+00 ymoment=   0.0000E+00 zmoment=   0.0000E+00
 nd#     635  xforce=   0.0000E+00   yforce=   0.0000E+00  zforce=  -1.4574E+02   energy=   5.5851E-03   setid =     635 xmoment=   0.0000E+00 ymoment=   0.0000E+00 zmoment=   0.0000E+00
 nd#     636  xforce=   0.0000E+00   yforce=   0.0000E+00  zforce=  -2.4152E+02   energy=   8.4341E-03   setid =     636 xmoment=   0.0000E+00 ymoment=   0.0000E+00 zmoment=   0.0000E+00
 nd#     639  xforce=   0.0000E+00   yforce=   0.0000E+00  zforce=  -1.9457E+02   energy=   9.7053E-03   setid =     639 xmoment=   0.0000E+00 ymoment=   0.0000E+00 zmoment=   0.0000E+00
 nd#     692  xforce=   0.0000E+00   yforce=   0.0000E+00  zforce=  -1.2746E+02   energy=   9.4787E-03   setid =     692 xmoment=   0.0000E+00 ymoment=   0.0000E+00 zmoment=   0.0000E+00
 nd#     694  xforce=   0.0000E+00   yforce=   0.0000E+00  zforce=  -1.4662E+02   energy=   6.7248E-03   setid =     694 xmoment=   0.0000E+00 ymoment=   0.0000E+00 zmoment=   0.0000E+00
 nd#     696  xforce=   0.0000E+00   yforce=   0.0000E+00  zforce=  -1.9460E+02   energy=   8.3096E-03   setid =     696 xmoment=   0.0000E+00 ymoment=   0.0000E+00 zmoment=   0.0000E+00
 nd#     900  xforce=   0.0000E+00   yforce=   0.0000E+00  zforce=  -4.5541E-01   energy=   5.0458E-03   setid =     900 xmoment=   0.0000E+00 ymoment=   0.0000E+00 zmoment=   0.0000E+00
 nd#     902  xforce=   0.0000E+00   yforce=   0.0000E+00  zforce=  -1.3848E+02   energy=   7.6916E-03   setid =     902 xmoment=   0.0000E+00 ymoment=   0.0000E+00 zmoment=   0.0000E+00
 nd#     903  xforce=   0.0000E+00   yforce=   0.0000E+00  zforce=  -8.0472E+01   energy=   1.7486E-03   setid =     903 xmoment=   0.0000E+00 ymoment=   0.0000E+00 zmoment=   0.0000E+00
 nd#     905  xforce=   0.0000E+00   yforce=   0.0000E+00  zforce=  -1.9710E+02   energy=   5.3151E-03   setid =     905 xmoment=   0.0000E+00 ymoment=   0.0000E+00 zmoment=   0.0000E+00
 nd#     906  xforce=   0.0000E+00   yforce=   0.0000E+00  zforce=   1.8280E+01   energy=   7.1929E-03   setid =     906 xmoment=   0.0000E+00 ymoment=   0.0000E+00 zmoment=   0.0000E+00
 nd#     908  xforce=   0.0000E+00   yforce=   0.0000E+00  zforce=  -1.3895E+01   energy=   7.0363E-03   setid =     908 xmoment=   0.0000E+00 ymoment=   0.0000E+00 zmoment=   0.0000E+00
 nd#    1012  xforce=   0.0000E+00   yforce=   0.0000E+00  zforce=  -6.4533E+01   energy=   7.5375E-03   setid =    1012 xmoment=   0.0000E+00 ymoment=   0.0000E+00 zmoment=   0.0000E+00
 nd#    1013  xforce=   0.0000E+00   yforce=   0.0000E+00  zforce=  -1.1997E+02   energy=   6.4093E-03   setid =    1013 xmoment=   0.0000E+00 ymoment=   0.0000E+00 zmoment=   0.0000E+00
 nd#    1014  xforce=   0.0000E+00   yforce=   0.0000E+00  zforce=  -1.6587E+02   energy=   9.9289E-03   setid =    1014 xmoment=   0.0000E+00 ymoment=   0.0000E+00 zmoment=   0.0000E+00
 nd#    1060  xforce=   0.0000E+00   yforce=   0.0000E+00  zforce=  -4.3411E+01   energy=   2.7676E-03   setid =    1060 xmoment=   0.0000E+00 ymoment=   0.0000E+00 zmoment=   0.0000E+00
 nd#    1061  xforce=   0.0000E+00   yforce=   0.0000E+00  zforce=  -7.0249E+01   energy=   3.0341E-04   setid =    1061 xmoment=   0.0000E+00 ymoment=   0.0000E+00 zmoment=   0.0000E+00
 nd#    1062  xforce=   0.0000E+00   yforce=   0.0000E+00  zforce=  -1.9178E+01   energy=   5.9148E-03   setid =    1062 xmoment=   0.0000E+00 ymoment=   0.0000E+00 zmoment=   0.0000E+00
              xtotal=   0.0000E+00   ytotal=   0.0000E+00  ztotal=  -3.2026E+03   etotal=   1.9517E-01

 n o d a l   f o r c e/e n e r g y    o u t p u t  t=   5.32583E+00

 velocity boundary condition forces/rigid body moments 

 nd#     179  xforce=   0.0000E+00   yforce=   0.0000E+00  zforce=  -1.7985E+02   energy=   1.1720E-02   setid =     179 xmoment=   0.0000E+00 ymoment=   0.0000E+00 zmoment=   0.0000E+00
 nd#     180  xforce=   0.0000E+00   yforce=   0.0000E+00  zforce=  -2.0883E+02   energy=   1.4371E-02   setid =     180 xmoment=   0.0000E+00 ymoment=   0.0000E+00 zmoment=   0.0000E+00
 nd#     181  xforce=   0.0000E+00   yforce=   0.0000E+00  zforce=  -3.9964E+01   energy=   4.3679E-03   setid =     181 xmoment=   0.0000E+00 ymoment=   0.0000E+00 zmoment=   0.0000E+00
 nd#     182  xforce=   0.0000E+00   yforce=   0.0000E+00  zforce=  -5.8909E+01   energy=   8.6227E-03   setid =     182 xmoment=   0.0000E+00 ymoment=   0.0000E+00 zmoment=   0.0000E+00
 nd#     248  xforce=   0.0000E+00   yforce=   0.0000E+00  zforce=  -6.3975E+01   energy=   7.3592E-03   setid =     248 xmoment=   0.0000E+00 ymoment=   0.0000E+00 zmoment=   0.0000E+00
 nd#     284  xforce=   0.0000E+00   yforce=   0.0000E+00  zforce=   1.0016E+02   energy=  -5.1809E-03   setid =     284 xmoment=   0.0000E+00 ymoment=   0.0000E+00 zmoment=   0.0000E+00
 nd#     333  xforce=   0.0000E+00   yforce=   0.0000E+00  zforce=  -1.1250E+02   energy=   8.9350E-03   setid =     333 xmoment=   0.0000E+00 ymoment=   0.0000E+00 zmoment=   0.0000E+00
 nd#     334  xforce=   0.0000E+00   yforce=   0.0000E+00  zforce=  -6.7940E+01   energy=   6.1653E-03   setid =     334 xmoment=   0.0000E+00 ymoment=   0.0000E+00 zmoment=   0.0000E+00
 nd#     335  xforce=   0.0000E+00   yforce=   0.0000E+00  zforce=  -1.9542E+02   energy=   1.0758E-02   setid =     335 xmoment=   0.0000E+00 ymoment=   0.0000E+00 zmoment=   0.0000E+00
 nd#     436  xforce=   0.0000E+00   yforce=   0.0000E+00  zforce=  -1.4621E+02   energy=   1.1082E-02   setid =     436 xmoment=   0.0000E+00 ymoment=   0.0000E+00 zmoment=   0.0000E+00
 nd#     628  xforce=   0.0000E+00   yforce=   0.0000E+00  zforce=  -1.4290E+02   energy=   1.0121E-02   setid =     628 xmoment=   0.0000E+00 ymoment=   0.0000E+00 zmoment=   0.0000E+00
 nd#     631  xforce=   0.0000E+00   yforce=   0.0000E+00  zforce=  -1.0941E+02   energy=   9.5558E-03   setid =     631 xmoment=   0.0000E+00 ymoment=   0.0000E+00 zmoment=   0.0000E+00
 nd#     632  xforce=   0.0000E+00   yforce=   0.0000E+00  zforce=  -2.1653E+02   energy=   9.1996E-03   setid =     632 xmoment=   0.0000E+00 ymoment=   0.0000E+00 zmoment=   0.0000E+00
 nd#     635  xforce=   0.0000E+00   yforce=   0.0000E+00  zforce=  -2.0210E+02   energy=   9.1980E-03   setid =     635 xmoment=   0.0000E+00 ymoment=   0.0000E+00 zmoment=   0.0000E+00
 nd#     636  xforce=   0.0000E+00   yforce=   0.0000E+00  zforce=  -2.2476E+02   energy=   1.2812E-02   setid =     636 xmoment=   0.0000E+00 ymoment=   0.0000E+00 zmoment=   0.0000E+00
 nd#     639  xforce=   0.0000E+00   yforce=   0.0000E+00  zforce=  -2.2047E+02   energy=   1.3813E-02   setid =     639 xmoment=   0.0000E+00 ymoment=   0.0000E+00 zmoment=   0.0000E+00
 nd#     692  xforce=   0.0000E+00   yforce=   0.0000E+00  zforce=  -1.2138E+02   energy=   1.1962E-02   setid =     692 xmoment=   0.0000E+00 ymoment=   0.0000E+00 zmoment=   0.0000E+00
 nd#     694  xforce=   0.0000E+00   yforce=   0.0000E+00  zforce=  -1.9679E+02   energy=   1.0215E-02   setid =     694 xmoment=   0.0000E+00 ymoment=   0.0000E+00 zmoment=   0.0000E+00
 nd#     696  xforce=   0.0000E+00   yforce=   0.0000E+00  zforce=  -1.6351E+02   energy=   1.1590E-02   setid =     696 xmoment=   0.0000E+00 ymoment=   0.0000E+00 zmoment=   0.0000E+00
 nd#     900  xforce=   0.0000E+00   yforce=   0.0000E+00  zforce=  -1.4379E+00   energy=   5.1466E-03   setid =     900 xmoment=   0.0000E+00 ymoment=   0.0000E+00 zmoment=   0.0000E+00
 nd#     902  xforce=   0.0000E+00   yforce=   0.0000E+00  zforce=  -8.4851E+01   energy=   9.6219E-03   setid =     902 xmoment=   0.0000E+00 ymoment=   0.0000E+00 zmoment=   0.0000E+00
 nd#     903  xforce=   0.0000E+00   yforce=   0.0000E+00  zforce=  -1.0008E+02   energy=   3.3666E-03   setid =     903 xmoment=   0.0000E+00 ymoment=   0.0000E+00 zmoment=   0.0000E+00
 nd#     905  xforce=   0.0000E+00   yforce=   0.0000E+00  zforce=  -1.8081E+02   energy=   8.9442E-03   setid =     905 xmoment=   0.0000E+00 ymoment=   0.0000E+00 zmoment=   0.0000E+00
 nd#     906  xforce=   0.0000E+00   yforce=   0.0000E+00  zforce=   8.9322E+01   energy=   6.4998E-03   setid =     906 xmoment=   0.0000E+00 ymoment=   0.0000E+00 zmoment=   0.0000E+00
 nd#     908  xforce=   0.0000E+00   yforce=   0.0000E+00  zforce=  -9.4541E+00   energy=   7.6748E-03   setid =     908 xmoment=   0.0000E+00 ymoment=   0.0000E+00 zmoment=   0.0000E+00
 nd#    1012  xforce=   0.0000E+00   yforce=   0.0000E+00  zforce=  -7.5804E+01   energy=   8.9191E-03   setid =    1012 xmoment=   0.0000E+00 ymoment=   0.0000E+00 zmoment=   0.0000E+00
 nd#    1013  xforce=   0.0000E+00   yforce=   0.0000E+00  zforce=  -1.6674E+02   energy=   9.3269E-03   setid =    1013 xmoment=   0.0000E+00 ymoment=   0.0000E+00 zmoment=   0.0000E+00
 nd#    1014  xforce=   0.0000E+00   yforce=   0.0000E+00  zforce=  -1.7997E+02   energy=   1.3466E-02   setid =    1014 xmoment=   0.0000E+00 ymoment=   0.0000E+00 zmoment=   0.0000E+00
 nd#    1060  xforce=   0.0000E+00   yforce=   0.0000E+00  zforce=  -2.9510E+01   energy=   3.6296E-03   setid =    1060 xmoment=   0.0000E+00 ymoment=   0.0000E+00 zmoment=   0.0000E+00
 nd#    1061  xforce=   0.0000E+00   yforce=   0.0000E+00  zforce=  -9.3395E+01   energy=   1.7300E-03   setid =    1061 xmoment=   0.0000E+00 ymoment=   0.0000E+00 zmoment=   0.0000E+00
 nd#    1062  xforce=   0.0000E+00   yforce=   0.0000E+00  zforce=  -2.5694E+01   energy=   6.6959E-03   setid =    1062 xmoment=   0.0000E+00 ymoment=   0.0000E+00 zmoment=   0.0000E+00
              xtotal=   0.0000E+00   ytotal=   0.0000E+00  ztotal=  -3.4297E+03   etotal=   2.6169E-01

 n o d a l   f o r c e/e n e r g y    o u t p u t  t=   6.27077E+00

 velocity boundary condition forces/rigid body moments 

 nd#     179  xforce=   0.0000E+00   yforce=   0.0000E+00  zforce=  -1.9203E+02   energy=   1.5001E-02   setid =     179 xmoment=   0.0000E+00 ymoment=   0.0000E+00 zmoment=   0.0000E+00
 nd#     180  xforce=   0.0000E+00   yforce=   0.0000E+00  zforce=  -2.1611E+02   energy=   1.8517E-02   setid =     180 xmoment=   0.0000E+00 ymoment=   0.0000E+00 zmoment=   0.0000E+00
 nd#     181  xforce=   0.0000E+00   yforce=   0.0000E+00  zforce=  -1.3361E+02   energy=   6.2455E-03   setid =     181 xmoment=   0.0000E+00 ymoment=   0.0000E+00 zmoment=   0.0000E+00
 nd#     182  xforce=   0.0000E+00   yforce=   0.0000E+00  zforce=  -1.2889E+02   energy=   1.0657E-02   setid =     182 xmoment=   0.0000E+00 ymoment=   0.0000E+00 zmoment=   0.0000E+00
 nd#     248  xforce=   0.0000E+00   yforce=   0.0000E+00  zforce=   6.0887E+01   energy=   6.8988E-03   setid =     248 xmoment=   0.0000E+00 ymoment=   0.0000E+00 zmoment=   0.0000E+00
 nd#     284  xforce=   0.0000E+00   yforce=   0.0000E+00  zforce=   3.5341E+01   energy=  -6.4193E-03   setid =     284 xmoment=   0.0000E+00 ymoment=   0.0000E+00 zmoment=   0.0000E+00
 nd#     333  xforce=   0.0000E+00   yforce=   0.0000E+00  zforce=   4.6294E+00   energy=   9.5567E-03   setid =     333 xmoment=   0.0000E+00 ymoment=   0.0000E+00 zmoment=   0.0000E+00
 nd#     334  xforce=   0.0000E+00   yforce=   0.0000E+00  zforce=  -1.4845E+02   energy=   8.4226E-03   setid =     334 xmoment=   0.0000E+00 ymoment=   0.0000E+00 zmoment=   0.0000E+00
 nd#     335  xforce=   0.0000E+00   yforce=   0.0000E+00  zforce=  -1.0127E+02   energy=   1.3430E-02   setid =     335 xmoment=   0.0000E+00 ymoment=   0.0000E+00 zmoment=   0.0000E+00
 nd#     436  xforce=   0.0000E+00   yforce=   0.0000E+00  zforce=  -1.4191E+02   energy=   1.4251E-02   setid =     436 xmoment=   0.0000E+00 ymoment=   0.0000E+00 zmoment=   0.0000E+00
 nd#     628  xforce=   0.0000E+00   yforce=   0.0000E+00  zforce=  -1.3647E+02   energy=   1.2943E-02   setid =     628 xmoment=   0.0000E+00 ymoment=   0.0000E+00 zmoment=   0.0000E+00
 nd#     631  xforce=   0.0000E+00   yforce=   0.0000E+00  zforce=  -1.5919E+02   energy=   1.1677E-02   setid =     631 xmoment=   0.0000E+00 ymoment=   0.0000E+00 zmoment=   0.0000E+00
 nd#     632  xforce=   0.0000E+00   yforce=   0.0000E+00  zforce=  -1.1973E+02   energy=   1.2448E-02   setid =     632 xmoment=   0.0000E+00 ymoment=   0.0000E+00 zmoment=   0.0000E+00
 nd#     635  xforce=   0.0000E+00   yforce=   0.0000E+00  zforce=  -1.8301E+02   energy=   1.2800E-02   setid =     635 xmoment=   0.0000E+00 ymoment=   0.0000E+00 zmoment=   0.0000E+00
 nd#     636  xforce=   0.0000E+00   yforce=   0.0000E+00  zforce=  -1.1000E+02   energy=   1.5764E-02   setid =     636 xmoment=   0.0000E+00 ymoment=   0.0000E+00 zmoment=   0.0000E+00
 nd#     639  xforce=   0.0000E+00   yforce=   0.0000E+00  zforce=  -2.3158E+02   energy=   1.7680E-02   setid =     639 xmoment=   0.0000E+00 ymoment=   0.0000E+00 zmoment=   0.0000E+00
 nd#     692  xforce=   0.0000E+00   yforce=   0.0000E+00  zforce=  -1.3330E+02   energy=   1.3460E-02   setid =     692 xmoment=   0.0000E+00 ymoment=   0.0000E+00 zmoment=   0.0000E+00
 nd#     694  xforce=   0.0000E+00   yforce=   0.0000E+00  zforce=  -1.4957E+02   energy=   1.3674E-02   setid =     694 xmoment=   0.0000E+00 ymoment=   0.0000E+00 zmoment=   0.0000E+00
 nd#     696  xforce=   0.0000E+00   yforce=   0.0000E+00  zforce=  -2.3141E+02   energy=   1.5102E-02   setid =     696 xmoment=   0.0000E+00 ymoment=   0.0000E+00 zmoment=   0.0000E+00
 nd#     900  xforce=   0.0000E+00   yforce=   0.0000E+00  zforce=  -1.5509E+02   energy=   8.4658E-03   setid =     900 xmoment=   0.0000E+00 ymoment=   0.0000E+00 zmoment=   0.0000E+00
 nd#     902  xforce=   0.0000E+00   yforce=   0.0000E+00  zforce=  -1.2656E+02   energy=   1.1605E-02   setid =     902 xmoment=   0.0000E+00 ymoment=   0.0000E+00 zmoment=   0.0000E+00
 nd#     903  xforce=   0.0000E+00   yforce=   0.0000E+00  zforce=  -8.4018E+01   energy=   3.7841E-03   setid =     903 xmoment=   0.0000E+00 ymoment=   0.0000E+00 zmoment=   0.0000E+00
 nd#     905  xforce=   0.0000E+00   yforce=   0.0000E+00  zforce=  -1.2985E+02   energy=   1.1422E-02   setid =     905 xmoment=   0.0000E+00 ymoment=   0.0000E+00 zmoment=   0.0000E+00
 nd#     906  xforce=   0.0000E+00   yforce=   0.0000E+00  zforce=  -6.7889E+01   energy=   6.9010E-03   setid =     906 xmoment=   0.0000E+00 ymoment=   0.0000E+00 zmoment=   0.0000E+00
 nd#     908  xforce=   0.0000E+00   yforce=   0.0000E+00  zforce=  -1.9459E+02   energy=   1.0200E-02   setid =     908 xmoment=   0.0000E+00 ymoment=   0.0000E+00 zmoment=   0.0000E+00
 nd#    1012  xforce=   0.0000E+00   yforce=   0.0000E+00  zforce=  -1.5133E+02   energy=   1.1023E-02   setid =    1012 xmoment=   0.0000E+00 ymoment=   0.0000E+00 zmoment=   0.0000E+00
 nd#    1013  xforce=   0.0000E+00   yforce=   0.0000E+00  zforce=  -1.8677E+02   energy=   1.2715E-02   setid =    1013 xmoment=   0.0000E+00 ymoment=   0.0000E+00 zmoment=   0.0000E+00
 nd#    1014  xforce=   0.0000E+00   yforce=   0.0000E+00  zforce=  -1.8707E+02   energy=   1.7908E-02   setid =    1014 xmoment=   0.0000E+00 ymoment=   0.0000E+00 zmoment=   0.0000E+00
 nd#    1060  xforce=   0.0000E+00   yforce=   0.0000E+00  zforce=  -1.7558E+01   energy=   4.6904E-03   setid =    1060 xmoment=   0.0000E+00 ymoment=   0.0000E+00 zmoment=   0.0000E+00
 nd#    1061  xforce=   0.0000E+00   yforce=   0.0000E+00  zforce=   1.6487E+02   energy=   3.6052E-04   setid =    1061 xmoment=   0.0000E+00 ymoment=   0.0000E+00 zmoment=   0.0000E+00
 nd#    1062  xforce=   0.0000E+00   yforce=   0.0000E+00  zforce=   2.1901E+01   energy=   6.7451E-03   setid =    1062 xmoment=   0.0000E+00 ymoment=   0.0000E+00 zmoment=   0.0000E+00
              xtotal=   0.0000E+00   ytotal=   0.0000E+00  ztotal=  -3.5296E+03   etotal=   3.2793E-01

 n o d a l   f o r c e/e n e r g y    o u t p u t  t=   7.40173E+00

 velocity boundary condition forces/rigid body moments 

 nd#     179  xforce=   0.0000E+00   yforce=   0.0000E+00  zforce=  -1.9235E+02   energy=   1.9356E-02   setid =     179 xmoment=   0.0000E+00 ymoment=   0.0000E+00 zmoment=   0.0000E+00
 nd#     180  xforce=   0.0000E+00   yforce=   0.0000E+00  zforce=  -2.2130E+02   energy=   2.3324E-02   setid =     180 xmoment=   0.0000E+00 ymoment=   0.0000E+00 zmoment=   0.0000E+00
 nd#     181  xforce=   0.0000E+00   yforce=   0.0000E+00  zforce=  -1.3962E+02   energy=   9.5251E-03   setid =     181 xmoment=   0.0000E+00 ymoment=   0.0000E+00 zmoment=   0.0000E+00
 nd#     182  xforce=   0.0000E+00   yforce=   0.0000E+00  zforce=  -1.3043E+02   energy=   1.3698E-02   setid =     182 xmoment=   0.0000E+00 ymoment=   0.0000E+00 zmoment=   0.0000E+00
 nd#     248  xforce=   0.0000E+00   yforce=   0.0000E+00  zforce=   1.1686E+02   energy=   4.8622E-03   setid =     248 xmoment=   0.0000E+00 ymoment=   0.0000E+00 zmoment=   0.0000E+00
 nd#     284  xforce=   0.0000E+00   yforce=   0.0000E+00  zforce=   6.5514E+01   energy=  -7.5911E-03   setid =     284 xmoment=   0.0000E+00 ymoment=   0.0000E+00 zmoment=   0.0000E+00
 nd#     333  xforce=   0.0000E+00   yforce=   0.0000E+00  zforce=   8.5406E+00   energy=   9.6380E-03   setid =     333 xmoment=   0.0000E+00 ymoment=   0.0000E+00 zmoment=   0.0000E+00
 nd#     334  xforce=   0.0000E+00   yforce=   0.0000E+00  zforce=  -1.6645E+02   energy=   1.1821E-02   setid =     334 xmoment=   0.0000E+00 ymoment=   0.0000E+00 zmoment=   0.0000E+00
 nd#     335  xforce=   0.0000E+00   yforce=   0.0000E+00  zforce=  -5.2369E+01   energy=   1.5382E-02   setid =     335 xmoment=   0.0000E+00 ymoment=   0.0000E+00 zmoment=   0.0000E+00
 nd#     436  xforce=   0.0000E+00   yforce=   0.0000E+00  zforce=  -1.2777E+02   energy=   1.7430E-02   setid =     436 xmoment=   0.0000E+00 ymoment=   0.0000E+00 zmoment=   0.0000E+00
 nd#     628  xforce=   0.0000E+00   yforce=   0.0000E+00  zforce=  -1.3453E+02   energy=   1.6098E-02   setid =     628 xmoment=   0.0000E+00 ymoment=   0.0000E+00 zmoment=   0.0000E+00
 nd#     631  xforce=   0.0000E+00   yforce=   0.0000E+00  zforce=  -1.4552E+02   energy=   1.5139E-02   setid =     631 xmoment=   0.0000E+00 ymoment=   0.0000E+00 zmoment=   0.0000E+00
 nd#     632  xforce=   0.0000E+00   yforce=   0.0000E+00  zforce=  -1.3962E+02   energy=   1.5660E-02   setid =     632 xmoment=   0.0000E+00 ymoment=   0.0000E+00 zmoment=   0.0000E+00
 nd#     635  xforce=   0.0000E+00   yforce=   0.0000E+00  zforce=  -1.6676E+02   energy=   1.6660E-02   setid =     635 xmoment=   0.0000E+00 ymoment=   0.0000E+00 zmoment=   0.0000E+00
 nd#     636  xforce=   0.0000E+00   yforce=   0.0000E+00  zforce=  -1.3102E+02   energy=   1.8831E-02   setid =     636 xmoment=   0.0000E+00 ymoment=   0.0000E+00 zmoment=   0.0000E+00
 nd#     639  xforce=   0.0000E+00   yforce=   0.0000E+00  zforce=  -2.3643E+02   energy=   2.2763E-02   setid =     639 xmoment=   0.0000E+00 ymoment=   0.0000E+00 zmoment=   0.0000E+00
 nd#     692  xforce=   0.0000E+00   yforce=   0.0000E+00  zforce=  -1.3652E+02   energy=   1.6368E-02   setid =     692 xmoment=   0.0000E+00 ymoment=   0.0000E+00 zmoment=   0.0000E+00
 nd#     694  xforce=   0.0000E+00   yforce=   0.0000E+00  zforce=  -1.9422E+02   energy=   1.7735E-02   setid =     694 xmoment=   0.0000E+00 ymoment=   0.0000E+00 zmoment=   0.0000E+00
 nd#     696  xforce=   0.0000E+00   yforce=   0.0000E+00  zforce=  -2.1124E+02   energy=   1.9824E-02   setid =     696 xmoment=   0.0000E+00 ymoment=   0.0000E+00 zmoment=   0.0000E+00
 nd#     900  xforce=   0.0000E+00   yforce=   0.0000E+00  zforce=  -1.8855E+02   energy=   1.2244E-02   setid =     900 xmoment=   0.0000E+00 ymoment=   0.0000E+00 zmoment=   0.0000E+00
 nd#     902  xforce=   0.0000E+00   yforce=   0.0000E+00  zforce=  -1.0904E+02   energy=   1.4013E-02   setid =     902 xmoment=   0.0000E+00 ymoment=   0.0000E+00 zmoment=   0.0000E+00
 nd#     903  xforce=   0.0000E+00   yforce=   0.0000E+00  zforce=  -2.5156E+01   energy=   5.3399E-03   setid =     903 xmoment=   0.0000E+00 ymoment=   0.0000E+00 zmoment=   0.0000E+00
 nd#     905  xforce=   0.0000E+00   yforce=   0.0000E+00  zforce=  -1.6088E+02   energy=   1.4748E-02   setid =     905 xmoment=   0.0000E+00 ymoment=   0.0000E+00 zmoment=   0.0000E+00
 nd#     906  xforce=   0.0000E+00   yforce=   0.0000E+00  zforce=   3.2144E+01   energy=   7.9480E-03   setid =     906 xmoment=   0.0000E+00 ymoment=   0.0000E+00 zmoment=   0.0000E+00
 nd#     908  xforce=   0.0000E+00   yforce=   0.0000E+00  zforce=  -1.2767E+02   energy=   1.3745E-02   setid =     908 xmoment=   0.0000E+00 ymoment=   0.0000E+00 zmoment=   0.0000E+00
 nd#    1012  xforce=   0.0000E+00   yforce=   0.0000E+00  zforce=  -1.4193E+02   energy=   1.4097E-02   setid =    1012 xmoment=   0.0000E+00 ymoment=   0.0000E+00 zmoment=   0.0000E+00
 nd#    1013  xforce=   0.0000E+00   yforce=   0.0000E+00  zforce=  -1.8091E+02   energy=   1.6679E-02   setid =    1013 xmoment=   0.0000E+00 ymoment=   0.0000E+00 zmoment=   0.0000E+00
 nd#    1014  xforce=   0.0000E+00   yforce=   0.0000E+00  zforce=  -1.7697E+02   energy=   2.1882E-02   setid =    1014 xmoment=   0.0000E+00 ymoment=   0.0000E+00 zmoment=   0.0000E+00
 nd#    1060  xforce=   0.0000E+00   yforce=   0.0000E+00  zforce=  -5.9087E+01   energy=   5.6414E-03   setid =    1060 xmoment=   0.0000E+00 ymoment=   0.0000E+00 zmoment=   0.0000E+00
 nd#    1061  xforce=   0.0000E+00   yforce=   0.0000E+00  zforce=   2.2264E+02   energy=  -3.9900E-03   setid =    1061 xmoment=   0.0000E+00 ymoment=   0.0000E+00 zmoment=   0.0000E+00
 nd#    1062  xforce=   0.0000E+00   yforce=   0.0000E+00  zforce=  -4.4937E+01   energy=   7.4587E-03   setid =    1062 xmoment=   0.0000E+00 ymoment=   0.0000E+00 zmoment=   0.0000E+00
              xtotal=   0.0000E+00   ytotal=   0.0000E+00  ztotal=  -3.2956E+03   etotal=   4.0633E-01

 n o d a l   f o r c e/e n e r g y    o u t p u t  t=   8.40173E+00

 velocity boundary condition forces/rigid body moments 

 nd#     179  xforce=   0.0000E+00   yforce=   0.0000E+00  zforce=  -1.8620E+02   energy=   2.3108E-02   setid =     179 xmoment=   0.0000E+00 ymoment=   0.0000E+00 zmoment=   0.0000E+00
 nd#     180  xforce=   0.0000E+00   yforce=   0.0000E+00  zforce=  -2.3142E+02   energy=   2.7912E-02   setid =     180 xmoment=   0.0000E+00 ymoment=   0.0000E+00 zmoment=   0.0000E+00
 nd#     181  xforce=   0.0000E+00   yforce=   0.0000E+00  zforce=  -1.7961E+02   energy=   1.3000E-02   setid =     181 xmoment=   0.0000E+00 ymoment=   0.0000E+00 zmoment=   0.0000E+00
 nd#     182  xforce=   0.0000E+00   yforce=   0.0000E+00  zforce=  -1.5938E+02   energy=   1.6884E-02   setid =     182 xmoment=   0.0000E+00 ymoment=   0.0000E+00 zmoment=   0.0000E+00
 nd#     248  xforce=   0.0000E+00   yforce=   0.0000E+00  zforce=   2.1707E+01   energy=   2.6130E-03   setid =     248 xmoment=   0.0000E+00 ymoment=   0.0000E+00 zmoment=   0.0000E+00
 nd#     284  xforce=   0.0000E+00   yforce=   0.0000E+00  zforce=   1.6484E+01   energy=  -7.9576E-03   setid =     284 xmoment=   0.0000E+00 ymoment=   0.0000E+00 zmoment=   0.0000E+00
 nd#     333  xforce=   0.0000E+00   yforce=   0.0000E+00  zforce=  -4.2848E+01   energy=   1.0183E-02   setid =     333 xmoment=   0.0000E+00 ymoment=   0.0000E+00 zmoment=   0.0000E+00
 nd#     334  xforce=   0.0000E+00   yforce=   0.0000E+00  zforce=  -1.3826E+02   energy=   1.4830E-02   setid =     334 xmoment=   0.0000E+00 ymoment=   0.0000E+00 zmoment=   0.0000E+00
 nd#     335  xforce=   0.0000E+00   yforce=   0.0000E+00  zforce=  -5.6545E+01   energy=   1.6635E-02   setid =     335 xmoment=   0.0000E+00 ymoment=   0.0000E+00 zmoment=   0.0000E+00
 nd#     436  xforce=   0.0000E+00   yforce=   0.0000E+00  zforce=  -9.4719E+01   energy=   1.9443E-02   setid =     436 xmoment=   0.0000E+00 ymoment=   0.0000E+00 zmoment=   0.0000E+00
 nd#     628  xforce=   0.0000E+00   yforce=   0.0000E+00  zforce=  -1.2480E+02   energy=   1.8429E-02   setid =     628 xmoment=   0.0000E+00 ymoment=   0.0000E+00 zmoment=   0.0000E+00
 nd#     631  xforce=   0.0000E+00   yforce=   0.0000E+00  zforce=  -1.5642E+02   energy=   1.8154E-02   setid =     631 xmoment=   0.0000E+00 ymoment=   0.0000E+00 zmoment=   0.0000E+00
 nd#     632  xforce=   0.0000E+00   yforce=   0.0000E+00  zforce=  -1.3671E+02   energy=   1.8447E-02   setid =     632 xmoment=   0.0000E+00 ymoment=   0.0000E+00 zmoment=   0.0000E+00
 nd#     635  xforce=   0.0000E+00   yforce=   0.0000E+00  zforce=  -1.3414E+02   energy=   1.9596E-02   setid =     635 xmoment=   0.0000E+00 ymoment=   0.0000E+00 zmoment=   0.0000E+00
 nd#     636  xforce=   0.0000E+00   yforce=   0.0000E+00  zforce=  -1.9235E+02   energy=   2.1940E-02   setid =     636 xmoment=   0.0000E+00 ymoment=   0.0000E+00 zmoment=   0.0000E+00
 nd#     639  xforce=   0.0000E+00   yforce=   0.0000E+00  zforce=  -2.4892E+02   energy=   2.7504E-02   setid =     639 xmoment=   0.0000E+00 ymoment=   0.0000E+00 zmoment=   0.0000E+00
 nd#     692  xforce=   0.0000E+00   yforce=   0.0000E+00  zforce=  -8.2783E+01   energy=   1.8300E-02   setid =     692 xmoment=   0.0000E+00 ymoment=   0.0000E+00 zmoment=   0.0000E+00
 nd#     694  xforce=   0.0000E+00   yforce=   0.0000E+00  zforce=  -2.0413E+02   energy=   2.1930E-02   setid =     694 xmoment=   0.0000E+00 ymoment=   0.0000E+00 zmoment=   0.0000E+00
 nd#     696  xforce=   0.0000E+00   yforce=   0.0000E+00  zforce=  -1.5133E+02   energy=   2.3688E-02   setid =     696 xmoment=   0.0000E+00 ymoment=   0.0000E+00 zmoment=   0.0000E+00
 nd#     900  xforce=   0.0000E+00   yforce=   0.0000E+00  zforce=  -2.1013E+02   energy=   1.6799E-02   setid =     900 xmoment=   0.0000E+00 ymoment=   0.0000E+00 zmoment=   0.0000E+00
 nd#     902  xforce=   0.0000E+00   yforce=   0.0000E+00  zforce=  -1.1735E+02   energy=   1.6447E-02   setid =     902 xmoment=   0.0000E+00 ymoment=   0.0000E+00 zmoment=   0.0000E+00
 nd#     903  xforce=   0.0000E+00   yforce=   0.0000E+00  zforce=   6.7780E+01   energy=   4.8717E-03   setid =     903 xmoment=   0.0000E+00 ymoment=   0.0000E+00 zmoment=   0.0000E+00
 nd#     905  xforce=   0.0000E+00   yforce=   0.0000E+00  zforce=  -6.8735E+01   energy=   1.6697E-02   setid =     905 xmoment=   0.0000E+00 ymoment=   0.0000E+00 zmoment=   0.0000E+00
 nd#     906  xforce=   0.0000E+00   yforce=   0.0000E+00  zforce=  -1.1327E+02   energy=   9.5781E-03   setid =     906 xmoment=   0.0000E+00 ymoment=   0.0000E+00 zmoment=   0.0000E+00
 nd#     908  xforce=   0.0000E+00   yforce=   0.0000E+00  zforce=  -4.3965E+01   energy=   1.4818E-02   setid =     908 xmoment=   0.0000E+00 ymoment=   0.0000E+00 zmoment=   0.0000E+00
 nd#    1012  xforce=   0.0000E+00   yforce=   0.0000E+00  zforce=  -1.6118E+02   energy=   1.7411E-02   setid =    1012 xmoment=   0.0000E+00 ymoment=   0.0000E+00 zmoment=   0.0000E+00
 nd#    1013  xforce=   0.0000E+00   yforce=   0.0000E+00  zforce=  -1.5039E+02   energy=   2.0120E-02   setid =    1013 xmoment=   0.0000E+00 ymoment=   0.0000E+00 zmoment=   0.0000E+00
 nd#    1014  xforce=   0.0000E+00   yforce=   0.0000E+00  zforce=  -1.4784E+02   energy=   2.5042E-02   setid =    1014 xmoment=   0.0000E+00 ymoment=   0.0000E+00 zmoment=   0.0000E+00
 nd#    1060  xforce=   0.0000E+00   yforce=   0.0000E+00  zforce=  -9.6282E+01   energy=   7.3775E-03   setid =    1060 xmoment=   0.0000E+00 ymoment=   0.0000E+00 zmoment=   0.0000E+00
 nd#    1061  xforce=   0.0000E+00   yforce=   0.0000E+00  zforce=   1.0406E+02   energy=  -7.6972E-03   setid =    1061 xmoment=   0.0000E+00 ymoment=   0.0000E+00 zmoment=   0.0000E+00
 nd#    1062  xforce=   0.0000E+00   yforce=   0.0000E+00  zforce=  -3.1462E+01   energy=   7.8176E-03   setid =    1062 xmoment=   0.0000E+00 ymoment=   0.0000E+00 zmoment=   0.0000E+00
              xtotal=   0.0000E+00   ytotal=   0.0000E+00  ztotal=  -3.4511E+03   etotal=   4.7392E-01

 n o d a l   f o r c e/e n e r g y    o u t p u t  t=   9.15232E+00

 velocity boundary condition forces/rigid body moments 

 nd#     179  xforce=   0.0000E+00   yforce=   0.0000E+00  zforce=  -1.4857E+02   energy=   2.6398E-02   setid =     179 xmoment=   0.0000E+00 ymoment=   0.0000E+00 zmoment=   0.0000E+00
 nd#     180  xforce=   0.0000E+00   yforce=   0.0000E+00  zforce=  -2.9207E+02   energy=   3.1771E-02   setid =     180 xmoment=   0.0000E+00 ymoment=   0.0000E+00 zmoment=   0.0000E+00
 nd#     181  xforce=   0.0000E+00   yforce=   0.0000E+00  zforce=  -4.9443E+01   energy=   1.4686E-02   setid =     181 xmoment=   0.0000E+00 ymoment=   0.0000E+00 zmoment=   0.0000E+00
 nd#     182  xforce=   0.0000E+00   yforce=   0.0000E+00  zforce=  -3.7838E+01   energy=   1.8698E-02   setid =     182 xmoment=   0.0000E+00 ymoment=   0.0000E+00 zmoment=   0.0000E+00
 nd#     248  xforce=   0.0000E+00   yforce=   0.0000E+00  zforce=   1.7043E+01   energy=   2.6695E-03   setid =     248 xmoment=   0.0000E+00 ymoment=   0.0000E+00 zmoment=   0.0000E+00
 nd#     284  xforce=   0.0000E+00   yforce=   0.0000E+00  zforce=   8.5436E+01   energy=  -8.7914E-03   setid =     284 xmoment=   0.0000E+00 ymoment=   0.0000E+00 zmoment=   0.0000E+00
 nd#     333  xforce=   0.0000E+00   yforce=   0.0000E+00  zforce=   3.4746E+01   energy=   1.0040E-02   setid =     333 xmoment=   0.0000E+00 ymoment=   0.0000E+00 zmoment=   0.0000E+00
 nd#     334  xforce=   0.0000E+00   yforce=   0.0000E+00  zforce=  -2.5013E+01   energy=   1.4749E-02   setid =     334 xmoment=   0.0000E+00 ymoment=   0.0000E+00 zmoment=   0.0000E+00
 nd#     335  xforce=   0.0000E+00   yforce=   0.0000E+00  zforce=  -1.6083E+02   energy=   1.7850E-02   setid =     335 xmoment=   0.0000E+00 ymoment=   0.0000E+00 zmoment=   0.0000E+00
 nd#     436  xforce=   0.0000E+00   yforce=   0.0000E+00  zforce=  -2.3714E+01   energy=   2.0723E-02   setid =     436 xmoment=   0.0000E+00 ymoment=   0.0000E+00 zmoment=   0.0000E+00
 nd#     628  xforce=   0.0000E+00   yforce=   0.0000E+00  zforce=  -2.2240E+02   energy=   2.0183E-02   setid =     628 xmoment=   0.0000E+00 ymoment=   0.0000E+00 zmoment=   0.0000E+00
 nd#     631  xforce=   0.0000E+00   yforce=   0.0000E+00  zforce=  -1.4942E+02   energy=   2.0045E-02   setid =     631 xmoment=   0.0000E+00 ymoment=   0.0000E+00 zmoment=   0.0000E+00
 nd#     632  xforce=   0.0000E+00   yforce=   0.0000E+00  zforce=  -1.7386E+02   energy=   2.0156E-02   setid =     632 xmoment=   0.0000E+00 ymoment=   0.0000E+00 zmoment=   0.0000E+00
 nd#     635  xforce=   0.0000E+00   yforce=   0.0000E+00  zforce=  -2.7539E+02   energy=   2.2671E-02   setid =     635 xmoment=   0.0000E+00 ymoment=   0.0000E+00 zmoment=   0.0000E+00
 nd#     636  xforce=   0.0000E+00   yforce=   0.0000E+00  zforce=   2.1141E+02   energy=   2.2157E-02   setid =     636 xmoment=   0.0000E+00 ymoment=   0.0000E+00 zmoment=   0.0000E+00
 nd#     639  xforce=   0.0000E+00   yforce=   0.0000E+00  zforce=   8.5212E+01   energy=   2.8909E-02   setid =     639 xmoment=   0.0000E+00 ymoment=   0.0000E+00 zmoment=   0.0000E+00
 nd#     692  xforce=   0.0000E+00   yforce=   0.0000E+00  zforce=  -2.6124E+02   energy=   2.0095E-02   setid =     692 xmoment=   0.0000E+00 ymoment=   0.0000E+00 zmoment=   0.0000E+00
 nd#     694  xforce=   0.0000E+00   yforce=   0.0000E+00  zforce=  -3.0886E+02   energy=   2.5383E-02   setid =     694 xmoment=   0.0000E+00 ymoment=   0.0000E+00 zmoment=   0.0000E+00
 nd#     696  xforce=   0.0000E+00   yforce=   0.0000E+00  zforce=  -5.8092E+01   energy=   2.4931E-02   setid =     696 xmoment=   0.0000E+00 ymoment=   0.0000E+00 zmoment=   0.0000E+00
 nd#     900  xforce=   0.0000E+00   yforce=   0.0000E+00  zforce=   1.0827E+02   energy=   1.9375E-02   setid =     900 xmoment=   0.0000E+00 ymoment=   0.0000E+00 zmoment=   0.0000E+00
 nd#     902  xforce=   0.0000E+00   yforce=   0.0000E+00  zforce=  -2.3703E+02   energy=   1.9092E-02   setid =     902 xmoment=   0.0000E+00 ymoment=   0.0000E+00 zmoment=   0.0000E+00
 nd#     903  xforce=   0.0000E+00   yforce=   0.0000E+00  zforce=   6.7503E+01   energy=   5.6802E-03   setid =     903 xmoment=   0.0000E+00 ymoment=   0.0000E+00 zmoment=   0.0000E+00
 nd#     905  xforce=   0.0000E+00   yforce=   0.0000E+00  zforce=  -2.0326E+02   energy=   1.9430E-02   setid =     905 xmoment=   0.0000E+00 ymoment=   0.0000E+00 zmoment=   0.0000E+00
 nd#     906  xforce=   0.0000E+00   yforce=   0.0000E+00  zforce=   5.2778E+00   energy=   1.0415E-02   setid =     906 xmoment=   0.0000E+00 ymoment=   0.0000E+00 zmoment=   0.0000E+00
 nd#     908  xforce=   0.0000E+00   yforce=   0.0000E+00  zforce=  -6.9610E+01   energy=   1.5680E-02   setid =     908 xmoment=   0.0000E+00 ymoment=   0.0000E+00 zmoment=   0.0000E+00
 nd#    1012  xforce=   0.0000E+00   yforce=   0.0000E+00  zforce=  -2.2840E+02   energy=   2.0246E-02   setid =    1012 xmoment=   0.0000E+00 ymoment=   0.0000E+00 zmoment=   0.0000E+00
 nd#    1013  xforce=   0.0000E+00   yforce=   0.0000E+00  zforce=  -1.4434E+02   energy=   2.0866E-02   setid =    1013 xmoment=   0.0000E+00 ymoment=   0.0000E+00 zmoment=   0.0000E+00
 nd#    1014  xforce=   0.0000E+00   yforce=   0.0000E+00  zforce=  -1.9496E+02   energy=   2.7741E-02   setid =    1014 xmoment=   0.0000E+00 ymoment=   0.0000E+00 zmoment=   0.0000E+00
 nd#    1060  xforce=   0.0000E+00   yforce=   0.0000E+00  zforce=   1.3478E+02   energy=   7.8244E-03   setid =    1060 xmoment=   0.0000E+00 ymoment=   0.0000E+00 zmoment=   0.0000E+00
 nd#    1061  xforce=   0.0000E+00   yforce=   0.0000E+00  zforce=  -1.1010E+02   energy=  -8.0105E-03   setid =    1061 xmoment=   0.0000E+00 ymoment=   0.0000E+00 zmoment=   0.0000E+00
 nd#    1062  xforce=   0.0000E+00   yforce=   0.0000E+00  zforce=   3.4538E+01   energy=   8.3256E-03   setid =    1062 xmoment=   0.0000E+00 ymoment=   0.0000E+00 zmoment=   0.0000E+00
              xtotal=   0.0000E+00   ytotal=   0.0000E+00  ztotal=  -2.5902E+03   etotal=   5.1999E-01

 n o d a l   f o r c e/e n e r g y    o u t p u t  t=   1.03013E+01

 velocity boundary condition forces/rigid body moments 

 nd#     179  xforce=   0.0000E+00   yforce=   0.0000E+00  zforce=  -2.2995E+02   energy=   3.1709E-02   setid =     179 xmoment=   0.0000E+00 ymoment=   0.0000E+00 zmoment=   0.0000E+00
 nd#     180  xforce=   0.0000E+00   yforce=   0.0000E+00  zforce=  -3.0446E+02   energy=   3.8832E-02   setid =     180 xmoment=   0.0000E+00 ymoment=   0.0000E+00 zmoment=   0.0000E+00
 nd#     181  xforce=   0.0000E+00   yforce=   0.0000E+00  zforce=  -4.7633E+01   energy=   1.5954E-02   setid =     181 xmoment=   0.0000E+00 ymoment=   0.0000E+00 zmoment=   0.0000E+00
 nd#     182  xforce=   0.0000E+00   yforce=   0.0000E+00  zforce=  -7.4565E+01   energy=   2.0363E-02   setid =     182 xmoment=   0.0000E+00 ymoment=   0.0000E+00 zmoment=   0.0000E+00
 nd#     248  xforce=   0.0000E+00   yforce=   0.0000E+00  zforce=  -5.0070E+00   energy=   2.7733E-03   setid =     248 xmoment=   0.0000E+00 ymoment=   0.0000E+00 zmoment=   0.0000E+00
 nd#     284  xforce=   0.0000E+00   yforce=   0.0000E+00  zforce=   7.2829E+01   energy=  -1.0908E-02   setid =     284 xmoment=   0.0000E+00 ymoment=   0.0000E+00 zmoment=   0.0000E+00
 nd#     333  xforce=   0.0000E+00   yforce=   0.0000E+00  zforce=  -1.9453E+01   energy=   1.0071E-02   setid =     333 xmoment=   0.0000E+00 ymoment=   0.0000E+00 zmoment=   0.0000E+00
 nd#     334  xforce=   0.0000E+00   yforce=   0.0000E+00  zforce=  -1.0126E+02   energy=   1.6396E-02   setid =     334 xmoment=   0.0000E+00 ymoment=   0.0000E+00 zmoment=   0.0000E+00
 nd#     335  xforce=   0.0000E+00   yforce=   0.0000E+00  zforce=  -1.4426E+02   energy=   2.1159E-02   setid =     335 xmoment=   0.0000E+00 ymoment=   0.0000E+00 zmoment=   0.0000E+00
 nd#     436  xforce=   0.0000E+00   yforce=   0.0000E+00  zforce=  -9.8338E+01   energy=   2.2995E-02   setid =     436 xmoment=   0.0000E+00 ymoment=   0.0000E+00 zmoment=   0.0000E+00
 nd#     628  xforce=   0.0000E+00   yforce=   0.0000E+00  zforce=  -2.0370E+02   energy=   2.4788E-02   setid =     628 xmoment=   0.0000E+00 ymoment=   0.0000E+00 zmoment=   0.0000E+00
 nd#     631  xforce=   0.0000E+00   yforce=   0.0000E+00  zforce=  -1.4902E+02   energy=   2.3171E-02   setid =     631 xmoment=   0.0000E+00 ymoment=   0.0000E+00 zmoment=   0.0000E+00
 nd#     632  xforce=   0.0000E+00   yforce=   0.0000E+00  zforce=  -2.7592E+02   energy=   2.6158E-02   setid =     632 xmoment=   0.0000E+00 ymoment=   0.0000E+00 zmoment=   0.0000E+00
 nd#     635  xforce=   0.0000E+00   yforce=   0.0000E+00  zforce=  -3.3569E+02   energy=   2.9933E-02   setid =     635 xmoment=   0.0000E+00 ymoment=   0.0000E+00 zmoment=   0.0000E+00
 nd#     636  xforce=   0.0000E+00   yforce=   0.0000E+00  zforce=   8.5236E-01   energy=   2.1537E-02   setid =     636 xmoment=   0.0000E+00 ymoment=   0.0000E+00 zmoment=   0.0000E+00
 nd#     639  xforce=   0.0000E+00   yforce=   0.0000E+00  zforce=   4.1743E+01   energy=   2.7976E-02   setid =     639 xmoment=   0.0000E+00 ymoment=   0.0000E+00 zmoment=   0.0000E+00
 nd#     692  xforce=   0.0000E+00   yforce=   0.0000E+00  zforce=  -2.0404E+02   energy=   2.4787E-02   setid =     692 xmoment=   0.0000E+00 ymoment=   0.0000E+00 zmoment=   0.0000E+00
 nd#     694  xforce=   0.0000E+00   yforce=   0.0000E+00  zforce=  -2.7202E+02   energy=   3.1455E-02   setid =     694 xmoment=   0.0000E+00 ymoment=   0.0000E+00 zmoment=   0.0000E+00
 nd#     696  xforce=   0.0000E+00   yforce=   0.0000E+00  zforce=  -3.1202E+01   energy=   2.5478E-02   setid =     696 xmoment=   0.0000E+00 ymoment=   0.0000E+00 zmoment=   0.0000E+00
 nd#     900  xforce=   0.0000E+00   yforce=   0.0000E+00  zforce=  -7.8459E+01   energy=   2.0918E-02   setid =     900 xmoment=   0.0000E+00 ymoment=   0.0000E+00 zmoment=   0.0000E+00
 nd#     902  xforce=   0.0000E+00   yforce=   0.0000E+00  zforce=  -2.3806E+02   energy=   2.4139E-02   setid =     902 xmoment=   0.0000E+00 ymoment=   0.0000E+00 zmoment=   0.0000E+00
 nd#     903  xforce=   0.0000E+00   yforce=   0.0000E+00  zforce=   3.1786E+01   energy=   5.1882E-03   setid =     903 xmoment=   0.0000E+00 ymoment=   0.0000E+00 zmoment=   0.0000E+00
 nd#     905  xforce=   0.0000E+00   yforce=   0.0000E+00  zforce=  -2.2037E+02   energy=   2.5064E-02   setid =     905 xmoment=   0.0000E+00 ymoment=   0.0000E+00 zmoment=   0.0000E+00
 nd#     906  xforce=   0.0000E+00   yforce=   0.0000E+00  zforce=  -4.1959E+01   energy=   1.1320E-02   setid =     906 xmoment=   0.0000E+00 ymoment=   0.0000E+00 zmoment=   0.0000E+00
 nd#     908  xforce=   0.0000E+00   yforce=   0.0000E+00  zforce=   9.1974E+01   energy=   1.4165E-02   setid =     908 xmoment=   0.0000E+00 ymoment=   0.0000E+00 zmoment=   0.0000E+00
 nd#    1012  xforce=   0.0000E+00   yforce=   0.0000E+00  zforce=  -1.3940E+02   energy=   2.3646E-02   setid =    1012 xmoment=   0.0000E+00 ymoment=   0.0000E+00 zmoment=   0.0000E+00
 nd#    1013  xforce=   0.0000E+00   yforce=   0.0000E+00  zforce=  -2.1183E+02   energy=   2.5451E-02   setid =    1013 xmoment=   0.0000E+00 ymoment=   0.0000E+00 zmoment=   0.0000E+00
 nd#    1014  xforce=   0.0000E+00   yforce=   0.0000E+00  zforce=  -1.4233E+02   energy=   3.1013E-02   setid =    1014 xmoment=   0.0000E+00 ymoment=   0.0000E+00 zmoment=   0.0000E+00
 nd#    1060  xforce=   0.0000E+00   yforce=   0.0000E+00  zforce=   2.3329E+01   energy=   7.5492E-03   setid =    1060 xmoment=   0.0000E+00 ymoment=   0.0000E+00 zmoment=   0.0000E+00
 nd#    1061  xforce=   0.0000E+00   yforce=   0.0000E+00  zforce=  -9.9567E+01   energy=  -5.5764E-03   setid =    1061 xmoment=   0.0000E+00 ymoment=   0.0000E+00 zmoment=   0.0000E+00
 nd#    1062  xforce=   0.0000E+00   yforce=   0.0000E+00  zforce=   2.4027E+01   energy=   7.8015E-03   setid =    1062 xmoment=   0.0000E+00 ymoment=   0.0000E+00 zmoment=   0.0000E+00
              xtotal=   0.0000E+00   ytotal=   0.0000E+00  ztotal=  -3.3819E+03   etotal=   5.9530E-01

 n o d a l   f o r c e/e n e r g y    o u t p u t  t=   1.10956E+01

 velocity boundary condition forces/rigid body moments 

 nd#     179  xforce=   0.0000E+00   yforce=   0.0000E+00  zforce=  -2.2708E+02   energy=   3.5488E-02   setid =     179 xmoment=   0.0000E+00 ymoment=   0.0000E+00 zmoment=   0.0000E+00
 nd#     180  xforce=   0.0000E+00   yforce=   0.0000E+00  zforce=  -2.2610E+02   energy=   4.3361E-02   setid =     180 xmoment=   0.0000E+00 ymoment=   0.0000E+00 zmoment=   0.0000E+00
 nd#     181  xforce=   0.0000E+00   yforce=   0.0000E+00  zforce=  -1.5041E+02   energy=   1.7156E-02   setid =     181 xmoment=   0.0000E+00 ymoment=   0.0000E+00 zmoment=   0.0000E+00
 nd#     182  xforce=   0.0000E+00   yforce=   0.0000E+00  zforce=  -1.3222E+02   energy=   2.1808E-02   setid =     182 xmoment=   0.0000E+00 ymoment=   0.0000E+00 zmoment=   0.0000E+00
 nd#     248  xforce=   0.0000E+00   yforce=   0.0000E+00  zforce=  -6.2243E+01   energy=   3.0654E-03   setid =     248 xmoment=   0.0000E+00 ymoment=   0.0000E+00 zmoment=   0.0000E+00
 nd#     284  xforce=   0.0000E+00   yforce=   0.0000E+00  zforce=   1.2190E+01   energy=  -1.1727E-02   setid =     284 xmoment=   0.0000E+00 ymoment=   0.0000E+00 zmoment=   0.0000E+00
 nd#     333  xforce=   0.0000E+00   yforce=   0.0000E+00  zforce=  -4.9425E+01   energy=   1.0448E-02   setid =     333 xmoment=   0.0000E+00 ymoment=   0.0000E+00 zmoment=   0.0000E+00
 nd#     334  xforce=   0.0000E+00   yforce=   0.0000E+00  zforce=  -7.4169E+01   energy=   1.7806E-02   setid =     334 xmoment=   0.0000E+00 ymoment=   0.0000E+00 zmoment=   0.0000E+00
 nd#     335  xforce=   0.0000E+00   yforce=   0.0000E+00  zforce=  -1.8587E+02   energy=   2.3697E-02   setid =     335 xmoment=   0.0000E+00 ymoment=   0.0000E+00 zmoment=   0.0000E+00
 nd#     436  xforce=   0.0000E+00   yforce=   0.0000E+00  zforce=  -1.4464E+02   energy=   2.4748E-02   setid =     436 xmoment=   0.0000E+00 ymoment=   0.0000E+00 zmoment=   0.0000E+00
 nd#     628  xforce=   0.0000E+00   yforce=   0.0000E+00  zforce=  -2.4028E+02   energy=   2.8228E-02   setid =     628 xmoment=   0.0000E+00 ymoment=   0.0000E+00 zmoment=   0.0000E+00
 nd#     631  xforce=   0.0000E+00   yforce=   0.0000E+00  zforce=  -1.5670E+02   energy=   2.5603E-02   setid =     631 xmoment=   0.0000E+00 ymoment=   0.0000E+00 zmoment=   0.0000E+00
 nd#     632  xforce=   0.0000E+00   yforce=   0.0000E+00  zforce=  -2.7598E+02   energy=   3.0490E-02   setid =     632 xmoment=   0.0000E+00 ymoment=   0.0000E+00 zmoment=   0.0000E+00
 nd#     635  xforce=   0.0000E+00   yforce=   0.0000E+00  zforce=  -3.5809E+02   energy=   3.5371E-02   setid =     635 xmoment=   0.0000E+00 ymoment=   0.0000E+00 zmoment=   0.0000E+00
 nd#     636  xforce=   0.0000E+00   yforce=   0.0000E+00  zforce=  -1.5206E+02   energy=   2.2212E-02   setid =     636 xmoment=   0.0000E+00 ymoment=   0.0000E+00 zmoment=   0.0000E+00
 nd#     639  xforce=   0.0000E+00   yforce=   0.0000E+00  zforce=  -1.4467E+02   energy=   2.7995E-02   setid =     639 xmoment=   0.0000E+00 ymoment=   0.0000E+00 zmoment=   0.0000E+00
 nd#     692  xforce=   0.0000E+00   yforce=   0.0000E+00  zforce=  -2.0326E+02   energy=   2.8095E-02   setid =     692 xmoment=   0.0000E+00 ymoment=   0.0000E+00 zmoment=   0.0000E+00
 nd#     694  xforce=   0.0000E+00   yforce=   0.0000E+00  zforce=  -2.5144E+02   energy=   3.5686E-02   setid =     694 xmoment=   0.0000E+00 ymoment=   0.0000E+00 zmoment=   0.0000E+00
 nd#     696  xforce=   0.0000E+00   yforce=   0.0000E+00  zforce=  -8.4443E+01   energy=   2.6147E-02   setid =     696 xmoment=   0.0000E+00 ymoment=   0.0000E+00 zmoment=   0.0000E+00
 nd#     900  xforce=   0.0000E+00   yforce=   0.0000E+00  zforce=  -1.3506E+02   energy=   2.2794E-02   setid =     900 xmoment=   0.0000E+00 ymoment=   0.0000E+00 zmoment=   0.0000E+00
 nd#     902  xforce=   0.0000E+00   yforce=   0.0000E+00  zforce=  -1.5509E+02   energy=   2.7458E-02   setid =     902 xmoment=   0.0000E+00 ymoment=   0.0000E+00 zmoment=   0.0000E+00
 nd#     903  xforce=   0.0000E+00   yforce=   0.0000E+00  zforce=  -8.7452E+01   energy=   5.1179E-03   setid =     903 xmoment=   0.0000E+00 ymoment=   0.0000E+00 zmoment=   0.0000E+00
 nd#     905  xforce=   0.0000E+00   yforce=   0.0000E+00  zforce=  -2.0020E+02   energy=   2.8336E-02   setid =     905 xmoment=   0.0000E+00 ymoment=   0.0000E+00 zmoment=   0.0000E+00
 nd#     906  xforce=   0.0000E+00   yforce=   0.0000E+00  zforce=  -7.5795E+00   energy=   1.1733E-02   setid =     906 xmoment=   0.0000E+00 ymoment=   0.0000E+00 zmoment=   0.0000E+00
 nd#     908  xforce=   0.0000E+00   yforce=   0.0000E+00  zforce=  -6.3182E+01   energy=   1.3274E-02   setid =     908 xmoment=   0.0000E+00 ymoment=   0.0000E+00 zmoment=   0.0000E+00
 nd#    1012  xforce=   0.0000E+00   yforce=   0.0000E+00  zforce=  -2.1307E+02   energy=   2.6108E-02   setid =    1012 xmoment=   0.0000E+00 ymoment=   0.0000E+00 zmoment=   0.0000E+00
 nd#    1013  xforce=   0.0000E+00   yforce=   0.0000E+00  zforce=  -1.8188E+02   energy=   2.8652E-02   setid =    1013 xmoment=   0.0000E+00 ymoment=   0.0000E+00 zmoment=   0.0000E+00
 nd#    1014  xforce=   0.0000E+00   yforce=   0.0000E+00  zforce=  -1.1691E+02   energy=   3.3113E-02   setid =    1014 xmoment=   0.0000E+00 ymoment=   0.0000E+00 zmoment=   0.0000E+00
 nd#    1060  xforce=   0.0000E+00   yforce=   0.0000E+00  zforce=  -2.4975E+01   energy=   7.3758E-03   setid =    1060 xmoment=   0.0000E+00 ymoment=   0.0000E+00 zmoment=   0.0000E+00
 nd#    1061  xforce=   0.0000E+00   yforce=   0.0000E+00  zforce=   9.3701E+01   energy=  -5.0615E-03   setid =    1061 xmoment=   0.0000E+00 ymoment=   0.0000E+00 zmoment=   0.0000E+00
 nd#    1062  xforce=   0.0000E+00   yforce=   0.0000E+00  zforce=   5.9354E+00   energy=   7.5845E-03   setid =    1062 xmoment=   0.0000E+00 ymoment=   0.0000E+00 zmoment=   0.0000E+00
              xtotal=   0.0000E+00   ytotal=   0.0000E+00  ztotal=  -4.1927E+03   etotal=   6.5216E-01

 n o d a l   f o r c e/e n e r g y    o u t p u t  t=   1.21247E+01

 velocity boundary condition forces/rigid body moments 

 nd#     179  xforce=   0.0000E+00   yforce=   0.0000E+00  zforce=  -2.9648E+02   energy=   4.1145E-02   setid =     179 xmoment=   0.0000E+00 ymoment=   0.0000E+00 zmoment=   0.0000E+00
 nd#     180  xforce=   0.0000E+00   yforce=   0.0000E+00  zforce=  -2.1080E+02   energy=   4.7444E-02   setid =     180 xmoment=   0.0000E+00 ymoment=   0.0000E+00 zmoment=   0.0000E+00
 nd#     181  xforce=   0.0000E+00   yforce=   0.0000E+00  zforce=  -1.4958E+02   energy=   2.0095E-02   setid =     181 xmoment=   0.0000E+00 ymoment=   0.0000E+00 zmoment=   0.0000E+00
 nd#     182  xforce=   0.0000E+00   yforce=   0.0000E+00  zforce=  -1.5400E+02   energy=   2.4601E-02   setid =     182 xmoment=   0.0000E+00 ymoment=   0.0000E+00 zmoment=   0.0000E+00
 nd#     248  xforce=   0.0000E+00   yforce=   0.0000E+00  zforce=  -4.2746E-01   energy=   3.1943E-03   setid =     248 xmoment=   0.0000E+00 ymoment=   0.0000E+00 zmoment=   0.0000E+00
 nd#     284  xforce=   0.0000E+00   yforce=   0.0000E+00  zforce=   1.2467E+01   energy=  -1.1835E-02   setid =     284 xmoment=   0.0000E+00 ymoment=   0.0000E+00 zmoment=   0.0000E+00
 nd#     333  xforce=   0.0000E+00   yforce=   0.0000E+00  zforce=  -5.2795E-01   energy=   1.0510E-02   setid =     333 xmoment=   0.0000E+00 ymoment=   0.0000E+00 zmoment=   0.0000E+00
 nd#     334  xforce=   0.0000E+00   yforce=   0.0000E+00  zforce=  -4.7161E+01   energy=   1.8347E-02   setid =     334 xmoment=   0.0000E+00 ymoment=   0.0000E+00 zmoment=   0.0000E+00
 nd#     335  xforce=   0.0000E+00   yforce=   0.0000E+00  zforce=  -3.6249E+01   energy=   2.5171E-02   setid =     335 xmoment=   0.0000E+00 ymoment=   0.0000E+00 zmoment=   0.0000E+00
 nd#     436  xforce=   0.0000E+00   yforce=   0.0000E+00  zforce=  -1.3248E+02   energy=   2.7201E-02   setid =     436 xmoment=   0.0000E+00 ymoment=   0.0000E+00 zmoment=   0.0000E+00
 nd#     628  xforce=   0.0000E+00   yforce=   0.0000E+00  zforce=  -1.7540E+02   energy=   3.2087E-02   setid =     628 xmoment=   0.0000E+00 ymoment=   0.0000E+00 zmoment=   0.0000E+00
 nd#     631  xforce=   0.0000E+00   yforce=   0.0000E+00  zforce=  -1.3986E+02   energy=   2.8479E-02   setid =     631 xmoment=   0.0000E+00 ymoment=   0.0000E+00 zmoment=   0.0000E+00
 nd#     632  xforce=   0.0000E+00   yforce=   0.0000E+00  zforce=  -1.2526E+02   energy=   3.3630E-02   setid =     632 xmoment=   0.0000E+00 ymoment=   0.0000E+00 zmoment=   0.0000E+00
 nd#     635  xforce=   0.0000E+00   yforce=   0.0000E+00  zforce=  -2.1863E+02   energy=   4.0217E-02   setid =     635 xmoment=   0.0000E+00 ymoment=   0.0000E+00 zmoment=   0.0000E+00
 nd#     636  xforce=   0.0000E+00   yforce=   0.0000E+00  zforce=  -1.3544E+02   energy=   2.4606E-02   setid =     636 xmoment=   0.0000E+00 ymoment=   0.0000E+00 zmoment=   0.0000E+00
 nd#     639  xforce=   0.0000E+00   yforce=   0.0000E+00  zforce=  -1.2180E+02   energy=   3.0521E-02   setid =     639 xmoment=   0.0000E+00 ymoment=   0.0000E+00 zmoment=   0.0000E+00
 nd#     692  xforce=   0.0000E+00   yforce=   0.0000E+00  zforce=  -1.5520E+02   energy=   3.1323E-02   setid =     692 xmoment=   0.0000E+00 ymoment=   0.0000E+00 zmoment=   0.0000E+00
 nd#     694  xforce=   0.0000E+00   yforce=   0.0000E+00  zforce=  -1.4325E+02   energy=   3.9064E-02   setid =     694 xmoment=   0.0000E+00 ymoment=   0.0000E+00 zmoment=   0.0000E+00
 nd#     696  xforce=   0.0000E+00   yforce=   0.0000E+00  zforce=  -1.3317E+02   energy=   2.8166E-02   setid =     696 xmoment=   0.0000E+00 ymoment=   0.0000E+00 zmoment=   0.0000E+00
 nd#     900  xforce=   0.0000E+00   yforce=   0.0000E+00  zforce=  -9.7721E+01   energy=   2.5126E-02   setid =     900 xmoment=   0.0000E+00 ymoment=   0.0000E+00 zmoment=   0.0000E+00
 nd#     902  xforce=   0.0000E+00   yforce=   0.0000E+00  zforce=  -1.0649E+02   energy=   2.9103E-02   setid =     902 xmoment=   0.0000E+00 ymoment=   0.0000E+00 zmoment=   0.0000E+00
 nd#     903  xforce=   0.0000E+00   yforce=   0.0000E+00  zforce=  -9.7053E+01   energy=   7.4067E-03   setid =     903 xmoment=   0.0000E+00 ymoment=   0.0000E+00 zmoment=   0.0000E+00
 nd#     905  xforce=   0.0000E+00   yforce=   0.0000E+00  zforce=  -1.7375E+02   energy=   3.2412E-02   setid =     905 xmoment=   0.0000E+00 ymoment=   0.0000E+00 zmoment=   0.0000E+00
 nd#     906  xforce=   0.0000E+00   yforce=   0.0000E+00  zforce=   1.1417E+01   energy=   1.1729E-02   setid =     906 xmoment=   0.0000E+00 ymoment=   0.0000E+00 zmoment=   0.0000E+00
 nd#     908  xforce=   0.0000E+00   yforce=   0.0000E+00  zforce=  -2.1095E+01   energy=   1.3982E-02   setid =     908 xmoment=   0.0000E+00 ymoment=   0.0000E+00 zmoment=   0.0000E+00
 nd#    1012  xforce=   0.0000E+00   yforce=   0.0000E+00  zforce=  -2.7662E+02   energy=   3.1363E-02   setid =    1012 xmoment=   0.0000E+00 ymoment=   0.0000E+00 zmoment=   0.0000E+00
 nd#    1013  xforce=   0.0000E+00   yforce=   0.0000E+00  zforce=  -1.9667E+02   energy=   3.2585E-02   setid =    1013 xmoment=   0.0000E+00 ymoment=   0.0000E+00 zmoment=   0.0000E+00
 nd#    1014  xforce=   0.0000E+00   yforce=   0.0000E+00  zforce=  -1.9475E+02   energy=   3.6651E-02   setid =    1014 xmoment=   0.0000E+00 ymoment=   0.0000E+00 zmoment=   0.0000E+00
 nd#    1060  xforce=   0.0000E+00   yforce=   0.0000E+00  zforce=  -8.4155E+01   energy=   8.9902E-03   setid =    1060 xmoment=   0.0000E+00 ymoment=   0.0000E+00 zmoment=   0.0000E+00
 nd#    1061  xforce=   0.0000E+00   yforce=   0.0000E+00  zforce=   4.6426E+01   energy=  -6.4178E-03   setid =    1061 xmoment=   0.0000E+00 ymoment=   0.0000E+00 zmoment=   0.0000E+00
 nd#    1062  xforce=   0.0000E+00   yforce=   0.0000E+00  zforce=   7.9456E+00   energy=   7.5279E-03   setid =    1062 xmoment=   0.0000E+00 ymoment=   0.0000E+00 zmoment=   0.0000E+00
              xtotal=   0.0000E+00   ytotal=   0.0000E+00  ztotal=  -3.5458E+03   etotal=   7.2442E-01

 n o d a l   f o r c e/e n e r g y    o u t p u t  t=   1.31247E+01

 velocity boundary condition forces/rigid body moments 

 nd#     179  xforce=   0.0000E+00   yforce=   0.0000E+00  zforce=  -2.7378E+02   energy=   4.6924E-02   setid =     179 xmoment=   0.0000E+00 ymoment=   0.0000E+00 zmoment=   0.0000E+00
 nd#     180  xforce=   0.0000E+00   yforce=   0.0000E+00  zforce=  -1.6721E+02   energy=   5.1389E-02   setid =     180 xmoment=   0.0000E+00 ymoment=   0.0000E+00 zmoment=   0.0000E+00
 nd#     181  xforce=   0.0000E+00   yforce=   0.0000E+00  zforce=  -1.3819E+02   energy=   2.3008E-02   setid =     181 xmoment=   0.0000E+00 ymoment=   0.0000E+00 zmoment=   0.0000E+00
 nd#     182  xforce=   0.0000E+00   yforce=   0.0000E+00  zforce=  -1.6887E+02   energy=   2.7804E-02   setid =     182 xmoment=   0.0000E+00 ymoment=   0.0000E+00 zmoment=   0.0000E+00
 nd#     248  xforce=   0.0000E+00   yforce=   0.0000E+00  zforce=  -1.1188E+01   energy=   3.2698E-03   setid =     248 xmoment=   0.0000E+00 ymoment=   0.0000E+00 zmoment=   0.0000E+00
 nd#     284  xforce=   0.0000E+00   yforce=   0.0000E+00  zforce=   1.0749E+01   energy=  -1.2253E-02   setid =     284 xmoment=   0.0000E+00 ymoment=   0.0000E+00 zmoment=   0.0000E+00
 nd#     333  xforce=   0.0000E+00   yforce=   0.0000E+00  zforce=   4.0368E+00   energy=   1.0409E-02   setid =     333 xmoment=   0.0000E+00 ymoment=   0.0000E+00 zmoment=   0.0000E+00
[...]
 nd#     905  xforce=   0.0000E+00   yforce=   0.0000E+00  zforce=   2.0555E+01   energy=   1.4054E-01   setid =     905 xmoment=   0.0000E+00 ymoment=   0.0000E+00 zmoment=   0.0000E+00
 nd#     906  xforce=   0.0000E+00   yforce=   0.0000E+00  zforce=  -1.9726E+01   energy=   4.9734E-02   setid =     906 xmoment=   0.0000E+00 ymoment=   0.0000E+00 zmoment=   0.0000E+00
 nd#     908  xforce=   0.0000E+00   yforce=   0.0000E+00  zforce=  -5.4928E+01   energy=   6.2873E-02   setid =     908 xmoment=   0.0000E+00 ymoment=   0.0000E+00 zmoment=   0.0000E+00
 nd#    1012  xforce=   0.0000E+00   yforce=   0.0000E+00  zforce=  -3.2218E+01   energy=   1.9361E-01   setid =    1012 xmoment=   0.0000E+00 ymoment=   0.0000E+00 zmoment=   0.0000E+00
 nd#    1013  xforce=   0.0000E+00   yforce=   0.0000E+00  zforce=   2.5131E+00   energy=   8.6720E-02   setid =    1013 xmoment=   0.0000E+00 ymoment=   0.0000E+00 zmoment=   0.0000E+00
 nd#    1014  xforce=   0.0000E+00   yforce=   0.0000E+00  zforce=   3.9136E+00   energy=   1.0611E-01   setid =    1014 xmoment=   0.0000E+00 ymoment=   0.0000E+00 zmoment=   0.0000E+00
 nd#    1060  xforce=   0.0000E+00   yforce=   0.0000E+00  zforce=  -6.0165E+00   energy=   2.7138E-02   setid =    1060 xmoment=   0.0000E+00 ymoment=   0.0000E+00 zmoment=   0.0000E+00
 nd#    1061  xforce=   0.0000E+00   yforce=   0.0000E+00  zforce=  -5.0820E+00   energy=  -1.8751E-03   setid =    1061 xmoment=   0.0000E+00 ymoment=   0.0000E+00 zmoment=   0.0000E+00
 nd#    1062  xforce=   0.0000E+00   yforce=   0.0000E+00  zforce=   0.0000E+00   energy=   6.3159E-03   setid =    1062 xmoment=   0.0000E+00 ymoment=   0.0000E+00 zmoment=   0.0000E+00
              xtotal=   0.0000E+00   ytotal=   0.0000E+00  ztotal=  -2.8134E+01   etotal=   2.8265E+00

 n o d a l   f o r c e/e n e r g y    o u t p u t  t=   9.31139E+01

 velocity boundary condition forces/rigid body moments 

 nd#     179  xforce=   0.0000E+00   yforce=   0.0000E+00  zforce=  -1.8840E+01   energy=   1.9842E-01   setid =     179 xmoment=   0.0000E+00 ymoment=   0.0000E+00 zmoment=   0.0000E+00
 nd#     180  xforce=   0.0000E+00   yforce=   0.0000E+00  zforce=   6.9968E+01   energy=   9.8492E-02   setid =     180 xmoment=   0.0000E+00 ymoment=   0.0000E+00 zmoment=   0.0000E+00
 nd#     181  xforce=   0.0000E+00   yforce=   0.0000E+00  zforce=  -2.3438E+01   energy=   1.3678E-01   setid =     181 xmoment=   0.0000E+00 ymoment=   0.0000E+00 zmoment=   0.0000E+00
 nd#     182  xforce=   0.0000E+00   yforce=   0.0000E+00  zforce=   1.7701E+01   energy=   1.2910E-01   setid =     182 xmoment=   0.0000E+00 ymoment=   0.0000E+00 zmoment=   0.0000E+00
 nd#     248  xforce=   0.0000E+00   yforce=   0.0000E+00  zforce=  -2.4730E+01   energy=   2.0806E-02   setid =     248 xmoment=   0.0000E+00 ymoment=   0.0000E+00 zmoment=   0.0000E+00
 nd#     284  xforce=   0.0000E+00   yforce=   0.0000E+00  zforce=  -1.3099E+02   energy=   6.3122E-02   setid =     284 xmoment=   0.0000E+00 ymoment=   0.0000E+00 zmoment=   0.0000E+00
 nd#     333  xforce=   0.0000E+00   yforce=   0.0000E+00  zforce=   3.1631E+01   energy=   9.5615E-03   setid =     333 xmoment=   0.0000E+00 ymoment=   0.0000E+00 zmoment=   0.0000E+00
 nd#     334  xforce=   0.0000E+00   yforce=   0.0000E+00  zforce=   5.4459E+01   energy=  -2.4719E-03   setid =     334 xmoment=   0.0000E+00 ymoment=   0.0000E+00 zmoment=   0.0000E+00
 nd#     335  xforce=   0.0000E+00   yforce=   0.0000E+00  zforce=   4.9836E+01   energy=  -1.1395E-03   setid =     335 xmoment=   0.0000E+00 ymoment=   0.0000E+00 zmoment=   0.0000E+00
 nd#     436  xforce=   0.0000E+00   yforce=   0.0000E+00  zforce=   6.8870E+01   energy=   9.3473E-02   setid =     436 xmoment=   0.0000E+00 ymoment=   0.0000E+00 zmoment=   0.0000E+00
 nd#     628  xforce=   0.0000E+00   yforce=   0.0000E+00  zforce=  -1.4860E+01   energy=   1.7590E-01   setid =     628 xmoment=   0.0000E+00 ymoment=   0.0000E+00 zmoment=   0.0000E+00
 nd#     631  xforce=   0.0000E+00   yforce=   0.0000E+00  zforce=   1.9729E+00   energy=   1.3468E-01   setid =     631 xmoment=   0.0000E+00 ymoment=   0.0000E+00 zmoment=   0.0000E+00
 nd#     632  xforce=   0.0000E+00   yforce=   0.0000E+00  zforce=   5.7382E+01   energy=   8.9920E-02   setid =     632 xmoment=   0.0000E+00 ymoment=   0.0000E+00 zmoment=   0.0000E+00
 nd#     635  xforce=   0.0000E+00   yforce=   0.0000E+00  zforce=  -4.9756E-02   energy=   1.7324E-01   setid =     635 xmoment=   0.0000E+00 ymoment=   0.0000E+00 zmoment=   0.0000E+00
 nd#     636  xforce=   0.0000E+00   yforce=   0.0000E+00  zforce=   1.7966E+01   energy=   7.5659E-02   setid =     636 xmoment=   0.0000E+00 ymoment=   0.0000E+00 zmoment=   0.0000E+00
 nd#     639  xforce=   0.0000E+00   yforce=   0.0000E+00  zforce=   4.5195E+01   energy=   4.5341E-02   setid =     639 xmoment=   0.0000E+00 ymoment=   0.0000E+00 zmoment=   0.0000E+00
 nd#     692  xforce=   0.0000E+00   yforce=   0.0000E+00  zforce=  -3.6299E+00   energy=   1.2728E-01   setid =     692 xmoment=   0.0000E+00 ymoment=   0.0000E+00 zmoment=   0.0000E+00
 nd#     694  xforce=   0.0000E+00   yforce=   0.0000E+00  zforce=   7.7836E+01   energy=   8.6692E-02   setid =     694 xmoment=   0.0000E+00 ymoment=   0.0000E+00 zmoment=   0.0000E+00
 nd#     696  xforce=   0.0000E+00   yforce=   0.0000E+00  zforce=   9.8453E+00   energy=   9.1962E-02   setid =     696 xmoment=   0.0000E+00 ymoment=   0.0000E+00 zmoment=   0.0000E+00
 nd#     900  xforce=   0.0000E+00   yforce=   0.0000E+00  zforce=  -8.2741E+01   energy=   1.3145E-01   setid =     900 xmoment=   0.0000E+00 ymoment=   0.0000E+00 zmoment=   0.0000E+00
 nd#     902  xforce=   0.0000E+00   yforce=   0.0000E+00  zforce=  -1.2562E+02   energy=   2.2430E-01   setid =     902 xmoment=   0.0000E+00 ymoment=   0.0000E+00 zmoment=   0.0000E+00
 nd#     903  xforce=   0.0000E+00   yforce=   0.0000E+00  zforce=  -1.8877E+01   energy=   4.6734E-02   setid =     903 xmoment=   0.0000E+00 ymoment=   0.0000E+00 zmoment=   0.0000E+00
 nd#     905  xforce=   0.0000E+00   yforce=   0.0000E+00  zforce=   2.2384E+01   energy=   1.3839E-01   setid =     905 xmoment=   0.0000E+00 ymoment=   0.0000E+00 zmoment=   0.0000E+00
 nd#     906  xforce=   0.0000E+00   yforce=   0.0000E+00  zforce=  -1.8518E+01   energy=   5.1646E-02   setid =     906 xmoment=   0.0000E+00 ymoment=   0.0000E+00 zmoment=   0.0000E+00
 nd#     908  xforce=   0.0000E+00   yforce=   0.0000E+00  zforce=  -4.9640E+01   energy=   6.8101E-02   setid =     908 xmoment=   0.0000E+00 ymoment=   0.0000E+00 zmoment=   0.0000E+00
 nd#    1012  xforce=   0.0000E+00   yforce=   0.0000E+00  zforce=  -3.1521E+01   energy=   1.9680E-01   setid =    1012 xmoment=   0.0000E+00 ymoment=   0.0000E+00 zmoment=   0.0000E+00
 nd#    1013  xforce=   0.0000E+00   yforce=   0.0000E+00  zforce=   1.0753E+00   energy=   8.6540E-02   setid =    1013 xmoment=   0.0000E+00 ymoment=   0.0000E+00 zmoment=   0.0000E+00
 nd#    1014  xforce=   0.0000E+00   yforce=   0.0000E+00  zforce=   3.6356E+00   energy=   1.0573E-01   setid =    1014 xmoment=   0.0000E+00 ymoment=   0.0000E+00 zmoment=   0.0000E+00
 nd#    1060  xforce=   0.0000E+00   yforce=   0.0000E+00  zforce=  -5.4602E+00   energy=   2.7712E-02   setid =    1060 xmoment=   0.0000E+00 ymoment=   0.0000E+00 zmoment=   0.0000E+00
 nd#    1061  xforce=   0.0000E+00   yforce=   0.0000E+00  zforce=  -3.1716E+00   energy=  -1.4625E-03   setid =    1061 xmoment=   0.0000E+00 ymoment=   0.0000E+00 zmoment=   0.0000E+00
 nd#    1062  xforce=   0.0000E+00   yforce=   0.0000E+00  zforce=   0.0000E+00   energy=   6.3159E-03   setid =    1062 xmoment=   0.0000E+00 ymoment=   0.0000E+00 zmoment=   0.0000E+00
              xtotal=   0.0000E+00   ytotal=   0.0000E+00  ztotal=  -2.2324E+01   etotal=   2.8291E+00

 n o d a l   f o r c e/e n e r g y    o u t p u t  t=   9.81139E+01

 velocity boundary condition forces/rigid body moments 

 nd#     179  xforce=   0.0000E+00   yforce=   0.0000E+00  zforce=  -1.6473E+01   energy=   2.0018E-01   setid =     179 xmoment=   0.0000E+00 ymoment=   0.0000E+00 zmoment=   0.0000E+00
 nd#     180  xforce=   0.0000E+00   yforce=   0.0000E+00  zforce=   6.6560E+01   energy=   9.1665E-02   setid =     180 xmoment=   0.0000E+00 ymoment=   0.0000E+00 zmoment=   0.0000E+00
 nd#     181  xforce=   0.0000E+00   yforce=   0.0000E+00  zforce=  -2.5782E+01   energy=   1.3924E-01   setid =     181 xmoment=   0.0000E+00 ymoment=   0.0000E+00 zmoment=   0.0000E+00
 nd#     182  xforce=   0.0000E+00   yforce=   0.0000E+00  zforce=   1.8397E+01   energy=   1.2730E-01   setid =     182 xmoment=   0.0000E+00 ymoment=   0.0000E+00 zmoment=   0.0000E+00
 nd#     248  xforce=   0.0000E+00   yforce=   0.0000E+00  zforce=  -2.8646E+01   energy=   2.3474E-02   setid =     248 xmoment=   0.0000E+00 ymoment=   0.0000E+00 zmoment=   0.0000E+00
 nd#     284  xforce=   0.0000E+00   yforce=   0.0000E+00  zforce=  -1.3781E+02   energy=   7.6561E-02   setid =     284 xmoment=   0.0000E+00 ymoment=   0.0000E+00 zmoment=   0.0000E+00
 nd#     333  xforce=   0.0000E+00   yforce=   0.0000E+00  zforce=   3.1291E+01   energy=   6.4154E-03   setid =     333 xmoment=   0.0000E+00 ymoment=   0.0000E+00 zmoment=   0.0000E+00
 nd#     334  xforce=   0.0000E+00   yforce=   0.0000E+00  zforce=   6.0694E+01   energy=  -8.2296E-03   setid =     334 xmoment=   0.0000E+00 ymoment=   0.0000E+00 zmoment=   0.0000E+00
 nd#     335  xforce=   0.0000E+00   yforce=   0.0000E+00  zforce=   4.8154E+01   energy=  -6.0390E-03   setid =     335 xmoment=   0.0000E+00 ymoment=   0.0000E+00 zmoment=   0.0000E+00
 nd#     436  xforce=   0.0000E+00   yforce=   0.0000E+00  zforce=   7.1735E+01   energy=   8.6442E-02   setid =     436 xmoment=   0.0000E+00 ymoment=   0.0000E+00 zmoment=   0.0000E+00
 nd#     628  xforce=   0.0000E+00   yforce=   0.0000E+00  zforce=  -1.3324E+01   energy=   1.7731E-01   setid =     628 xmoment=   0.0000E+00 ymoment=   0.0000E+00 zmoment=   0.0000E+00
 nd#     631  xforce=   0.0000E+00   yforce=   0.0000E+00  zforce=   2.6831E+00   energy=   1.3445E-01   setid =     631 xmoment=   0.0000E+00 ymoment=   0.0000E+00 zmoment=   0.0000E+00
 nd#     632  xforce=   0.0000E+00   yforce=   0.0000E+00  zforce=   5.7872E+01   energy=   8.4158E-02   setid =     632 xmoment=   0.0000E+00 ymoment=   0.0000E+00 zmoment=   0.0000E+00
 nd#     635  xforce=   0.0000E+00   yforce=   0.0000E+00  zforce=  -1.9477E+00   energy=   1.7334E-01   setid =     635 xmoment=   0.0000E+00 ymoment=   0.0000E+00 zmoment=   0.0000E+00
 nd#     636  xforce=   0.0000E+00   yforce=   0.0000E+00  zforce=   2.0305E+01   energy=   7.3745E-02   setid =     636 xmoment=   0.0000E+00 ymoment=   0.0000E+00 zmoment=   0.0000E+00
 nd#     639  xforce=   0.0000E+00   yforce=   0.0000E+00  zforce=   4.0515E+01   energy=   4.1056E-02   setid =     639 xmoment=   0.0000E+00 ymoment=   0.0000E+00 zmoment=   0.0000E+00
 nd#     692  xforce=   0.0000E+00   yforce=   0.0000E+00  zforce=  -4.7336E+00   energy=   1.2769E-01   setid =     692 xmoment=   0.0000E+00 ymoment=   0.0000E+00 zmoment=   0.0000E+00
 nd#     694  xforce=   0.0000E+00   yforce=   0.0000E+00  zforce=   7.5404E+01   energy=   7.9030E-02   setid =     694 xmoment=   0.0000E+00 ymoment=   0.0000E+00 zmoment=   0.0000E+00
 nd#     696  xforce=   0.0000E+00   yforce=   0.0000E+00  zforce=   1.0323E+01   energy=   9.0954E-02   setid =     696 xmoment=   0.0000E+00 ymoment=   0.0000E+00 zmoment=   0.0000E+00
 nd#     900  xforce=   0.0000E+00   yforce=   0.0000E+00  zforce=  -7.7285E+01   energy=   1.3945E-01   setid =     900 xmoment=   0.0000E+00 ymoment=   0.0000E+00 zmoment=   0.0000E+00
 nd#     902  xforce=   0.0000E+00   yforce=   0.0000E+00  zforce=  -1.2735E+02   energy=   2.3695E-01   setid =     902 xmoment=   0.0000E+00 ymoment=   0.0000E+00 zmoment=   0.0000E+00
 nd#     903  xforce=   0.0000E+00   yforce=   0.0000E+00  zforce=  -1.9101E+00   energy=   4.7773E-02   setid =     903 xmoment=   0.0000E+00 ymoment=   0.0000E+00 zmoment=   0.0000E+00
 nd#     905  xforce=   0.0000E+00   yforce=   0.0000E+00  zforce=   2.4257E+01   energy=   1.3606E-01   setid =     905 xmoment=   0.0000E+00 ymoment=   0.0000E+00 zmoment=   0.0000E+00
 nd#     906  xforce=   0.0000E+00   yforce=   0.0000E+00  zforce=  -2.0355E+01   energy=   5.3590E-02   setid =     906 xmoment=   0.0000E+00 ymoment=   0.0000E+00 zmoment=   0.0000E+00
 nd#     908  xforce=   0.0000E+00   yforce=   0.0000E+00  zforce=  -4.8402E+01   energy=   7.3004E-02   setid =     908 xmoment=   0.0000E+00 ymoment=   0.0000E+00 zmoment=   0.0000E+00
 nd#    1012  xforce=   0.0000E+00   yforce=   0.0000E+00  zforce=  -3.1568E+01   energy=   1.9995E-01   setid =    1012 xmoment=   0.0000E+00 ymoment=   0.0000E+00 zmoment=   0.0000E+00
 nd#    1013  xforce=   0.0000E+00   yforce=   0.0000E+00  zforce=  -9.3669E-01   energy=   8.6534E-02   setid =    1013 xmoment=   0.0000E+00 ymoment=   0.0000E+00 zmoment=   0.0000E+00
 nd#    1014  xforce=   0.0000E+00   yforce=   0.0000E+00  zforce=   3.2909E+00   energy=   1.0539E-01   setid =    1014 xmoment=   0.0000E+00 ymoment=   0.0000E+00 zmoment=   0.0000E+00
 nd#    1060  xforce=   0.0000E+00   yforce=   0.0000E+00  zforce=  -2.1764E+00   energy=   2.8093E-02   setid =    1060 xmoment=   0.0000E+00 ymoment=   0.0000E+00 zmoment=   0.0000E+00
 nd#    1061  xforce=   0.0000E+00   yforce=   0.0000E+00  zforce=  -9.6741E+00   energy=  -8.2017E-04   setid =    1061 xmoment=   0.0000E+00 ymoment=   0.0000E+00 zmoment=   0.0000E+00
 nd#    1062  xforce=   0.0000E+00   yforce=   0.0000E+00  zforce=   0.0000E+00   energy=   6.3159E-03   setid =    1062 xmoment=   0.0000E+00 ymoment=   0.0000E+00 zmoment=   0.0000E+00
              xtotal=   0.0000E+00   ytotal=   0.0000E+00  ztotal=  -1.6897E+01   etotal=   2.8310E+00

 n o d a l   f o r c e/e n e r g y    o u t p u t  t=   1.00000E+02

 velocity boundary condition forces/rigid body moments 

 nd#     179  xforce=   0.0000E+00   yforce=   0.0000E+00  zforce=  -1.3189E+01   energy=   2.0074E-01   setid =     179 xmoment=   0.0000E+00 ymoment=   0.0000E+00 zmoment=   0.0000E+00
 nd#     180  xforce=   0.0000E+00   yforce=   0.0000E+00  zforce=   6.4462E+01   energy=   8.9194E-02   setid =     180 xmoment=   0.0000E+00 ymoment=   0.0000E+00 zmoment=   0.0000E+00
 nd#     181  xforce=   0.0000E+00   yforce=   0.0000E+00  zforce=  -2.7938E+01   energy=   1.4026E-01   setid =     181 xmoment=   0.0000E+00 ymoment=   0.0000E+00 zmoment=   0.0000E+00
 nd#     182  xforce=   0.0000E+00   yforce=   0.0000E+00  zforce=   2.0368E+01   energy=   1.2657E-01   setid =     182 xmoment=   0.0000E+00 ymoment=   0.0000E+00 zmoment=   0.0000E+00
 nd#     248  xforce=   0.0000E+00   yforce=   0.0000E+00  zforce=  -2.8477E+01   energy=   2.4552E-02   setid =     248 xmoment=   0.0000E+00 ymoment=   0.0000E+00 zmoment=   0.0000E+00
 nd#     284  xforce=   0.0000E+00   yforce=   0.0000E+00  zforce=  -1.4208E+02   energy=   8.1840E-02   setid =     284 xmoment=   0.0000E+00 ymoment=   0.0000E+00 zmoment=   0.0000E+00
 nd#     333  xforce=   0.0000E+00   yforce=   0.0000E+00  zforce=   3.0665E+01   energy=   5.2468E-03   setid =     333 xmoment=   0.0000E+00 ymoment=   0.0000E+00 zmoment=   0.0000E+00
 nd#     334  xforce=   0.0000E+00   yforce=   0.0000E+00  zforce=   5.9917E+01   energy=  -1.0504E-02   setid =     334 xmoment=   0.0000E+00 ymoment=   0.0000E+00 zmoment=   0.0000E+00
 nd#     335  xforce=   0.0000E+00   yforce=   0.0000E+00  zforce=   4.6506E+01   energy=  -7.8244E-03   setid =     335 xmoment=   0.0000E+00 ymoment=   0.0000E+00 zmoment=   0.0000E+00
 nd#     436  xforce=   0.0000E+00   yforce=   0.0000E+00  zforce=   7.4646E+01   energy=   8.3681E-02   setid =     436 xmoment=   0.0000E+00 ymoment=   0.0000E+00 zmoment=   0.0000E+00
 nd#     628  xforce=   0.0000E+00   yforce=   0.0000E+00  zforce=  -1.1299E+01   energy=   1.7777E-01   setid =     628 xmoment=   0.0000E+00 ymoment=   0.0000E+00 zmoment=   0.0000E+00
 nd#     631  xforce=   0.0000E+00   yforce=   0.0000E+00  zforce=   3.7643E+00   energy=   1.3433E-01   setid =     631 xmoment=   0.0000E+00 ymoment=   0.0000E+00 zmoment=   0.0000E+00
 nd#     632  xforce=   0.0000E+00   yforce=   0.0000E+00  zforce=   5.8595E+01   energy=   8.1961E-02   setid =     632 xmoment=   0.0000E+00 ymoment=   0.0000E+00 zmoment=   0.0000E+00
 nd#     635  xforce=   0.0000E+00   yforce=   0.0000E+00  zforce=  -1.4887E+00   energy=   1.7340E-01   setid =     635 xmoment=   0.0000E+00 ymoment=   0.0000E+00 zmoment=   0.0000E+00
 nd#     636  xforce=   0.0000E+00   yforce=   0.0000E+00  zforce=   1.9683E+01   energy=   7.2991E-02   setid =     636 xmoment=   0.0000E+00 ymoment=   0.0000E+00 zmoment=   0.0000E+00
 nd#     639  xforce=   0.0000E+00   yforce=   0.0000E+00  zforce=   4.1234E+01   energy=   3.9514E-02   setid =     639 xmoment=   0.0000E+00 ymoment=   0.0000E+00 zmoment=   0.0000E+00
 nd#     692  xforce=   0.0000E+00   yforce=   0.0000E+00  zforce=  -4.2464E+00   energy=   1.2786E-01   setid =     692 xmoment=   0.0000E+00 ymoment=   0.0000E+00 zmoment=   0.0000E+00
 nd#     694  xforce=   0.0000E+00   yforce=   0.0000E+00  zforce=   7.4186E+01   energy=   7.6209E-02   setid =     694 xmoment=   0.0000E+00 ymoment=   0.0000E+00 zmoment=   0.0000E+00
 nd#     696  xforce=   0.0000E+00   yforce=   0.0000E+00  zforce=   9.4135E+00   energy=   9.0582E-02   setid =     696 xmoment=   0.0000E+00 ymoment=   0.0000E+00 zmoment=   0.0000E+00
 nd#     900  xforce=   0.0000E+00   yforce=   0.0000E+00  zforce=  -7.6055E+01   energy=   1.4234E-01   setid =     900 xmoment=   0.0000E+00 ymoment=   0.0000E+00 zmoment=   0.0000E+00
 nd#     902  xforce=   0.0000E+00   yforce=   0.0000E+00  zforce=  -1.2872E+02   energy=   2.4178E-01   setid =     902 xmoment=   0.0000E+00 ymoment=   0.0000E+00 zmoment=   0.0000E+00
 nd#     903  xforce=   0.0000E+00   yforce=   0.0000E+00  zforce=  -6.5772E+00   energy=   4.7933E-02   setid =     903 xmoment=   0.0000E+00 ymoment=   0.0000E+00 zmoment=   0.0000E+00
 nd#     905  xforce=   0.0000E+00   yforce=   0.0000E+00  zforce=   2.4906E+01   energy=   1.3513E-01   setid =     905 xmoment=   0.0000E+00 ymoment=   0.0000E+00 zmoment=   0.0000E+00
 nd#     906  xforce=   0.0000E+00   yforce=   0.0000E+00  zforce=  -1.9194E+01   energy=   5.4336E-02   setid =     906 xmoment=   0.0000E+00 ymoment=   0.0000E+00 zmoment=   0.0000E+00
 nd#     908  xforce=   0.0000E+00   yforce=   0.0000E+00  zforce=  -4.7594E+01   energy=   7.4814E-02   setid =     908 xmoment=   0.0000E+00 ymoment=   0.0000E+00 zmoment=   0.0000E+00
 nd#    1012  xforce=   0.0000E+00   yforce=   0.0000E+00  zforce=  -3.1060E+01   energy=   2.0113E-01   setid =    1012 xmoment=   0.0000E+00 ymoment=   0.0000E+00 zmoment=   0.0000E+00
 nd#    1013  xforce=   0.0000E+00   yforce=   0.0000E+00  zforce=  -1.8419E+00   energy=   8.6586E-02   setid =    1013 xmoment=   0.0000E+00 ymoment=   0.0000E+00 zmoment=   0.0000E+00
 nd#    1014  xforce=   0.0000E+00   yforce=   0.0000E+00  zforce=   4.0122E+00   energy=   1.0525E-01   setid =    1014 xmoment=   0.0000E+00 ymoment=   0.0000E+00 zmoment=   0.0000E+00
 nd#    1060  xforce=   0.0000E+00   yforce=   0.0000E+00  zforce=  -1.6132E+00   energy=   2.8165E-02   setid =    1060 xmoment=   0.0000E+00 ymoment=   0.0000E+00 zmoment=   0.0000E+00
 nd#    1061  xforce=   0.0000E+00   yforce=   0.0000E+00  zforce=  -4.9184E+00   energy=  -5.4494E-04   setid =    1061 xmoment=   0.0000E+00 ymoment=   0.0000E+00 zmoment=   0.0000E+00
 nd#    1062  xforce=   0.0000E+00   yforce=   0.0000E+00  zforce=   0.0000E+00   energy=   6.3159E-03   setid =    1062 xmoment=   0.0000E+00 ymoment=   0.0000E+00 zmoment=   0.0000E+00
              xtotal=   0.0000E+00   ytotal=   0.0000E+00  ztotal=  -1.3933E+01   etotal=   2.8316E+00
