 LS-DYNA keyword deck by LS-PrePost                                      
                    ls-dyna smp d R14 R14.1.1s_1_ef50e1 date 06/16/2024



 n o d a l  s t r e s s  c a l c u l a t i o n s   f o r   t i m e  s t e p        1   ( at time 0.00000E+00 )

 node (global)
          stress       sig-xx      sig-yy      sig-zz      sig-xy      sig-yz      sig-zx       plastic
                                                                                                 strain 
       4-
 mid.  surface     4.3884E-06  4.3884E-06  4.3884E-06  0.0000E+00  0.0000E+00  0.0000E+00  0.0000E+00
       5-
 mid.  surface    -2.2719E-05 -2.2719E-05 -2.2719E-05  0.0000E+00  0.0000E+00  0.0000E+00  0.0000E+00
       6-
 mid.  surface    -1.0466E-04 -1.0466E-04 -1.0466E-04  0.0000E+00  0.0000E+00  0.0000E+00  0.0000E+00
       7-
 mid.  surface    -9.3825E-05 -9.3825E-05 -9.3825E-05  0.0000E+00  0.0000E+00  0.0000E+00  0.0000E+00
       8-
 mid.  surface    -6.4921E-05 -6.4921E-05 -6.4921E-05  0.0000E+00  0.0000E+00  0.0000E+00  0.0000E+00
       9-
 mid.  surface    -5.9035E-05 -5.9035E-05 -5.9035E-05  0.0000E+00  0.0000E+00  0.0000E+00  0.0000E+00
      10-
 mid.  surface    -2.1669E-05 -2.1669E-05 -2.1669E-05  0.0000E+00  0.0000E+00  0.0000E+00  0.0000E+00
      15-
 mid.  surface     2.9827E-05  2.9827E-05  2.9827E-05  0.0000E+00  0.0000E+00  0.0000E+00  0.0000E+00
      16-
 mid.  surface    -3.2415E-05 -3.2415E-05 -3.2415E-05  0.0000E+00  0.0000E+00  0.0000E+00  0.0000E+00
      18-
 mid.  surface     2.3031E-05  2.3031E-05  2.3031E-05  0.0000E+00  0.0000E+00  0.0000E+00  0.0000E+00
      40-
 mid.  surface     7.9568E-05  7.9568E-05  7.9568E-05  0.0000E+00  0.0000E+00  0.0000E+00  0.0000E+00
      41-
 mid.  surface     2.0005E-05  2.0005E-05  2.0005E-05  0.0000E+00  0.0000E+00  0.0000E+00  0.0000E+00
      50-
 mid.  surface     2.6276E-05  2.6276E-05  2.6276E-05  0.0000E+00  0.0000E+00  0.0000E+00  0.0000E+00
      51-
 mid.  surface     1.4888E-04  1.4888E-04  1.4888E-04  0.0000E+00  0.0000E+00  0.0000E+00  0.0000E+00
      52-
 mid.  surface     1.4888E-04  1.4888E-04  1.4888E-04  0.0000E+00  0.0000E+00  0.0000E+00  0.0000E+00
      53-
 mid.  surface    -3.2415E-05 -3.2415E-05 -3.2415E-05  0.0000E+00  0.0000E+00  0.0000E+00  0.0000E+00
      72-
 mid.  surface     8.3389E-05  8.3389E-05  8.3389E-05  0.0000E+00  0.0000E+00  0.0000E+00  0.0000E+00
      95-
 mid.  surface    -4.2418E-05 -4.2418E-05 -4.2418E-05  0.0000E+00  0.0000E+00  0.0000E+00  0.0000E+00
     100-
 mid.  surface     2.3031E-05  2.3031E-05  2.3031E-05  0.0000E+00  0.0000E+00  0.0000E+00  0.0000E+00
     110-
 mid.  surface    -2.1669E-05 -2.1669E-05 -2.1669E-05  0.0000E+00  0.0000E+00  0.0000E+00  0.0000E+00



 n o d a l  s t r a i n  c a l c u l a t i o n s   f o r   t i m e  s t e p        1   ( at time 0.00000E+00 )

 node (global)
          strain       eps-xx      eps-yy      eps-zz      eps-xy      eps-yz      eps-zx       
       4-
 mid.  surface     0.0000E+00  0.0000E+00  0.0000E+00  0.0000E+00  0.0000E+00  0.0000E+00
       5-
 mid.  surface     0.0000E+00  0.0000E+00  0.0000E+00  0.0000E+00  0.0000E+00  0.0000E+00
       6-
 mid.  surface     0.0000E+00  0.0000E+00  0.0000E+00  0.0000E+00  0.0000E+00  0.0000E+00
       7-
 mid.  surface     0.0000E+00  0.0000E+00  0.0000E+00  0.0000E+00  0.0000E+00  0.0000E+00
       8-
 mid.  surface     0.0000E+00  0.0000E+00  0.0000E+00  0.0000E+00  0.0000E+00  0.0000E+00
       9-
 mid.  surface     0.0000E+00  0.0000E+00  0.0000E+00  0.0000E+00  0.0000E+00  0.0000E+00
      10-
 mid.  surface     0.0000E+00  0.0000E+00  0.0000E+00  0.0000E+00  0.0000E+00  0.0000E+00
      15-
 mid.  surface     0.0000E+00  0.0000E+00  0.0000E+00  0.0000E+00  0.0000E+00  0.0000E+00
      16-
 mid.  surface     0.0000E+00  0.0000E+00  0.0000E+00  0.0000E+00  0.0000E+00  0.0000E+00
      18-
 mid.  surface     0.0000E+00  0.0000E+00  0.0000E+00  0.0000E+00  0.0000E+00  0.0000E+00
      40-
 mid.  surface     0.0000E+00  0.0000E+00  0.0000E+00  0.0000E+00  0.0000E+00  0.0000E+00
      41-
 mid.  surface     0.0000E+00  0.0000E+00  0.0000E+00  0.0000E+00  0.0000E+00  0.0000E+00
      50-
 mid.  surface     0.0000E+00  0.0000E+00  0.0000E+00  0.0000E+00  0.0000E+00  0.0000E+00
      51-
 mid.  surface     0.0000E+00  0.0000E+00  0.0000E+00  0.0000E+00  0.0000E+00  0.0000E+00
      52-
 mid.  surface     0.0000E+00  0.0000E+00  0.0000E+00  0.0000E+00  0.0000E+00  0.0000E+00
      53-
 mid.  surface     0.0000E+00  0.0000E+00  0.0000E+00  0.0000E+00  0.0000E+00  0.0000E+00
      72-
 mid.  surface     0.0000E+00  0.0000E+00  0.0000E+00  0.0000E+00  0.0000E+00  0.0000E+00
      95-
 mid.  surface     0.0000E+00  0.0000E+00  0.0000E+00  0.0000E+00  0.0000E+00  0.0000E+00
     100-
 mid.  surface     0.0000E+00  0.0000E+00  0.0000E+00  0.0000E+00  0.0000E+00  0.0000E+00
     110-
 mid.  surface     0.0000E+00  0.0000E+00  0.0000E+00  0.0000E+00  0.0000E+00  0.0000E+00



 n o d a l  s t r e s s  c a l c u l a t i o n s   f o r   t i m e  s t e p       15   ( at time 1.29245E+00 )

 node (global)
          stress       sig-xx      sig-yy      sig-zz      sig-xy      sig-yz      sig-zx       plastic
                                                                                                 strain 
       4-
 mid.  surface    -1.3410E+08 -1.3549E+08 -3.7637E+08  4.3116E+07 -5.7736E+06  3.4764E+07  1.4458E-03
       5-
 mid.  surface     4.3273E+07 -2.0388E+06 -2.1548E+08  8.6936E+07 -3.2885E+07 -1.2206E+08  1.4311E-04
       6-
 mid.  surface    -7.4545E+06  3.4700E+06 -1.8729E+08  4.1174E+07 -1.5754E+08 -7.2090E+07  5.2204E-04
       7-
 mid.  surface    -7.3196E+07 -2.4238E+07 -2.2914E+08  3.4183E+07 -1.7473E+08  1.5925E+07  1.1537E-03
       8-
 mid.  surface    -1.0814E+08 -4.1123E+07 -2.6775E+08  9.8151E+06 -1.0394E+08  4.8983E+07  1.4006E-03
       9-
 mid.  surface    -1.8850E+08 -1.5599E+08 -3.9318E+08 -4.0231E+07 -1.9061E+07  3.2612E+07  1.3943E-03
      10-
 mid.  surface    -1.5817E+07  1.0234E+08 -1.7901E+08 -3.5399E+07  1.8176E+07  1.8955E+07  6.6523E-05
      15-
 mid.  surface     3.6515E+07 -1.9660E+07 -1.8135E+08  4.2392E+07 -7.4225E+07 -2.3068E+07  9.1767E-04
      16-
 mid.  surface    -5.8756E+07 -9.8160E+07 -2.7210E+08 -3.8100E+06 -5.1912E+07  6.7909E+06  1.3363E-03
      18-
 mid.  surface     6.3991E+07  1.3539E+08 -1.1602E+08  4.8266E+07 -5.7772E+07 -1.1504E+07  1.8044E-04
      40-
 mid.  surface    -6.0394E+07 -1.0327E+07 -2.9535E+08  3.9572E+07  3.6637E+07 -1.0457E+07  4.4142E-05
      41-
 mid.  surface    -8.0128E+07  1.2849E+06 -2.6347E+08 -1.0766E+05 -3.8541E+07 -1.4321E+07 -8.1714E-05
      50-
 mid.  surface    -2.1618E+08 -2.4514E+08 -4.8445E+08 -3.7430E+07  7.7010E+07  4.2495E+07  1.0899E-03
      51-
 mid.  surface    -3.2666E+08 -2.7589E+08 -5.7062E+08 -5.5866E+06  9.4655E+07  3.6781E+07  1.2270E-03
      52-
 mid.  surface    -1.9169E+08 -2.1926E+08 -4.3811E+08  3.9999E+07  1.2585E+08 -9.4174E+07  1.4762E-04
      53-
 mid.  surface    -2.0188E+08 -2.2931E+08 -4.6018E+08  7.7727E+06  4.3004E+07 -8.2740E+07  2.3524E-04
      72-
 mid.  surface    -1.1009E+08 -1.9078E+08 -4.2403E+08  2.4323E+07  8.4596E+07  1.1677E+07  6.2801E-04
      95-
 mid.  surface    -1.9168E+08 -2.2567E+08 -4.9947E+08  2.9663E+07  3.1603E+07 -7.6418E+07  4.9779E-04
     100-
 mid.  surface    -1.8859E+08 -1.5918E+08 -4.4054E+08  2.7131E+07 -2.6143E+07 -5.6712E+07  9.2854E-04
     110-
 mid.  surface    -2.4393E+08 -2.3068E+08 -4.4074E+08  1.8046E+06 -6.9859E+07 -5.9200E+07  1.4023E-03



 n o d a l  s t r a i n  c a l c u l a t i o n s   f o r   t i m e  s t e p       15   ( at time 1.29245E+00 )

 node (global)
          strain       eps-xx      eps-yy      eps-zz      eps-xy      eps-yz      eps-zx       
       4-
 mid.  surface     2.3522E-03  2.1826E-03 -7.5883E-03  1.1946E-03 -3.0300E-04 -3.0625E-04
       5-
 mid.  surface     2.3229E-03  5.4327E-04 -3.6850E-03  2.0200E-03 -5.6688E-04 -3.0987E-03
       6-
 mid.  surface     1.8643E-03  1.1097E-03 -3.8867E-03  9.8030E-04 -3.4527E-03 -2.3148E-03
       7-
 mid.  surface     2.1045E-03  2.2073E-03 -5.8836E-03  1.1669E-03 -4.2772E-03 -7.1047E-04
       8-
 mid.  surface     1.6595E-03  3.2092E-03 -6.8687E-03  5.5072E-04 -2.8996E-03  3.6383E-04
       9-
 mid.  surface     1.6478E-03  2.7244E-03 -7.8810E-03 -8.4822E-04 -8.7127E-04  5.0209E-04
      10-
 mid.  surface    -1.5807E-04  2.5919E-03 -2.8576E-03 -5.0725E-04  8.9858E-05  3.1709E-04
      15-
 mid.  surface     2.4709E-03  1.4568E-03 -4.7068E-03  1.1400E-03 -1.3336E-03 -1.4112E-03
      16-
 mid.  surface     2.4405E-03  1.6895E-03 -6.1619E-03  8.6801E-05 -6.2399E-04 -7.9678E-04
      18-
 mid.  surface     5.9522E-04  2.6054E-03 -2.7973E-03  1.1538E-03 -1.2213E-03 -7.5059E-04
      40-
 mid.  surface    -1.2160E-04  1.7702E-03 -3.3809E-03  7.7937E-04 -5.7359E-05  2.7365E-04
      41-
 mid.  surface    -5.8006E-04  1.4958E-03 -2.5273E-03  1.2410E-04 -1.6636E-03  2.1079E-04
      50-
 mid.  surface     1.2252E-03  1.5208E-03 -7.2396E-03 -5.5634E-04  5.5930E-04  1.2098E-03
      51-
 mid.  surface     7.0945E-04  2.2684E-03 -8.5461E-03  2.9167E-04  5.7868E-04  8.2693E-04
      52-
 mid.  surface     8.3805E-04 -2.7396E-04 -4.5952E-03  8.6217E-04  2.3926E-03 -2.0678E-03
      53-
 mid.  surface     1.1188E-03 -7.1535E-05 -5.2834E-03  1.7276E-04  6.8030E-04 -1.5971E-03
      72-
 mid.  surface     1.5526E-03  7.9519E-04 -5.7893E-03  5.5447E-04  7.1687E-04  8.6126E-04
      95-
 mid.  surface     2.1008E-03  5.9648E-04 -7.0597E-03  7.4757E-04  7.4598E-04 -1.6325E-03
     100-
 mid.  surface     1.5156E-03  2.0847E-03 -7.3533E-03  6.5123E-04 -7.2481E-04 -1.3262E-03
     110-
 mid.  surface     1.3871E-03  1.7642E-03 -7.5048E-03  2.6268E-04 -2.5352E-03 -1.2476E-03



 n o d a l  s t r e s s  c a l c u l a t i o n s   f o r   t i m e  s t e p      123   ( at time 2.54839E+00 )

 node (global)
          stress       sig-xx      sig-yy      sig-zz      sig-xy      sig-yz      sig-zx       plastic
                                                                                                 strain 
       4-
 mid.  surface    -1.6209E+09 -1.5401E+09 -2.0060E+09  9.9553E+07 -6.7136E+07  3.8199E+08  6.9594E-03
       5-
 mid.  surface    -1.0296E+09 -8.1776E+08 -1.2811E+09  5.2680E+07 -1.4413E+07  3.4482E+08  8.5523E-03
       6-
 mid.  surface     7.4160E+08  7.5096E+08  6.3199E+08  2.4374E+06 -2.3693E+08  2.1027E+07  2.5206E-02
       7-
 mid.  surface     3.4775E+08  2.5925E+08  9.3029E+07  2.5971E+07 -2.0414E+08 -4.7609E+07  1.3631E-02
       8-
 mid.  surface     6.3366E+06 -2.0550E+07 -4.0907E+07  2.7716E+07 -5.2122E+07  4.0996E+06  3.7747E-02
       9-
 mid.  surface    -5.3762E+08 -5.0867E+08 -9.2818E+08 -1.5389E+07  1.0307E+08 -4.3069E+06  1.5244E-02
      10-
 mid.  surface     7.6182E+07  1.9595E+08 -2.2758E+08 -3.9551E+07  1.5301E+08  4.9715E+06  4.9918E-03
      15-
 mid.  surface     2.7457E+08  3.5416E+08  1.5252E+08  3.6551E+07 -2.6810E+08 -1.2423E+08  1.9528E-02
      16-
 mid.  surface    -9.0805E+07 -2.6732E+07 -1.8848E+08  5.3401E+07 -3.0543E+08 -2.9368E+07  3.1122E-02
      18-
 mid.  surface     4.7931E+08  5.6043E+08  5.0049E+08  3.2578E+06 -4.6574E+07 -4.0528E+07  3.0154E-02
      40-
 mid.  surface    -1.3138E+08 -9.8882E+07 -1.5593E+08 -1.0914E+07  3.1895E+07  3.3927E+07  2.8825E-02
      41-
 mid.  surface    -1.0327E+08 -1.1466E+08 -4.2070E+08  1.5825E+07 -2.0564E+08 -4.3213E+07 -4.2031E-03
      50-
 mid.  surface    -3.4185E+08 -4.2135E+08 -5.5097E+08  3.8212E+07  1.1737E+08 -2.9426E+07  3.2568E-02
      51-
 mid.  surface    -1.4658E+09 -1.5143E+09 -1.5394E+09 -4.4539E+07  3.8953E+08 -3.2924E+08  2.4813E-02
      52-
 mid.  surface    -6.0018E+08 -5.0082E+08 -4.9760E+08 -4.5638E+07  4.3996E+08 -3.4010E+08  3.1316E-02
      53-
 mid.  surface     9.8095E+07  1.3089E+07 -7.8397E+07  7.4319E+06  1.9702E+08  1.0584E+07  3.3370E-02
      72-
 mid.  surface    -2.9580E+08 -2.3176E+08 -5.7778E+08  4.2767E+07  4.6254E+07  4.1861E+07  1.3307E-02
      95-
 mid.  surface    -3.5176E+08 -4.2381E+08 -7.3717E+08  2.4825E+07  1.2639E+08  8.6198E+07  1.2580E-02
     100-
 mid.  surface    -5.4373E+08 -6.1587E+08 -6.4157E+08  1.1551E+07  3.6167E+07  1.7759E+06  3.6323E-02
     110-
 mid.  surface    -5.7276E+08 -6.7591E+08 -9.0538E+08  4.3369E+07 -2.3667E+08 -8.5769E+07  1.2883E-02



 n o d a l  s t r a i n  c a l c u l a t i o n s   f o r   t i m e  s t e p      123   ( at time 2.54839E+00 )

 node (global)
          strain       eps-xx      eps-yy      eps-zz      eps-xy      eps-yz      eps-zx       
       4-
 mid.  surface    -6.9405E-04  8.4760E-03 -3.0957E-02  2.6213E-03  1.1307E-03  2.3885E-02
       5-
 mid.  surface    -1.8680E-04  1.1901E-02 -2.5478E-02  2.4799E-03  1.2662E-03  1.8437E-02
       6-
 mid.  surface     9.2242E-03  8.5769E-03 -7.7550E-03  2.8305E-03 -2.1083E-02 -1.2380E-02
       7-
 mid.  surface     1.0424E-02  4.7855E-03 -1.2097E-02  3.0321E-03 -2.3897E-02 -9.4449E-03
       8-
 mid.  surface     1.0528E-02  1.0469E-02 -2.1302E-02  4.2751E-03 -9.4671E-03 -1.0671E-03
       9-
 mid.  surface     1.0172E-02  1.2452E-02 -3.2157E-02 -1.8728E-03  9.0402E-03 -4.5049E-04
      10-
 mid.  surface     3.1962E-03  1.3758E-02 -1.6810E-02 -2.7065E-03  1.2115E-02 -3.9413E-04
      15-
 mid.  surface     7.5470E-03  1.0556E-02 -1.4639E-02  1.8949E-03 -2.2008E-02 -1.2679E-02
      16-
 mid.  surface     6.6990E-03  1.0062E-02 -1.8221E-02  3.1948E-03 -1.9691E-02 -1.3210E-02
      18-
 mid.  surface     5.5167E-03  1.3435E-02 -1.1630E-02  2.4907E-03 -6.9220E-03 -4.6891E-03
      40-
 mid.  surface     5.0121E-03  7.1563E-03 -1.4140E-02 -3.0991E-05  1.0538E-03  2.0629E-03
      41-
 mid.  surface     3.3847E-03  1.4152E-03 -7.8272E-03  8.1375E-04 -1.7878E-02 -2.2972E-03
      50-
 mid.  surface     1.6972E-02  7.0018E-03 -3.0923E-02  5.6032E-03  1.0584E-02  1.0153E-02
      51-
 mid.  surface     2.1284E-03  1.9393E-04 -2.3681E-02 -6.7315E-03  1.3156E-02 -2.2479E-02
      52-
 mid.  surface     3.0689E-03  4.9207E-03 -1.5624E-02 -1.0824E-03  1.5780E-02 -2.7470E-02
      53-
 mid.  surface     1.6792E-02  7.3487E-03 -2.4789E-02  7.8790E-03  1.2289E-02  9.3532E-03
      72-
 mid.  surface     9.8929E-03  1.0973E-02 -2.6598E-02  3.2549E-03  1.3846E-02  8.5048E-03
      95-
 mid.  surface     1.1615E-02  7.2428E-03 -2.6456E-02  3.5901E-03  1.5975E-02  6.5664E-03
     100-
 mid.  surface     1.0582E-02  4.5005E-03 -2.3779E-02  1.5027E-03  1.0382E-03 -2.3458E-03
     110-
 mid.  surface     1.0609E-02  5.9649E-04 -2.1621E-02  2.8539E-03 -2.0750E-02 -7.2065E-03



 n o d a l  s t r e s s  c a l c u l a t i o n s   f o r   t i m e  s t e p      152   ( at time 3.17785E+00 )

 node (global)
          stress       sig-xx      sig-yy      sig-zz      sig-xy      sig-yz      sig-zx       plastic
                                                                                                 strain 
       4-
 mid.  surface    -1.9832E+09 -1.9303E+09 -2.3407E+09  6.6837E+07 -5.3088E+07  2.8401E+08  1.5004E-02
       5-
 mid.  surface    -1.1257E+09 -9.9966E+08 -1.3856E+09  3.4063E+07 -3.1616E+07  2.3188E+08  1.6125E-02
       6-
 mid.  surface     9.1121E+08  9.2184E+08  7.9592E+08 -8.9306E+06 -1.7485E+08  3.6354E+06  3.4440E-02
       7-
 mid.  surface     3.6859E+08  2.8589E+08  9.7500E+07  1.0542E+07 -1.6517E+08 -3.5751E+07  1.9095E-02
       8-
 mid.  surface     8.5883E+07  6.5378E+07 -5.2509E+07  2.1716E+07 -7.1106E+07 -7.6843E+06  4.9259E-02
       9-
 mid.  surface    -7.2973E+08 -7.0156E+08 -1.0324E+09 -1.4445E+07  7.9496E+07 -9.4600E+06  2.6914E-02
      10-
 mid.  surface     1.3441E+08  2.4237E+08 -1.1398E+08 -2.6900E+07  1.0613E+08 -5.5531E+06  1.2513E-02
      15-
 mid.  surface     3.0858E+08  3.7537E+08  1.4005E+08  2.0040E+07 -2.3726E+08 -1.1903E+08  2.7328E-02
      16-
 mid.  surface    -1.5237E+08 -7.3319E+07 -2.5844E+08  3.1143E+07 -2.2935E+08 -5.7333E+07  4.2663E-02
      18-
 mid.  surface     7.0235E+08  7.7480E+08  6.2066E+08  8.0904E+06 -8.6380E+07 -4.7260E+07  3.9388E-02
      40-
 mid.  surface    -4.8789E+07 -1.6807E+07 -1.8436E+08  1.8301E+06  1.2920E+07  3.0005E+07  3.7581E-02
      41-
 mid.  surface    -1.7341E+08 -1.8205E+08 -4.2566E+08  9.4017E+06 -1.5113E+08 -2.1525E+07  1.6088E-03
      50-
 mid.  surface    -3.9013E+08 -4.5113E+08 -6.3716E+08  3.9263E+07  1.0380E+08 -1.1519E+07  4.5000E-02
      51-
 mid.  surface    -1.8866E+09 -1.8939E+09 -2.0519E+09 -2.2165E+07  2.3923E+08 -2.6660E+08  3.3071E-02
      52-
 mid.  surface    -6.9297E+08 -6.2328E+08 -7.2934E+08 -1.1847E+07  2.6307E+08 -2.8834E+08  4.0278E-02
      53-
 mid.  surface     2.0013E+08  1.2042E+08 -1.0704E+07  1.7129E+07  1.6796E+08  2.5126E+07  4.5145E-02
      72-
 mid.  surface    -2.9692E+08 -2.6951E+08 -6.2784E+08  4.6991E+07  4.5502E+07  4.9902E+07  2.0824E-02
      95-
 mid.  surface    -3.5373E+08 -4.2976E+08 -7.3764E+08  2.1749E+07  1.4304E+08  8.4319E+07  2.0179E-02
     100-
 mid.  surface    -6.1719E+08 -6.6682E+08 -8.0475E+08  8.4658E+06  4.1696E+07  1.5680E+06  4.7537E-02
     110-
 mid.  surface    -8.3075E+08 -9.2076E+08 -1.1133E+09  2.5349E+07 -1.6234E+08 -5.6749E+07  2.3062E-02



 n o d a l  s t r a i n  c a l c u l a t i o n s   f o r   t i m e  s t e p      152   ( at time 3.17785E+00 )

 node (global)
          strain       eps-xx      eps-yy      eps-zz      eps-xy      eps-yz      eps-zx       
       4-
 mid.  surface     1.5814E-03  1.2604E-02 -4.2364E-02  4.0953E-03  9.1132E-04  2.9646E-02
       5-
 mid.  surface     2.3607E-03  1.6302E-02 -3.4153E-02  3.1972E-03  9.8885E-04  2.2106E-02
       6-
 mid.  surface     1.2047E-02  1.1802E-02 -1.1422E-02  2.9575E-03 -2.6426E-02 -1.4923E-02
       7-
 mid.  surface     1.4133E-02  6.0279E-03 -1.6845E-02  3.3199E-03 -2.9507E-02 -1.1223E-02
       8-
 mid.  surface     1.4834E-02  1.4882E-02 -2.9333E-02  5.3683E-03 -1.2787E-02 -1.4983E-03
       9-
 mid.  surface     1.4296E-02  1.8003E-02 -4.4207E-02 -2.6339E-03  1.0915E-02 -1.0021E-03
      10-
 mid.  surface     5.1674E-03  1.9727E-02 -2.3734E-02 -3.2743E-03  1.4808E-02 -8.0830E-04
      15-
 mid.  surface     1.0461E-02  1.4364E-02 -2.1169E-02  2.0395E-03 -2.7665E-02 -1.6231E-02
      16-
 mid.  surface     8.9670E-03  1.4781E-02 -2.6021E-02  3.8797E-03 -2.4433E-02 -1.6708E-02
      18-
 mid.  surface     8.0088E-03  1.8877E-02 -1.6924E-02  3.5420E-03 -9.8729E-03 -6.2331E-03
      40-
 mid.  surface     7.8575E-03  1.1225E-02 -2.0434E-02  6.9405E-04  1.9559E-03  3.1890E-03
      41-
 mid.  surface     5.7011E-03  3.0940E-03 -1.2497E-02  1.0427E-03 -2.2489E-02 -2.6759E-03
      50-
 mid.  surface     2.3321E-02  1.0710E-02 -4.1878E-02  7.2433E-03  1.3385E-02  1.2322E-02
      51-
 mid.  surface     2.9736E-03  2.7748E-03 -3.3329E-02 -7.5550E-03  1.6514E-02 -2.8646E-02
      52-
 mid.  surface     4.7280E-03  7.6109E-03 -2.2143E-02 -7.7149E-04  1.9713E-02 -3.5448E-02
      53-
 mid.  surface     2.3065E-02  1.0292E-02 -3.2836E-02  9.7211E-03  1.5551E-02  1.1685E-02
      72-
 mid.  surface     1.4903E-02  1.4997E-02 -3.6141E-02  4.8813E-03  1.7171E-02  1.0937E-02
      95-
 mid.  surface     1.6989E-02  1.0164E-02 -3.4897E-02  4.5830E-03  2.0750E-02  8.6499E-03
     100-
 mid.  surface     1.5001E-02  7.8604E-03 -3.2969E-02  1.8990E-03  2.1173E-03 -2.5756E-03
     110-
 mid.  surface     1.5248E-02  2.0491E-03 -3.1126E-02  3.1719E-03 -2.6140E-02 -9.0789E-03



 n o d a l  s t r e s s  c a l c u l a t i o n s   f o r   t i m e  s t e p      222   ( at time 4.29920E+00 )

 node (global)
          stress       sig-xx      sig-yy      sig-zz      sig-xy      sig-yz      sig-zx       plastic
                                                                                                 strain 
       4-
 mid.  surface    -6.5969E+09 -6.7003E+09 -5.7380E+09 -2.2650E+07  2.7538E+08  3.8778E+08 -4.3356E-02
       5-
 mid.  surface    -4.7959E+09 -4.7637E+09 -3.8215E+09 -2.8261E+07  2.2351E+08  2.9584E+08 -2.7975E-02
       6-
 mid.  surface     1.4590E+08  1.9071E+08  2.9697E+08 -3.3771E+07 -1.7041E+08 -1.0094E+08  3.0009E-02
       7-
 mid.  surface     3.5117E+08  2.4419E+08 -1.5509E+07 -1.6924E+07 -1.4483E+08  1.2419E+07  2.3653E-02
       8-
 mid.  surface     6.2773E+07  3.3154E+06 -1.3804E+08  1.9207E+07 -3.4588E+07  1.1968E+07  7.3701E-02
       9-
 mid.  surface    -8.6745E+08 -7.9837E+08 -1.1262E+09 -1.4384E+07  9.4501E+06 -1.9321E+07  4.7889E-02
      10-
 mid.  surface     4.3585E+08  5.5475E+08  2.1487E+08 -1.5782E+07  3.4502E+07 -1.2954E+07  2.6599E-02
      15-
 mid.  surface     1.7883E+08  2.8474E+08  3.3394E+07 -5.2318E+07 -2.9865E+08 -1.6512E+08  4.1906E-02
      16-
 mid.  surface    -1.5333E+09 -1.4210E+09 -1.3376E+09 -5.7788E+07 -2.4608E+08 -2.0204E+08  4.2717E-02
      18-
 mid.  surface     9.8993E+08  1.0312E+09  8.7848E+08  3.0290E+06 -7.7863E+07 -2.7718E+07  6.0520E-02
      40-
 mid.  surface     1.4476E+07 -5.8345E+06 -1.3499E+08 -1.4680E+07 -7.1445E+06  1.8063E+07  5.8890E-02
      41-
 mid.  surface    -1.6705E+08 -2.1355E+08 -4.5043E+08  6.5617E+06 -6.4055E+07 -1.9287E+07  1.1483E-02
      50-
 mid.  surface     1.5615E+09  1.5902E+09  6.8911E+08  1.0669E+08 -6.8168E+07 -1.2526E+08  1.0565E-01
      51-
 mid.  surface    -1.3006E+09 -1.3634E+09 -1.6783E+09  2.7991E+07  4.4699E+08  5.5678E+07  8.8932E-02
      52-
 mid.  surface     8.6202E+08  9.1118E+08  5.9605E+08  2.7542E+07  3.9674E+08 -2.8733E+07  1.1117E-01
      53-
 mid.  surface     2.8455E+09  2.8317E+09  1.9318E+09  1.1304E+08 -2.5018E+06 -2.6230E+07  1.0952E-01
      72-
 mid.  surface    -1.0437E+08 -9.9834E+07 -4.9812E+08  4.6378E+07  4.1431E+06  3.6160E+07  3.4088E-02
      95-
 mid.  surface    -3.5852E+07 -1.7479E+08 -5.3225E+08  5.6584E+07  2.0020E+08  1.8568E+08  3.3684E-02
     100-
 mid.  surface    -8.6219E+08 -9.4398E+08 -1.0777E+09 -2.0681E+07  5.2469E+07 -1.6374E+05  7.2451E-02
     110-
 mid.  surface    -1.2174E+09 -1.3058E+09 -1.5316E+09 -1.1726E+06 -8.6183E+07 -5.7417E+07  4.0030E-02



 n o d a l  s t r a i n  c a l c u l a t i o n s   f o r   t i m e  s t e p      222   ( at time 4.29920E+00 )

 node (global)
          strain       eps-xx      eps-yy      eps-zz      eps-xy      eps-yz      eps-zx       
       4-
 mid.  surface     1.3393E-02  2.0993E-02 -6.6368E-02  7.4933E-03  7.5282E-05  4.0972E-02
       5-
 mid.  surface     1.2294E-02  2.8917E-02 -5.2883E-02  6.4079E-03 -1.4614E-03  2.3445E-02
       6-
 mid.  surface     1.7231E-02  2.0572E-02 -1.8530E-02  3.0525E-03 -3.6340E-02 -2.2288E-02
       7-
 mid.  surface     2.0519E-02  6.9523E-03 -2.5005E-02  2.2836E-03 -4.0507E-02 -1.3355E-02
       8-
 mid.  surface     2.4265E-02  2.1596E-02 -4.6309E-02  7.4864E-03 -1.6045E-02 -1.0517E-03
       9-
 mid.  surface     2.1996E-02  3.0473E-02 -6.5995E-02 -3.9583E-03  1.2326E-02 -2.4747E-03
      10-
 mid.  surface     9.5142E-03  3.2793E-02 -3.6730E-02 -4.2776E-03  1.8250E-02 -1.7692E-03
      15-
 mid.  surface     1.4508E-02  2.2404E-02 -3.4819E-02 -1.2924E-03 -4.2619E-02 -2.4662E-02
      16-
 mid.  surface     1.4789E-02  2.4854E-02 -4.2901E-02  2.9771E-03 -3.4409E-02 -2.5884E-02
      18-
 mid.  surface     1.3615E-02  2.9268E-02 -2.9133E-02  5.1305E-03 -1.2212E-02 -7.1624E-03
      40-
 mid.  surface     1.4573E-02  1.7024E-02 -3.2394E-02  4.0325E-04  1.4340E-03  4.0903E-03
      41-
 mid.  surface     1.2138E-02  6.1426E-03 -2.2238E-02  1.5328E-03 -2.8303E-02 -3.9172E-03
      50-
 mid.  surface     3.4811E-02  2.0132E-02 -6.4668E-02  1.2303E-02  1.8314E-02  1.4535E-02
      51-
 mid.  surface     2.1572E-03  9.4376E-03 -5.5560E-02 -1.1227E-02  2.3889E-02 -3.6571E-02
      52-
 mid.  surface     4.1449E-03  1.7401E-02 -3.9346E-02 -3.5289E-03  2.5402E-02 -5.2590E-02
      53-
 mid.  surface     3.4247E-02  1.8986E-02 -4.8275E-02  1.5445E-02  2.0716E-02  1.4265E-02
      72-
 mid.  surface     2.7854E-02  2.4016E-02 -5.5876E-02  9.1867E-03  2.1555E-02  1.5106E-02
      95-
 mid.  surface     3.1299E-02  1.5832E-02 -5.1313E-02  8.7896E-03  2.9822E-02  1.6665E-02
     100-
 mid.  surface     2.4478E-02  1.1368E-02 -4.9752E-02  7.0583E-04  1.4947E-03 -4.3371E-03
     110-
 mid.  surface     2.4917E-02  4.9212E-03 -4.9335E-02  3.0591E-03 -3.3917E-02 -1.3414E-02



 n o d a l  s t r e s s  c a l c u l a t i o n s   f o r   t i m e  s t e p      239   ( at time 5.32583E+00 )

 node (global)
          stress       sig-xx      sig-yy      sig-zz      sig-xy      sig-yz      sig-zx       plastic
                                                                                                 strain 
       4-
 mid.  surface    -7.3218E+09 -7.3007E+09 -6.8681E+09  1.0019E+08  2.3948E+08  2.8424E+08 -5.9486E-02
       5-
 mid.  surface    -5.1356E+09 -5.3195E+09 -4.6405E+09 -7.3085E+07  2.8644E+08  3.2839E+08 -5.5937E-02
       6-
 mid.  surface    -1.0859E+09 -1.0345E+09 -4.1088E+08 -2.3194E+07  9.7278E+07  7.5271E+07  8.9755E-03
       7-
 mid.  surface    -6.1448E+08 -7.0423E+08 -4.8867E+08  1.2489E+07  1.2424E+08  1.3665E+08  1.6353E-02
       8-
 mid.  surface     4.5249E+06 -6.5982E+07 -2.8945E+08  5.5968E+06 -3.6637E+07  3.1828E+07  8.7095E-02
       9-
 mid.  surface    -9.2701E+08 -8.7078E+08 -1.1778E+09 -1.6985E+07 -3.8710E+07 -1.8401E+07  6.4570E-02
      10-
 mid.  surface     6.8000E+08  7.7045E+08  4.6127E+08 -1.5459E+07 -4.6002E+07 -1.3904E+07  3.9176E-02
      15-
 mid.  surface    -8.7123E+08 -8.2806E+08 -5.9733E+08  1.3693E+07  3.9350E+07  7.1846E+07  3.9684E-02
      16-
 mid.  surface    -2.7764E+09 -2.5467E+09 -2.3554E+09  7.1735E+07  5.2419E+07  2.9202E+07  4.0429E-02
      18-
 mid.  surface     1.1487E+09  1.1373E+09  9.2706E+08 -1.1014E+07 -1.0683E+08 -1.7534E+07  7.2884E-02
      40-
 mid.  surface     5.4745E+07  4.1987E+07 -1.5117E+08 -1.8077E+06  1.3470E+07  1.8907E+07  7.3879E-02
      41-
 mid.  surface    -1.7400E+08 -2.2100E+08 -4.3437E+08  1.0959E+07 -1.8870E+07 -1.2513E+07  2.3939E-02
      50-
 mid.  surface     2.7802E+09  2.8476E+09  1.5975E+09  3.3659E+07 -3.7775E+08 -3.1726E+08  1.6446E-01
      51-
 mid.  surface    -1.0086E+09 -1.0372E+09 -1.7212E+09  6.9832E+07  3.5938E+08  3.1679E+07  1.1052E-01
      52-
 mid.  surface     1.0068E+09  7.9381E+08  9.7162E+08 -6.6043E+07  4.1268E+08  7.7165E+07  1.0459E-01
      53-
 mid.  surface     4.0399E+09  3.9599E+09  3.0971E+09 -5.6202E+07 -3.1487E+08 -2.5627E+08  1.5394E-01
      72-
 mid.  surface     8.3930E+08  8.4132E+08  6.5988E+07 -1.6864E+07 -2.6278E+08 -1.6683E+08  7.0252E-02
      95-
 mid.  surface     9.8254E+08  8.8699E+08  1.2193E+08 -2.5784E+07 -1.4996E+08 -1.1449E+08  6.8913E-02
     100-
 mid.  surface    -9.8609E+08 -1.0444E+09 -1.2390E+09 -4.0439E+06  9.4701E+07  3.0867E+07  8.9956E-02
     110-
 mid.  surface    -1.5174E+09 -1.5956E+09 -1.8047E+09 -1.8793E+06 -8.6011E+06 -4.1663E+07  5.7016E-02



 n o d a l  s t r a i n  c a l c u l a t i o n s   f o r   t i m e  s t e p      239   ( at time 5.32583E+00 )

 node (global)
          strain       eps-xx      eps-yy      eps-zz      eps-xy      eps-yz      eps-zx       
       4-
 mid.  surface     1.7239E-02  3.2149E-02 -8.6608E-02  9.5039E-03  2.9073E-04  4.0967E-02
       5-
 mid.  surface     1.6301E-02  3.7601E-02 -6.6785E-02  4.4273E-03 -7.7860E-04  2.3705E-02
       6-
 mid.  surface     2.0871E-02  2.8063E-02 -2.4535E-02  1.9536E-03 -4.4404E-02 -2.7271E-02
       7-
 mid.  surface     2.9940E-02  8.8134E-03 -3.4993E-02  2.6278E-03 -4.7220E-02 -1.6959E-02
       8-
 mid.  surface     3.1465E-02  2.5288E-02 -5.8565E-02  7.9461E-03 -1.9328E-02  3.5776E-04
       9-
 mid.  surface     2.7848E-02  3.9815E-02 -8.2127E-02 -4.9017E-03  9.9797E-03 -3.2747E-03
      10-
 mid.  surface     1.3476E-02  4.2869E-02 -4.7483E-02 -5.3392E-03  1.6532E-02 -2.2674E-03
      15-
 mid.  surface     2.2896E-02  2.7829E-02 -4.9255E-02 -7.3483E-04 -4.9734E-02 -2.9385E-02
      16-
 mid.  surface     1.6981E-02  3.5526E-02 -5.6846E-02  5.1247E-03 -4.2358E-02 -3.1550E-02
      18-
 mid.  surface     1.9285E-02  3.5514E-02 -3.9595E-02  5.1103E-03 -1.6425E-02 -7.3713E-03
      40-
 mid.  surface     2.0342E-02  2.3087E-02 -4.3939E-02  1.0288E-03  1.9131E-03  4.6990E-03
      41-
 mid.  surface     1.8190E-02  1.0942E-02 -3.3115E-02  2.0092E-03 -2.9462E-02 -4.3349E-03
      50-
 mid.  surface     4.3679E-02  2.6358E-02 -8.1306E-02  1.3876E-02  1.9663E-02  1.7289E-02
      51-
 mid.  surface     8.9088E-03  1.3429E-02 -7.6390E-02 -1.1098E-02  3.0556E-02 -4.5423E-02
      52-
 mid.  surface     1.1619E-02  2.2807E-02 -5.4191E-02 -2.1847E-03  3.2797E-02 -6.0500E-02
      53-
 mid.  surface     4.2452E-02  2.4572E-02 -5.9315E-02  1.6626E-02  2.1759E-02  1.6106E-02
      72-
 mid.  surface     3.4266E-02  3.2193E-02 -7.2764E-02  1.0106E-02  2.5267E-02  1.7094E-02
      95-
 mid.  surface     3.8531E-02  2.1298E-02 -6.4972E-02  8.7226E-03  3.4277E-02  1.8169E-02
     100-
 mid.  surface     3.2219E-02  1.5595E-02 -6.3605E-02  8.6350E-04  2.9569E-03 -4.2216E-03
     110-
 mid.  surface     3.3028E-02  8.9127E-03 -6.5575E-02  2.8784E-03 -3.5614E-02 -1.5863E-02



 n o d a l  s t r e s s  c a l c u l a t i o n s   f o r   t i m e  s t e p      308   ( at time 6.27077E+00 )

 node (global)
          stress       sig-xx      sig-yy      sig-zz      sig-xy      sig-yz      sig-zx       plastic
                                                                                                 strain 
       4-
 mid.  surface    -5.2633E+09 -5.5114E+09 -6.2480E+09  8.1864E+07  4.8572E+07 -2.5755E+07 -4.2078E-02
       5-
 mid.  surface    -8.8606E+09 -8.7394E+09 -6.9398E+09 -6.7889E+07  1.7273E+08  6.1108E+08 -1.1357E-01
       6-
 mid.  surface    -3.2153E+09 -3.0246E+09 -1.8841E+09 -5.7346E+06  1.4340E+08  3.5829E+08 -4.5241E-02
       7-
 mid.  surface    -8.3146E+08 -9.1403E+08 -7.0680E+08  2.4487E+07  5.6415E+07  1.7261E+08  7.2909E-04
       8-
 mid.  surface    -2.3369E+07 -1.0541E+08 -3.5456E+08  2.4652E+06 -4.2757E+07  3.1914E+07  9.9422E-02
       9-
 mid.  surface    -9.6108E+08 -9.3789E+08 -1.2234E+09 -1.8549E+07 -6.3012E+05 -1.3114E+07  8.0063E-02
      10-
 mid.  surface     8.8344E+08  9.4765E+08  6.4979E+08 -1.8647E+07 -2.1796E+07 -1.1075E+07  5.1232E-02
      15-
 mid.  surface    -1.2342E+09 -1.2262E+09 -9.5053E+08 -3.7414E+07 -7.8360E+05  2.2863E+07  2.8276E-02
      16-
 mid.  surface    -1.7483E+09 -1.7166E+09 -2.0738E+09  3.0061E+07  6.1109E+07 -1.2892E+08  4.6051E-02
      18-
 mid.  surface     1.2328E+09  1.2239E+09  1.0020E+09 -1.5381E+07 -1.1776E+08 -3.4540E+07  8.4837E-02
      40-
 mid.  surface     1.3633E+08  1.4712E+08 -9.7727E+07  7.5431E+06 -5.6127E+06  2.5647E+07  8.6822E-02
      41-
 mid.  surface    -1.9198E+08 -2.3984E+08 -4.2577E+08  3.1111E+05 -5.0514E+07 -3.2695E+06  3.6939E-02
      50-
 mid.  surface     5.1208E+09  5.0739E+09  3.2073E+09  5.1855E+07 -2.8653E+08 -5.7407E+08  2.5131E-01
      51-
 mid.  surface     2.5548E+09  2.2152E+09  4.5933E+08  1.1773E+08  1.7490E+08 -4.5110E+08  1.8513E-01
      52-
 mid.  surface    -2.0319E+09 -1.9285E+09 -5.7661E+08 -3.8304E+07  3.3721E+08  2.9680E+08  6.8266E-02
      53-
 mid.  surface     3.2844E+09  3.3930E+09  2.9862E+09 -2.9812E+06 -1.9953E+08 -9.3021E+07  1.8492E-01
      72-
 mid.  surface     9.4432E+08  9.8851E+08  1.4069E+08 -4.0751E+07 -2.5902E+08 -1.9643E+08  1.1373E-01
      95-
 mid.  surface     1.3371E+09  1.2610E+09  3.7685E+08 -4.8549E+06 -1.2773E+08 -8.1309E+07  1.1055E-01
     100-
 mid.  surface    -9.9817E+08 -1.0480E+09 -1.2949E+09  4.2521E+06  9.3489E+07  3.8583E+07  1.0576E-01
     110-
 mid.  surface    -1.7315E+09 -1.8277E+09 -2.0024E+09 -3.8739E+06 -2.9050E+07 -4.2053E+07  7.4409E-02



 n o d a l  s t r a i n  c a l c u l a t i o n s   f o r   t i m e  s t e p      308   ( at time 6.27077E+00 )

 node (global)
          strain       eps-xx      eps-yy      eps-zz      eps-xy      eps-yz      eps-zx       
       4-
 mid.  surface     3.6913E-02  4.0387E-02 -1.0903E-01  1.2723E-02 -1.2466E-03  3.8048E-02
       5-
 mid.  surface     3.3125E-02  4.6300E-02 -8.2157E-02  5.6497E-03 -3.3745E-03  1.2794E-02
       6-
 mid.  surface     2.6229E-02  3.6069E-02 -3.2073E-02  1.4206E-03 -4.9009E-02 -3.1395E-02
       7-
 mid.  surface     3.6351E-02  1.1702E-02 -4.4873E-02  1.5373E-03 -5.1294E-02 -1.7172E-02
       8-
 mid.  surface     3.8664E-02  2.9137E-02 -7.0295E-02  8.1022E-03 -2.2435E-02  1.3667E-03
       9-
 mid.  surface     3.3933E-02  4.7854E-02 -9.7016E-02 -5.7786E-03  7.3276E-03 -3.7209E-03
      10-
 mid.  surface     1.7725E-02  5.1861E-02 -5.8084E-02 -6.4344E-03  1.4641E-02 -2.3111E-03
      15-
 mid.  surface     2.8262E-02  3.3355E-02 -6.2916E-02 -2.9334E-03 -5.4661E-02 -3.2904E-02
      16-
 mid.  surface     2.2795E-02  4.3919E-02 -7.1765E-02  4.8848E-03 -4.4999E-02 -3.5762E-02
      18-
 mid.  surface     2.4738E-02  4.1582E-02 -4.9989E-02  5.0363E-03 -2.0887E-02 -8.0524E-03
      40-
 mid.  surface     2.6032E-02  3.0218E-02 -5.5698E-02  2.1009E-03  2.2406E-03  5.3403E-03
      41-
 mid.  surface     2.4044E-02  1.6380E-02 -4.4598E-02  1.9065E-03 -3.0272E-02 -4.0570E-03
      50-
 mid.  surface     4.9234E-02  3.4358E-02 -9.7091E-02  1.5756E-02  2.0983E-02  1.8622E-02
      51-
 mid.  surface     1.3803E-02  2.1068E-02 -9.9768E-02 -1.1520E-02  3.3523E-02 -4.5718E-02
      52-
 mid.  surface     1.6248E-02  3.0602E-02 -7.1827E-02 -2.4524E-03  3.7620E-02 -6.7172E-02
      53-
 mid.  surface     4.7326E-02  3.1313E-02 -6.8890E-02  1.8665E-02  2.3135E-02  1.5227E-02
      72-
 mid.  surface     4.1489E-02  3.9060E-02 -8.8097E-02  1.1874E-02  2.5447E-02  1.7609E-02
      95-
 mid.  surface     4.7861E-02  2.6099E-02 -7.7267E-02  1.0227E-02  3.6566E-02  1.9207E-02
     100-
 mid.  surface     3.9925E-02  2.1456E-02 -7.7609E-02  1.0316E-03  4.5137E-03 -3.9497E-03
     110-
 mid.  surface     4.1429E-02  1.3169E-02 -8.1362E-02  2.4498E-03 -3.7312E-02 -1.7960E-02



 n o d a l  s t r e s s  c a l c u l a t i o n s   f o r   t i m e  s t e p      331   ( at time 7.40173E+00 )

 node (global)
          stress       sig-xx      sig-yy      sig-zz      sig-xy      sig-yz      sig-zx       plastic
                                                                                                 strain 
       4-
 mid.  surface    -2.2705E+09 -2.2571E+09 -3.6418E+09  2.3930E+08 -1.1861E+08 -1.7869E+08  8.3218E-02
       5-
 mid.  surface    -1.9367E+09 -2.1710E+09 -3.4833E+09  7.9886E+07 -1.2970E+08 -2.4651E+08 -3.7608E-03
       6-
 mid.  surface    -4.0975E+09 -4.0442E+09 -3.0219E+09 -2.9271E+07  1.6506E+08  2.7673E+08 -1.3710E-01
       7-
 mid.  surface    -6.9331E+08 -6.5090E+08 -5.5472E+08  3.6708E+07 -3.8270E+07  1.5076E+08 -1.2845E-02
       8-
 mid.  surface    -5.4592E+08 -6.8008E+08 -7.4572E+08  2.9042E+07  2.6697E+07  7.5707E+07  1.0667E-01
       9-
 mid.  surface    -9.6926E+08 -1.0021E+09 -1.2865E+09 -1.5784E+07 -5.1308E+07  4.3963E+06  9.8381E-02
      10-
 mid.  surface     1.1688E+09  1.1914E+09  9.0228E+08 -4.4852E+07 -1.5450E+08  1.7356E+06  6.4767E-02
      15-
 mid.  surface    -1.4378E+09 -1.3503E+09 -1.2378E+09 -6.6384E+07 -8.8607E+07 -5.4704E+07  2.9678E-02
      16-
 mid.  surface    -5.9602E+09 -5.7789E+09 -4.6967E+09 -4.1753E+07  1.5342E+08  1.6814E+08 -3.0614E-02
      18-
 mid.  surface     1.5237E+09  1.5511E+09  1.1424E+09 -5.4702E+07 -1.8929E+08 -6.4394E+07  1.1263E-01
      40-
 mid.  surface     6.8080E+07  7.4954E+07 -1.6754E+07  2.3770E+07  3.5614E+07  4.8388E+07  9.6065E-02
      41-
 mid.  surface    -1.1550E+08 -1.7807E+08 -3.9144E+08 -1.4354E+07  6.5484E+06  1.2493E+07  5.5562E-02
      50-
 mid.  surface     1.6970E+09  1.7586E+09  1.5053E+09 -8.9297E+07 -8.3261E+07 -1.0974E+08  2.7362E-01
      51-
 mid.  surface     3.6673E+09  3.5786E+09  1.9384E+09  2.5197E+08 -3.4311E+07 -2.6918E+08  3.2955E-01
      52-
 mid.  surface     4.5359E+09  4.2641E+09  2.6785E+09  1.6321E+08  2.3202E+06 -3.4843E+08  2.0478E-01
      53-
 mid.  surface     2.8266E+09  2.7714E+09  2.4771E+09 -9.1655E+07 -5.9120E+07  2.6899E+07  1.9621E-01
      72-
 mid.  surface     1.3050E+09  1.3522E+09  2.7119E+08 -1.0800E+08 -2.6979E+08 -2.2715E+08  1.9417E-01
      95-
 mid.  surface     1.8750E+09  1.7872E+09  9.9568E+08 -4.2600E+06 -4.9143E+07 -2.4669E+07  1.6573E-01
     100-
 mid.  surface    -1.8470E+09 -1.9424E+09 -1.6969E+09  6.9946E+07  2.7837E+08  1.2407E+08  1.0398E-01
     110-
 mid.  surface    -1.8490E+09 -1.9770E+09 -2.1637E+09  8.5921E+06  1.3388E+08 -2.5067E+07  1.0078E-01



 n o d a l  s t r a i n  c a l c u l a t i o n s   f o r   t i m e  s t e p      331   ( at time 7.40173E+00 )

 node (global)
          strain       eps-xx      eps-yy      eps-zz      eps-xy      eps-yz      eps-zx       
       4-
 mid.  surface     9.7819E-02  4.9595E-02 -1.4997E-01  1.9127E-02 -7.1679E-03  3.5729E-02
       5-
 mid.  surface     8.0025E-02  6.4440E-02 -1.1605E-01  1.1463E-02 -1.2157E-02 -1.3107E-02
       6-
 mid.  surface     3.2596E-02  5.3283E-02 -4.3088E-02  3.2327E-03 -5.5020E-02 -3.5197E-02
       7-
 mid.  surface     4.3680E-02  1.9761E-02 -5.9948E-02  3.6593E-04 -5.8498E-02 -1.4632E-02
       8-
 mid.  surface     5.0688E-02  3.3352E-02 -8.9428E-02  7.8762E-03 -2.4683E-02  4.7483E-03
       9-
 mid.  surface     4.2868E-02  5.5561E-02 -1.1441E-01 -7.2909E-03  3.0149E-03 -2.7543E-03
      10-
 mid.  surface     2.2971E-02  6.2140E-02 -6.9932E-02 -1.0143E-02  1.0726E-02 -4.3625E-04
      15-
 mid.  surface     3.4584E-02  4.1472E-02 -8.4496E-02 -1.1801E-02 -6.3006E-02 -3.8389E-02
      16-
 mid.  surface     3.5371E-02  5.2382E-02 -9.4742E-02  4.2786E-04 -4.5843E-02 -4.2470E-02
      18-
 mid.  surface     3.2641E-02  4.9618E-02 -6.6240E-02  3.1200E-03 -2.7790E-02 -8.3012E-03
      40-
 mid.  surface     3.3555E-02  4.4248E-02 -7.3429E-02  2.6449E-03  2.1680E-03  4.8283E-03
      41-
 mid.  surface     3.2546E-02  2.3486E-02 -5.9486E-02  7.1523E-04 -2.9590E-02 -3.0431E-03
      50-
 mid.  surface     6.1357E-02  4.6805E-02 -1.2022E-01  1.6923E-02  2.6070E-02  1.7928E-02
      51-
 mid.  surface     1.6793E-02  3.7432E-02 -1.3937E-01 -1.3592E-02  3.5858E-02 -4.3018E-02
      52-
 mid.  surface     1.5245E-02  5.1106E-02 -1.0858E-01 -5.1346E-04  4.3442E-02 -7.8951E-02
      53-
 mid.  surface     5.3792E-02  4.5323E-02 -8.2044E-02  2.6422E-02  2.8684E-02  1.3142E-02
      72-
 mid.  surface     5.4098E-02  4.8958E-02 -1.1230E-01  1.3961E-02  2.2439E-02  1.7586E-02
      95-
 mid.  surface     6.7259E-02  3.5102E-02 -9.5407E-02  1.5459E-02  3.8277E-02  2.2590E-02
     100-
 mid.  surface     5.2180E-02  3.3449E-02 -1.0075E-01  1.2640E-03  1.0006E-02 -4.7862E-03
     110-
 mid.  surface     5.6037E-02  1.7034E-02 -1.0203E-01  2.6967E-03 -3.8395E-02 -2.2557E-02



 n o d a l  s t r e s s  c a l c u l a t i o n s   f o r   t i m e  s t e p      363   ( at time 8.40173E+00 )

 node (global)
          stress       sig-xx      sig-yy      sig-zz      sig-xy      sig-yz      sig-zx       plastic
                                                                                                 strain 
       4-
 mid.  surface    -1.3610E+09 -1.1418E+09 -4.1791E+09  3.9897E+08 -2.1616E+08 -3.6762E+08  3.0426E-01
       5-
 mid.  surface    -1.0626E+09 -1.0816E+09 -3.8796E+09  2.8289E+08 -1.7696E+08 -5.7979E+08  1.9755E-01
       6-
 mid.  surface    -3.5688E+09 -3.7089E+09 -3.4501E+09  5.7743E+07  8.0650E+07 -6.9114E+07 -1.6322E-01
       7-
 mid.  surface    -1.1438E+09 -1.0538E+09 -1.1668E+09  1.0289E+08 -1.1187E+08  5.7180E+07 -3.3436E-02
       8-
 mid.  surface    -6.0808E+08 -5.9496E+08 -7.6214E+08 -2.2233E+07  9.1708E+06  5.8048E+07  1.0782E-01
       9-
 mid.  surface    -1.0418E+09 -1.0068E+09 -1.3072E+09 -3.4463E+07 -1.0278E+07 -1.4604E+07  1.1632E-01
      10-
 mid.  surface     1.5875E+09  1.6677E+09  1.3592E+09 -2.6611E+07 -7.3166E+07 -1.4964E+07  7.6092E-02
      15-
 mid.  surface    -9.4795E+08 -1.2702E+09 -1.3079E+09 -1.0603E+08 -1.5915E+08 -7.0648E+07  4.1131E-02
      16-
 mid.  surface    -4.8060E+09 -5.1073E+09 -5.1246E+09 -6.8229E+07 -9.5746E+06 -6.1664E+07 -1.6698E-02
      18-
 mid.  surface     1.8728E+09  1.7966E+09  1.3667E+09  2.7189E+06 -2.2546E+08 -6.2762E+07  1.2660E-01
      40-
 mid.  surface     2.7597E+08  3.5682E+08  2.0926E+08  3.3935E+07  4.9982E+07  4.2457E+07  1.0168E-01
      41-
 mid.  surface    -1.3704E+08 -1.3339E+08 -3.4898E+08  1.0911E+07 -3.8242E+07 -3.9407E+05  7.5147E-02
      50-
 mid.  surface     1.6110E+09  1.4109E+09  2.1378E+09 -1.9807E+08  1.9040E+07  1.4318E+08  2.3971E-01
      51-
 mid.  surface     2.1039E+09  2.4250E+09  1.8432E+09  1.1300E+08 -3.9385E+07 -4.4222E+07  3.8281E-01
      52-
 mid.  surface     3.4240E+09  3.5699E+09  3.0843E+09  5.4139E+07  3.2011E+07 -1.2661E+08  2.3633E-01
      53-
 mid.  surface     1.2670E+09  1.3256E+09  2.2530E+09 -4.2341E+07  3.9271E+07  1.3165E+08  1.1967E-01
      72-
 mid.  surface     1.5521E+09  1.4767E+09  9.5397E+08 -6.9736E+07 -9.4169E+07 -2.0240E+07  2.4276E-01
      95-
 mid.  surface     9.4540E+08  1.2787E+09  1.1763E+09  1.0703E+08  1.8143E+08  1.5357E+08  1.5555E-01
     100-
 mid.  surface    -2.0512E+09 -1.9104E+09 -1.7919E+09  8.9627E+06  2.7669E+08  1.1518E+08  1.0167E-01
     110-
 mid.  surface    -2.5235E+09 -2.5600E+09 -2.7634E+09 -5.5471E+06  2.0833E+07 -2.3627E+07  1.2983E-01



 n o d a l  s t r a i n  c a l c u l a t i o n s   f o r   t i m e  s t e p      363   ( at time 8.40173E+00 )

 node (global)
          strain       eps-xx      eps-yy      eps-zz      eps-xy      eps-yz      eps-zx       
       4-
 mid.  surface     1.2143E-01  5.2301E-02 -1.7477E-01  2.8335E-02 -1.0442E-02  4.0374E-02
       5-
 mid.  surface     9.0384E-02  8.0638E-02 -1.3492E-01  3.6755E-02 -2.0692E-02 -3.1994E-02
       6-
 mid.  surface     4.7246E-02  6.0982E-02 -5.6632E-02  1.3258E-02 -6.0608E-02 -4.4351E-02
       7-
 mid.  surface     4.5277E-02  2.3847E-02 -6.4129E-02 -8.0824E-04 -6.2046E-02 -1.2753E-02
       8-
 mid.  surface     5.6676E-02  3.8708E-02 -1.0121E-01  6.9359E-03 -2.7469E-02  5.9610E-03
       9-
 mid.  surface     4.9535E-02  6.9246E-02 -1.3528E-01 -1.0509E-02 -1.3511E-03 -3.7323E-03
      10-
 mid.  surface     2.6841E-02  7.6879E-02 -8.2243E-02 -1.1585E-02  5.5081E-03 -1.6368E-03
      15-
 mid.  surface     4.2464E-02  4.1364E-02 -9.4347E-02 -1.9107E-02 -7.1335E-02 -4.3396E-02
      16-
 mid.  surface     6.5502E-02  4.7190E-02 -1.1111E-01 -6.5483E-03 -4.4649E-02 -4.1279E-02
      18-
 mid.  surface     3.8550E-02  5.5105E-02 -7.3435E-02  4.4370E-03 -3.4951E-02 -9.5623E-03
      40-
 mid.  surface     3.8888E-02  5.1218E-02 -8.2796E-02  6.5844E-03 -8.1650E-04  5.5088E-03
      41-
 mid.  surface     3.8313E-02  3.1017E-02 -7.2520E-02  3.5944E-03 -3.5057E-02 -3.5649E-03
      50-
 mid.  surface     6.3685E-02  5.8513E-02 -1.4078E-01  1.8768E-02  2.9263E-02  2.0276E-02
      51-
 mid.  surface     2.8373E-02  5.1705E-02 -1.6795E-01 -2.4219E-02  3.9203E-02 -3.4293E-02
      52-
 mid.  surface     1.7090E-02  6.8839E-02 -1.3079E-01 -1.3207E-02  4.3222E-02 -8.8823E-02
      53-
 mid.  surface     5.0889E-02  5.5966E-02 -9.6072E-02  3.2058E-02  2.5980E-02 -3.8238E-04
      72-
 mid.  surface     6.3289E-02  5.9071E-02 -1.2939E-01  1.6509E-02  1.9699E-02  1.6776E-02
      95-
 mid.  surface     7.8863E-02  4.3491E-02 -1.0670E-01  2.2109E-02  3.9082E-02  2.4870E-02
     100-
 mid.  surface     5.8861E-02  3.9947E-02 -1.1634E-01  3.7901E-03  1.0301E-02 -3.2231E-03
     110-
 mid.  surface     6.3200E-02  2.3536E-02 -1.2458E-01  3.8588E-03 -4.0791E-02 -2.4202E-02



 n o d a l  s t r e s s  c a l c u l a t i o n s   f o r   t i m e  s t e p      448   ( at time 9.15232E+00 )

 node (global)
          stress       sig-xx      sig-yy      sig-zz      sig-xy      sig-yz      sig-zx       plastic
                                                                                                 strain 
       4-
 mid.  surface     6.6077E+07 -1.4029E+08 -3.0956E+09 -2.7670E+07  2.3159E+07  6.5136E+06  4.6859E-01
       5-
 mid.  surface     3.2004E+08  9.2267E+07 -2.6696E+09  2.4337E+08 -1.6942E+08 -2.0116E+08  3.5706E-01
       6-
 mid.  surface    -1.7952E+09 -2.2322E+09 -1.6027E+09  5.6733E+07 -1.4949E+07 -8.6100E+07 -1.4755E-01
       7-
 mid.  surface    -1.8469E+09 -1.5031E+09 -1.8311E+09  1.9936E+07 -8.7072E+07  1.7454E+08 -3.5086E-02
       8-
 mid.  surface    -5.4583E+08 -5.2054E+08 -8.5388E+08  3.7104E+07 -2.0882E+07  2.0386E+07  1.0415E-01
       9-
 mid.  surface    -1.1037E+09 -1.0754E+09 -1.3738E+09 -6.7361E+07 -1.2237E+07  5.7493E+06  1.2874E-01
      10-
 mid.  surface     1.7765E+09  1.8281E+09  1.5885E+09 -5.1932E+07 -1.8265E+08 -1.6258E+07  8.5208E-02
      15-
 mid.  surface    -1.5554E+09 -1.5320E+09 -1.7477E+09 -1.4203E+08 -1.0852E+08 -6.8557E+07  4.3622E-02
      16-
 mid.  surface    -2.9329E+09 -3.5806E+09 -3.1850E+09 -1.9138E+08  1.1292E+07 -1.9019E+08  1.0898E-02
      18-
 mid.  surface     2.1505E+09  2.1030E+09  1.6311E+09  4.9817E+06 -3.5417E+08 -8.3430E+07  1.3858E-01
      40-
 mid.  surface     3.4547E+08  3.9509E+08  3.3418E+08  1.0502E+07  3.6530E+07  1.2807E+06  1.0424E-01
      41-
 mid.  surface    -2.0844E+08 -2.1864E+08 -1.6149E+08  6.6819E+06 -4.8607E+07 -7.4643E+06  9.2526E-02
      50-
 mid.  surface     1.3362E+09  1.1089E+09  2.0258E+09 -1.1326E+08 -2.6211E+07  2.3279E+07  1.9879E-01
      51-
 mid.  surface     1.0297E+09  1.2096E+09  4.1102E+08  4.8868E+07  4.5492E+07  2.5980E+07  3.9638E-01
      52-
 mid.  surface     1.3325E+09  1.5657E+09  7.9235E+08  2.7012E+08  2.8526E+07  1.3408E+08  2.4992E-01
      53-
 mid.  surface     1.5663E+09  1.5480E+09  2.6391E+09  8.6698E+07 -1.7045E+08 -2.0094E+07  6.5239E-02
      72-
 mid.  surface     1.0327E+09  1.2550E+09  6.8852E+08 -1.1771E+08 -7.1972E+07 -6.1090E+07  2.5696E-01
      95-
 mid.  surface     2.5039E+08  8.1705E+08  5.9345E+08  3.0825E+07  3.1359E+08  1.4626E+08  1.4579E-01
     100-
 mid.  surface    -2.2453E+09 -2.1294E+09 -2.0069E+09  3.2650E+07  4.0558E+08  6.2156E+07  9.4894E-02
     110-
 mid.  surface    -2.8985E+09 -2.9259E+09 -2.9057E+09  1.4812E+07  1.3637E+08 -2.6104E+07  1.5199E-01



 n o d a l  s t r a i n  c a l c u l a t i o n s   f o r   t i m e  s t e p      448   ( at time 9.15232E+00 )

 node (global)
          strain       eps-xx      eps-yy      eps-zz      eps-xy      eps-yz      eps-zx       
       4-
 mid.  surface     1.1923E-01  6.5403E-02 -2.0846E-01  3.8393E-02 -1.0623E-02  4.3562E-02
       5-
 mid.  surface     8.0704E-02  9.7055E-02 -1.5077E-01  5.9231E-02 -2.7453E-02 -3.6686E-02
       6-
 mid.  surface     5.9221E-02  6.5295E-02 -5.2054E-02  1.8378E-02 -7.3672E-02 -5.0654E-02
       7-
 mid.  surface     4.7717E-02  2.9122E-02 -7.6293E-02 -1.1368E-03 -6.3249E-02 -7.7605E-03
       8-
 mid.  surface     6.1412E-02  4.2170E-02 -1.0872E-01  6.8902E-03 -3.0133E-02  6.7924E-03
       9-
 mid.  surface     5.4697E-02  7.4621E-02 -1.4680E-01 -1.3055E-02 -3.7286E-03 -3.3599E-03
      10-
 mid.  surface     3.0286E-02  8.3746E-02 -8.9849E-02 -1.4100E-02  2.3830E-03 -1.0666E-03
      15-
 mid.  surface     4.4649E-02  4.6231E-02 -1.0102E-01 -2.1471E-02 -7.6141E-02 -4.3803E-02
      16-
 mid.  surface     8.4586E-02  4.3688E-02 -1.1903E-01 -1.0477E-02 -4.8390E-02 -4.2173E-02
      18-
 mid.  surface     4.2873E-02  6.0325E-02 -7.9450E-02  4.2678E-03 -4.0482E-02 -9.9906E-03
      40-
 mid.  surface     4.2630E-02  5.7016E-02 -9.0735E-02  6.6606E-03 -1.4290E-03  5.3354E-03
      41-
 mid.  surface     4.2635E-02  3.5571E-02 -8.1276E-02  5.4419E-03 -3.9570E-02 -3.8963E-03
      50-
 mid.  surface     6.8162E-02  6.3982E-02 -1.5688E-01  1.8111E-02  3.1708E-02  2.7172E-02
      51-
 mid.  surface     5.3291E-02  6.7925E-02 -2.1019E-01 -2.8427E-02  4.6923E-02 -4.1819E-02
      52-
 mid.  surface     3.6852E-02  7.9902E-02 -1.5391E-01 -2.2550E-02  6.5290E-02 -9.2282E-02
      53-
 mid.  surface     5.6119E-02  6.0701E-02 -9.7521E-02  2.9718E-02  2.2552E-02 -3.9011E-03
      72-
 mid.  surface     6.7484E-02  6.9429E-02 -1.3841E-01  1.9393E-02  1.6161E-02  1.4480E-02
      95-
 mid.  surface     8.5281E-02  5.2927E-02 -1.2160E-01  2.5680E-02  4.1528E-02  2.4074E-02
     100-
 mid.  surface     6.4092E-02  4.4482E-02 -1.2773E-01  3.9796E-03  1.1807E-02 -3.9472E-03
     110-
 mid.  surface     6.9201E-02  2.6438E-02 -1.3771E-01  6.1784E-03 -4.4305E-02 -2.6937E-02



 n o d a l  s t r e s s  c a l c u l a t i o n s   f o r   t i m e  s t e p      490   ( at time 1.03013E+01 )

 node (global)
          stress       sig-xx      sig-yy      sig-zz      sig-xy      sig-yz      sig-zx       plastic
                                                                                                 strain 
       4-
 mid.  surface    -3.0528E+08 -2.3329E+08 -3.2488E+09  3.2149E+08 -2.3263E+08 -2.5232E+08  7.2085E-01
       5-
 mid.  surface     2.3012E+08  9.3734E+07 -2.6880E+09  2.7837E+08 -2.9260E+08 -5.0276E+08  6.0187E-01
       6-
 mid.  surface    -1.5651E+09 -1.7921E+09 -1.4627E+09  4.8131E+07  1.1598E+08 -6.7526E+05 -1.4682E-01
       7-
 mid.  surface    -2.1223E+09 -1.9541E+09 -2.1599E+09  8.1257E+07 -1.4939E+08  1.0715E+08 -3.6434E-02
       8-
 mid.  surface    -6.3679E+08 -6.2461E+08 -8.5491E+08  2.5170E+07  1.4565E+07  1.0605E+07  1.0420E-01
       9-
 mid.  surface    -1.1821E+09 -1.2141E+09 -1.5812E+09 -4.5718E+07 -6.0241E+07  1.4649E+07  1.4282E-01
      10-
 mid.  surface     2.3129E+09  2.3142E+09  1.9416E+09 -5.8011E+07 -2.3144E+08 -3.2510E+06  9.3588E-02
      15-
 mid.  surface    -1.5172E+09 -1.5897E+09 -1.7829E+09 -1.4857E+08 -1.4035E+08 -8.5357E+07  5.3523E-02
      16-
 mid.  surface    -2.7832E+09 -3.0886E+09 -3.0257E+09 -1.0519E+08  4.9180E+07 -4.9744E+07  3.9357E-02
      18-
 mid.  surface     2.5622E+09  2.5496E+09  2.0539E+09 -1.3136E+07 -2.6707E+08 -6.7519E+07  1.6298E-01
      40-
 mid.  surface     4.2843E+08  5.2105E+08  5.1323E+08 -3.5848E+07  7.3864E+07 -1.9398E+07  1.1517E-01
      41-
 mid.  surface     6.9556E+07  5.8058E+07 -3.3836E+07  5.2322E+07 -7.1470E+07 -1.1334E+07  1.1707E-01
      50-
 mid.  surface     1.7295E+09  1.5080E+09  2.3375E+09 -1.6608E+08  2.7986E+07  1.4803E+08  1.3960E-01
      51-
 mid.  surface     1.3518E+08  3.7237E+08 -2.6015E+08  1.6314E+08 -5.3491E+07 -4.1466E+07  4.3981E-01
      52-
 mid.  surface     5.6821E+08  6.4602E+08  6.5232E+07  1.4728E+08  1.5205E+07 -7.5979E+07  2.8400E-01
      53-
 mid.  surface     1.8533E+09  1.7998E+09  2.8389E+09  1.1706E+07 -2.5694E+07  1.5964E+08 -1.4581E-02
      72-
 mid.  surface     1.3690E+09  1.4494E+09  9.4729E+08 -1.8723E+08 -1.1748E+08 -6.8541E+07  2.8616E-01
      95-
 mid.  surface     3.4003E+08  6.8100E+08  6.0143E+08  2.4405E+07  2.0971E+08  9.0952E+07  1.2553E-01
     100-
 mid.  surface    -2.6093E+09 -2.5195E+09 -2.2376E+09  7.1584E+06  3.6162E+08  2.0775E+07  8.8924E-02
     110-
 mid.  surface    -3.2067E+09 -3.2662E+09 -3.3041E+09  9.2453E+07  1.0635E+08 -2.5187E+07  1.8586E-01



 n o d a l  s t r a i n  c a l c u l a t i o n s   f o r   t i m e  s t e p      490   ( at time 1.03013E+01 )

 node (global)
          strain       eps-xx      eps-yy      eps-zz      eps-xy      eps-yz      eps-zx       
       4-
 mid.  surface     1.3210E-01  8.0095E-02 -2.5343E-01  4.5977E-02 -1.1599E-02  5.0696E-02
       5-
 mid.  surface     8.0897E-02  1.2047E-01 -1.7513E-01  8.2931E-02 -3.5159E-02 -4.8978E-02
       6-
 mid.  surface     7.0508E-02  7.7429E-02 -6.0651E-02  2.5443E-02 -8.9349E-02 -5.4123E-02
       7-
 mid.  surface     5.2833E-02  3.5735E-02 -8.9593E-02  1.9825E-04 -6.7962E-02 -3.4788E-03
       8-
 mid.  surface     7.0199E-02  4.7244E-02 -1.2281E-01  7.2136E-03 -3.3254E-02  7.0448E-03
       9-
 mid.  surface     6.4493E-02  8.0654E-02 -1.6470E-01 -1.7153E-02 -8.8855E-03 -8.3331E-04
      10-
 mid.  surface     3.8685E-02  9.4537E-02 -1.0250E-01 -1.8658E-02 -5.6728E-03  1.5354E-03
      15-
 mid.  surface     4.9958E-02  5.5829E-02 -1.1649E-01 -2.5258E-02 -8.3340E-02 -4.4606E-02
      16-
 mid.  surface     1.0682E-01  4.2880E-02 -1.3765E-01 -1.5284E-02 -5.3651E-02 -4.0993E-02
      18-
 mid.  surface     5.0906E-02  7.0815E-02 -9.2593E-02  3.7593E-03 -4.7171E-02 -1.0768E-02
      40-
 mid.  surface     4.8580E-02  7.0665E-02 -1.0776E-01  4.1236E-03 -1.5411E-03  3.9178E-03
      41-
 mid.  surface     5.0629E-02  4.8095E-02 -9.8632E-02  1.0670E-02 -4.5002E-02 -3.7272E-03
      50-
 mid.  surface     8.0047E-02  7.3699E-02 -1.8281E-01  1.7427E-02  3.4395E-02  3.0041E-02
      51-
 mid.  surface     7.1728E-02  8.8520E-02 -2.6197E-01 -3.8412E-02  5.7191E-02 -4.5935E-02
      52-
 mid.  surface     4.9518E-02  9.9250E-02 -1.8506E-01 -3.2435E-02  8.5851E-02 -9.8810E-02
      53-
 mid.  surface     6.5090E-02  6.8715E-02 -1.0966E-01  3.2059E-02  1.6996E-02 -1.1655E-02
      72-
 mid.  surface     7.5826E-02  8.6501E-02 -1.5938E-01  1.9877E-02  1.6319E-02  1.6376E-02
      95-
 mid.  surface     9.8673E-02  6.5162E-02 -1.4088E-01  2.8731E-02  4.3995E-02  2.5037E-02
     100-
 mid.  surface     7.3864E-02  5.2918E-02 -1.4861E-01  3.9237E-03  1.1607E-02 -7.0762E-03
     110-
 mid.  surface     8.0225E-02  3.3558E-02 -1.6097E-01  1.4190E-02 -4.9575E-02 -3.0736E-02



 n o d a l  s t r e s s  c a l c u l a t i o n s   f o r   t i m e  s t e p      527   ( at time 1.10956E+01 )

 node (global)
          stress       sig-xx      sig-yy      sig-zz      sig-xy      sig-yz      sig-zx       plastic
                                                                                                 strain 
       4-
 mid.  surface     2.1352E+08 -3.5510E+08 -3.2015E+09  2.7329E+07  5.6353E+06 -4.6176E+08  8.9313E-01
       5-
 mid.  surface     7.9880E+08  1.8113E+08 -2.5819E+09  8.8107E+07 -1.2464E+08 -4.8893E+08  7.6587E-01
       6-
 mid.  surface    -1.1038E+09 -1.3388E+09 -1.8016E+09  1.3812E+07  1.4279E+08  6.2579E+06 -1.2935E-01
       7-
 mid.  surface    -1.3971E+09 -1.2367E+09 -2.1825E+09  3.5865E+07 -4.4127E+07  1.0371E+08 -9.3436E-03
       8-
 mid.  surface    -6.5069E+08 -6.3415E+08 -7.5978E+08 -4.6604E+06 -1.1824E+07 -8.0949E+06  1.0610E-01
       9-
 mid.  surface    -1.1606E+09 -1.1825E+09 -1.5598E+09 -4.1993E+07 -9.8943E+07  1.7556E+07  1.4923E-01
      10-
 mid.  surface     2.3077E+09  2.2679E+09  1.9212E+09 -5.5556E+07 -2.6553E+08  1.8610E+06  1.0242E-01
      15-
 mid.  surface    -1.0879E+09 -1.1611E+09 -2.1001E+09 -1.1740E+08 -1.9180E+08 -6.0146E+07  9.0232E-02
      16-
 mid.  surface    -2.5430E+09 -2.9061E+09 -3.6355E+09 -1.6638E+08  3.7858E+07 -1.8748E+08  7.6479E-02
      18-
 mid.  surface     2.4814E+09  2.4448E+09  1.9715E+09 -2.1040E+07 -2.4653E+08 -6.7515E+07  1.8181E-01
      40-
 mid.  surface     3.7289E+08  4.3933E+08  3.6578E+08 -1.9866E+07  6.6448E+07  9.2582E+06  1.2068E-01
      41-
 mid.  surface     8.3806E+07  1.1339E+08 -1.8036E+08  3.4202E+07 -2.4971E+07  1.5740E+07  1.3053E-01
      50-
 mid.  surface     4.7625E+08  5.9342E+08  1.9308E+09 -7.7682E+07 -4.6673E+07  4.5672E+07  6.9402E-02
      51-
 mid.  surface     1.2868E+09  1.1514E+09  7.2098E+08  1.0956E+08  1.2741E+07 -3.8379E+07  4.7897E-01
      52-
 mid.  surface     1.3429E+09  1.2042E+09  7.6031E+08  1.7279E+08 -2.3460E+07  5.2149E+07  3.2080E-01
      53-
 mid.  surface     1.1083E+09  1.3797E+09  2.9437E+09  9.1171E+07  1.2279E+06  1.7318E+08 -1.0344E-01
      72-
 mid.  surface     3.2304E+08  5.6115E+08  5.8339E+08 -1.0363E+08 -1.8947E+08 -7.6672E+07  2.8078E-01
      95-
 mid.  surface    -5.0659E+08 -5.5148E+07  5.4995E+08  6.0709E+07  1.5390E+08  1.5618E+08  9.0082E-02
     100-
 mid.  surface    -2.6640E+09 -2.5540E+09 -2.2842E+09  1.5186E+05  2.8031E+08  7.6848E+07  8.2437E-02
     110-
 mid.  surface    -3.1950E+09 -3.1623E+09 -3.4174E+09  5.0250E+07  1.4857E+08  2.7997E+07  2.0107E-01



 n o d a l  s t r a i n  c a l c u l a t i o n s   f o r   t i m e  s t e p      527   ( at time 1.10956E+01 )

 node (global)
          strain       eps-xx      eps-yy      eps-zz      eps-xy      eps-yz      eps-zx       
       4-
 mid.  surface     1.5301E-01  8.5227E-02 -2.7505E-01  5.0212E-02 -1.0159E-02  5.8374E-02
       5-
 mid.  surface     9.9705E-02  1.3059E-01 -2.0073E-01  9.1278E-02 -3.7087E-02 -5.2791E-02
       6-
 mid.  surface     8.4110E-02  8.1862E-02 -6.8310E-02  2.6106E-02 -9.1022E-02 -5.4973E-02
       7-
 mid.  surface     5.6737E-02  4.1208E-02 -9.9635E-02 -2.4498E-03 -6.7922E-02 -2.1911E-03
       8-
 mid.  surface     7.5775E-02  4.9781E-02 -1.3055E-01  6.4281E-03 -3.4584E-02  5.8412E-03
       9-
 mid.  surface     6.9827E-02  8.3785E-02 -1.7285E-01 -1.8325E-02 -1.3772E-02  1.9526E-04
      10-
 mid.  surface     4.5331E-02  9.9285E-02 -1.1424E-01 -1.9988E-02 -1.0932E-02  2.7884E-03
      15-
 mid.  surface     5.2104E-02  6.1430E-02 -1.2524E-01 -2.8647E-02 -8.6264E-02 -4.4385E-02
      16-
 mid.  surface     1.1939E-01  4.1987E-02 -1.4772E-01 -1.8672E-02 -5.4528E-02 -4.0564E-02
      18-
 mid.  surface     5.6882E-02  7.4955E-02 -1.0400E-01  3.0156E-03 -4.9663E-02 -1.1416E-02
      40-
 mid.  surface     5.3167E-02  7.7457E-02 -1.2049E-01  3.1970E-03 -1.2343E-03  3.3687E-03
      41-
 mid.  surface     5.6157E-02  5.7392E-02 -1.1389E-01  1.2448E-02 -4.6049E-02 -1.7883E-03
      50-
 mid.  surface     8.5227E-02  7.9770E-02 -1.9604E-01  1.8464E-02  3.4577E-02  2.7027E-02
      51-
 mid.  surface     7.6993E-02  9.6446E-02 -2.8277E-01 -4.3899E-02  5.9254E-02 -5.3267E-02
      52-
 mid.  surface     6.0842E-02  1.0866E-01 -2.1271E-01 -3.6668E-02  9.2071E-02 -1.0498E-01
      53-
 mid.  surface     7.2399E-02  7.6042E-02 -1.2174E-01  3.3861E-02  1.9001E-02 -1.2992E-02
      72-
 mid.  surface     7.9863E-02  9.4571E-02 -1.6970E-01  2.0538E-02  1.4420E-02  1.5286E-02
      95-
 mid.  surface     1.0552E-01  7.2093E-02 -1.5333E-01  2.9488E-02  4.3627E-02  2.4828E-02
     100-
 mid.  surface     7.8816E-02  5.8799E-02 -1.6006E-01  3.1386E-03  1.1429E-02 -8.1467E-03
     110-
 mid.  surface     8.5621E-02  4.1145E-02 -1.7404E-01  1.6041E-02 -5.1021E-02 -2.9160E-02



 n o d a l  s t r e s s  c a l c u l a t i o n s   f o r   t i m e  s t e p      567   ( at time 1.21247E+01 )

 node (global)
          stress       sig-xx      sig-yy      sig-zz      sig-xy      sig-yz      sig-zx       plastic
                                                                                                 strain 
       4-
 mid.  surface    -5.5177E+08 -6.6723E+08 -2.1723E+09  1.0958E+08  8.8108E+07 -1.3634E+08  1.0701E+00
       5-
 mid.  surface    -3.1001E+08 -4.4081E+08 -1.9334E+09  9.5412E+07  4.9841E+06 -1.7152E+08  9.3488E-01
       6-
 mid.  surface    -9.5446E+08 -1.2326E+09 -1.7332E+09 -5.4718E+07  1.8371E+08  1.3766E+08 -8.6747E-02
       7-
 mid.  surface    -9.7739E+08 -1.0339E+09 -1.8221E+09 -4.9024E+06 -5.6020E+07  1.0232E+08  2.3146E-02
       8-
 mid.  surface    -7.7539E+08 -7.9480E+08 -9.3276E+08  1.2671E+07  3.4524E+07  4.2766E+06  1.1096E-01
       9-
 mid.  surface    -1.3230E+09 -1.3503E+09 -1.6471E+09 -1.9899E+07  1.4150E+06  9.0571E+05  1.6163E-01
      10-
 mid.  surface     2.7080E+09  2.6932E+09  2.3973E+09 -2.0203E+07 -1.1205E+08 -1.4035E+07  1.0971E-01
      15-
 mid.  surface    -5.1304E+08 -5.1647E+08 -1.5094E+09 -6.8531E+07 -1.2396E+08 -5.5169E+07  1.3885E-01
      16-
 mid.  surface    -2.4376E+09 -2.6655E+09 -3.5655E+09 -9.5498E+07  8.9076E+07 -1.3858E+07  1.5333E-01
      18-
 mid.  surface     2.9379E+09  2.9249E+09  2.4325E+09 -1.5014E+07 -1.6773E+08 -8.2111E+07  2.1022E-01
      40-
 mid.  surface     6.2561E+08  7.0032E+08  5.5282E+08 -1.7345E+07  8.1654E+07  3.8784E+07  1.3525E-01
      41-
 mid.  surface     2.8762E+08  2.9082E+08  3.4169E+07  2.5572E+07 -7.5642E+07  6.6197E+06  1.4999E-01
      50-
 mid.  surface     5.8850E+08  6.3673E+08  1.5293E+09 -4.5037E+07 -1.1738E+08 -9.7684E+07  3.0068E-03
      51-
 mid.  surface     9.7560E+08  9.9034E+08  5.6092E+08  1.2327E+08 -1.3370E+07 -6.3337E+07  5.2207E-01
      52-
 mid.  surface     1.0351E+09  1.0461E+09  6.1972E+08  1.1978E+08 -3.3830E+07 -7.1998E+07  3.5273E-01
      53-
 mid.  surface     9.2970E+08  9.5170E+08  2.1871E+09 -1.9322E+06 -5.1873E+07  6.2966E+07 -1.9449E-01
      72-
 mid.  surface     3.2282E+08  5.6945E+08  5.6802E+08 -4.6848E+07 -2.1593E+08 -1.0453E+08  2.6449E-01
      95-
 mid.  surface    -4.4451E+08 -2.1844E+08  5.2236E+08  1.5880E+07  8.7213E+07  1.2705E+08  1.8249E-02
     100-
 mid.  surface    -3.0027E+09 -2.9382E+09 -2.7417E+09  4.4121E+06  2.8015E+08  1.0345E+08  8.0905E-02
     110-
 mid.  surface    -3.5704E+09 -3.5937E+09 -3.8318E+09  4.0064E+07  3.6430E+07  7.8914E+06  2.2804E-01



 n o d a l  s t r a i n  c a l c u l a t i o n s   f o r   t i m e  s t e p      567   ( at time 1.21247E+01 )

 node (global)
          strain       eps-xx      eps-yy      eps-zz      eps-xy      eps-yz      eps-zx       
       4-
 mid.  surface     1.5686E-01  1.0205E-01 -3.1196E-01  5.6384E-02 -5.3186E-03  7.1148E-02
       5-
 mid.  surface     9.1837E-02  1.5790E-01 -2.1881E-01  1.0983E-01 -3.8189E-02 -5.8957E-02
       6-
 mid.  surface     9.2872E-02  9.4750E-02 -7.8762E-02  3.2599E-02 -1.0672E-01 -5.4975E-02
       7-
 mid.  surface     6.3892E-02  4.2010E-02 -1.0420E-01 -7.6304E-04 -7.2493E-02 -3.4347E-05
       8-
 mid.  surface     8.4218E-02  5.6745E-02 -1.4813E-01  7.0258E-03 -3.4805E-02  6.8617E-03
       9-
 mid.  surface     7.8904E-02  9.0906E-02 -1.9107E-01 -2.1581E-02 -1.6003E-02  1.9237E-03
      10-
 mid.  surface     5.2491E-02  1.1018E-01 -1.2612E-01 -2.4399E-02 -1.4942E-02  5.0481E-03
      15-
 mid.  surface     5.7630E-02  7.0176E-02 -1.3704E-01 -3.1384E-02 -9.1889E-02 -4.5725E-02
      16-
 mid.  surface     1.3650E-01  4.4793E-02 -1.6936E-01 -2.0531E-02 -6.3865E-02 -3.8002E-02
      18-
 mid.  surface     6.3817E-02  8.7985E-02 -1.1742E-01  3.2418E-03 -5.2899E-02 -1.1111E-02
      40-
 mid.  surface     5.9554E-02  9.1024E-02 -1.3709E-01  2.0402E-03 -4.5218E-03  1.7920E-03
      41-
 mid.  surface     6.4242E-02  6.7449E-02 -1.2927E-01  1.6094E-02 -5.1272E-02 -2.3530E-03
      50-
 mid.  surface     1.0396E-01  9.0759E-02 -2.2700E-01  1.9882E-02  3.2206E-02  2.4012E-02
      51-
 mid.  surface     9.6173E-02  1.0942E-01 -3.2783E-01 -5.6231E-02  7.0690E-02 -6.3005E-02
      52-
 mid.  surface     7.6128E-02  1.2732E-01 -2.3973E-01 -4.5334E-02  1.0969E-01 -1.1243E-01
      53-
 mid.  surface     8.5942E-02  8.4785E-02 -1.3893E-01  4.1651E-02  1.1375E-02 -2.1179E-02
      72-
 mid.  surface     8.6168E-02  1.1098E-01 -1.9058E-01  1.7783E-02  1.9391E-02  2.1281E-02
      95-
 mid.  surface     1.1659E-01  8.0818E-02 -1.6747E-01  2.8728E-02  4.6079E-02  2.8041E-02
     100-
 mid.  surface     8.8419E-02  6.7473E-02 -1.8384E-01  2.7690E-03  9.1724E-03 -1.2009E-02
     110-
 mid.  surface     9.5924E-02  4.7485E-02 -1.9655E-01  2.1374E-02 -5.6582E-02 -3.4774E-02



 n o d a l  s t r e s s  c a l c u l a t i o n s   f o r   t i m e  s t e p      591   ( at time 1.31247E+01 )

 node (global)
          stress       sig-xx      sig-yy      sig-zz      sig-xy      sig-yz      sig-zx       plastic
                                                                                                 strain 
       4-
 mid.  surface    -2.4592E+08 -1.2739E+08 -1.8245E+09  2.7950E+08  2.0284E+08 -1.1010E+08  1.2238E+00
       5-
 mid.  surface    -4.7519E+08 -4.9639E+08 -1.8491E+09  1.3222E+08  4.2052E+07 -4.2564E+08  1.0909E+00
       6-
 mid.  surface    -1.8190E+07 -7.6760E+08 -8.7977E+08 -6.4425E+07  2.7735E+08  4.5849E+07 -3.9198E-02
       7-
 mid.  surface    -4.7300E+08 -6.9356E+08 -1.4799E+09  1.5003E+07 -1.8843E+08  4.5784E+07  5.1653E-02
       8-
 mid.  surface    -8.3583E+08 -7.9494E+08 -1.1243E+09  5.6751E+07  3.4179E+07  2.1123E+07  1.1051E-01
       9-
 mid.  surface    -1.4465E+09 -1.4913E+09 -1.8367E+09 -4.6873E+07 -7.1916E+07  2.1556E+07  1.7600E-01
      10-
 mid.  surface     3.3700E+09  3.3767E+09  3.0082E+09 -7.7258E+07 -1.9025E+08  7.4382E+06  1.1669E-01
      15-
 mid.  surface     3.9098E+08  3.0331E+08 -7.0604E+08 -2.4817E+08 -2.2098E+08 -2.5796E+08  1.8061E-01
      16-
 mid.  surface    -1.5335E+09 -2.0455E+09 -2.6573E+09 -2.0786E+08  2.0382E+08 -8.3450E+07  2.2498E-01
      18-
 mid.  surface     3.4933E+09  3.5290E+09  3.0108E+09  1.8815E+06 -2.6210E+08 -9.0515E+07  2.3718E-01
      40-
 mid.  surface     6.6699E+08  8.3203E+08  8.3221E+08 -4.9943E+07  1.6581E+08  2.1881E+07  1.5185E-01
      41-
 mid.  surface     5.4660E+08  4.9591E+08  4.7169E+08  4.5562E+07 -6.3224E+07 -1.4012E+07  1.7300E-01
      50-
 mid.  surface     1.3704E+08  1.6226E+08  1.1701E+09 -5.3578E+07 -1.5826E+08  5.9836E+07 -6.3409E-02
      51-
 mid.  surface     5.8497E+08  7.5881E+08  7.0357E+07  2.8548E+08  1.9934E+06  6.1324E+07  5.7613E-01
      52-
 mid.  surface     5.2854E+08  6.6798E+08  6.4287E+07  2.4923E+08 -3.7583E+07 -1.6342E+07  4.0737E-01
      53-
 mid.  surface     3.2497E+08  1.5061E+08  1.6104E+09  9.9676E+07 -1.6826E+08  2.2083E+08 -2.8077E-01
      72-
 mid.  surface    -5.0515E+08  1.5853E+08  1.3392E+08 -2.1648E+08 -3.1328E+08 -1.7048E+08  2.4401E-01
      95-
 mid.  surface    -1.1258E+09 -6.0714E+08 -8.6691E+07  3.7595E+07  1.1847E+08  1.2795E+08 -5.7472E-02
     100-
 mid.  surface    -3.6416E+09 -3.5018E+09 -3.2746E+09  7.5960E+06  4.6703E+08  7.8933E+07  7.9708E-02
     110-
 mid.  surface    -4.1404E+09 -4.2385E+09 -4.2340E+09  9.7008E+07  4.7172E+07 -5.3638E+07  2.6102E-01



 n o d a l  s t r a i n  c a l c u l a t i o n s   f o r   t i m e  s t e p      591   ( at time 1.31247E+01 )

 node (global)
          strain       eps-xx      eps-yy      eps-zz      eps-xy      eps-yz      eps-zx       
       4-
 mid.  surface     1.6128E-01  1.2362E-01 -3.6066E-01  6.0752E-02  2.2147E-03  8.9861E-02
       5-
 mid.  surface     7.6258E-02  1.9441E-01 -2.4566E-01  1.3390E-01 -3.8132E-02 -6.6941E-02
       6-
 mid.  surface     1.0206E-01  1.0977E-01 -8.4195E-02  4.1726E-02 -1.2586E-01 -5.0411E-02
       7-
 mid.  surface     6.9042E-02  4.1048E-02 -1.0555E-01 -1.9475E-04 -7.5173E-02  3.6964E-03
       8-
 mid.  surface     9.2672E-02  6.2682E-02 -1.6384E-01  7.8653E-03 -3.5454E-02  7.3749E-03
       9-
 mid.  surface     8.8289E-02  9.5631E-02 -2.0744E-01 -2.5566E-02 -2.0040E-02  5.5920E-03
      10-
 mid.  surface     5.9670E-02  1.2003E-01 -1.3390E-01 -3.0032E-02 -1.9861E-02  9.5946E-03
      15-
 mid.  surface     5.8278E-02  8.1332E-02 -1.4282E-01 -3.6993E-02 -9.6599E-02 -4.5203E-02
      16-
 mid.  surface     1.5544E-01  4.3760E-02 -1.8808E-01 -2.3100E-02 -7.5740E-02 -3.1281E-02
      18-
 mid.  surface     7.1684E-02  1.0220E-01 -1.3135E-01  3.6123E-03 -5.6518E-02 -1.0672E-02
      40-
 mid.  surface     6.6354E-02  1.0617E-01 -1.5697E-01 -3.3009E-04 -8.4322E-03 -2.4132E-04
      41-
 mid.  surface     7.2423E-02  7.7729E-02 -1.4350E-01  2.0816E-02 -5.8224E-02 -2.3770E-03
      50-
 mid.  surface     1.3101E-01  1.0019E-01 -2.5923E-01  2.4236E-02  2.7855E-02  1.5706E-02
      51-
 mid.  surface     1.3097E-01  1.2164E-01 -3.8758E-01 -7.2665E-02  8.3911E-02 -8.5918E-02
      52-
 mid.  surface     1.0730E-01  1.4753E-01 -2.7885E-01 -5.3970E-02  1.3999E-01 -1.1972E-01
      53-
 mid.  surface     1.0511E-01  9.3934E-02 -1.5363E-01  5.7464E-02  2.8533E-03 -3.1010E-02
      72-
 mid.  surface     8.6944E-02  1.3228E-01 -2.0791E-01  1.0862E-02  2.4168E-02  2.6209E-02
      95-
 mid.  surface     1.2527E-01  9.1258E-02 -1.8051E-01  2.5046E-02  4.7667E-02  2.8908E-02
     100-
 mid.  surface     9.8072E-02  7.5687E-02 -2.1004E-01  1.8366E-03  5.0159E-03 -1.5958E-02
     110-
 mid.  surface     1.0644E-01  5.2854E-02 -2.2022E-01  2.9376E-02 -6.7927E-02 -4.1146E-02



 n o d a l  s t r e s s  c a l c u l a t i o n s   f o r   t i m e  s t e p      606   ( at time 1.44171E+01 )

 node (global)
          stress       sig-xx      sig-yy      sig-zz      sig-xy      sig-yz      sig-zx       plastic
                                                                                                 strain 
       4-
 mid.  surface     4.6425E+07 -4.8701E+07 -1.6167E+09  9.0863E+07  6.9153E+07 -1.5239E+08  1.3140E+00
       5-
 mid.  surface    -1.5440E+08 -2.8790E+08 -1.8140E+09  6.9480E+07 -4.2554E+07 -2.3132E+08  1.1770E+00
       6-
 mid.  surface    -9.8320E+08 -1.3761E+09 -1.8449E+09 -5.8999E+07  1.4658E+08  1.7989E+08 -5.2848E-03
       7-
 mid.  surface    -1.9168E+09 -2.0004E+09 -2.0521E+09 -4.5203E+07  9.4759E+07  1.8104E+08  7.1830E-02
       8-
 mid.  surface    -2.3033E+09 -2.3146E+09 -1.7627E+09  1.8814E+07  2.3682E+08  8.4598E+07  8.8584E-02
       9-
 mid.  surface    -1.5421E+09 -1.6250E+09 -1.9212E+09 -3.0798E+07 -3.4845E+07  4.6649E+07  1.8993E-01
      10-
 mid.  surface     3.0926E+09  2.9738E+09  2.7050E+09 -2.8575E+07 -2.2044E+08 -1.9080E+06  1.3539E-01
      15-
 mid.  surface    -1.1571E+09 -9.1603E+08 -1.3847E+09 -2.9154E+07  8.9063E+07  8.5657E+07  2.0668E-01
      16-
 mid.  surface    -2.7016E+09 -2.8256E+09 -3.8466E+09 -4.5548E+07  5.7959E+07  5.6164E+07  2.8242E-01
      18-
 mid.  surface     2.3721E+09  2.4011E+09  2.5334E+09  3.5782E+06  6.6128E+07  1.8702E+07  2.4139E-01
      40-
 mid.  surface     2.0011E+09  2.0424E+09  1.1792E+09 -2.8902E+07 -1.2611E+08 -8.1011E+07  1.8687E-01
      41-
 mid.  surface     4.2362E+08  4.7838E+08  1.4005E+08  2.1910E+07 -5.9858E+07  2.0325E+07  1.9499E-01
      50-
 mid.  surface     2.1117E+08  3.2492E+08  1.1652E+09 -4.0104E+06 -7.1528E+07 -6.8429E+07 -1.0838E-01
      51-
 mid.  surface     1.1779E+09  1.2076E+09  7.5786E+08  6.7612E+07  3.4545E+06 -9.5677E+07  6.0601E-01
      52-
 mid.  surface     1.1284E+09  1.1487E+09  7.0930E+08  6.2349E+07 -2.4042E+07 -1.1511E+08  4.3625E-01
      53-
 mid.  surface     6.4434E+08  5.0704E+08  1.8509E+09 -1.1053E+07  4.2619E+06  6.7143E+07 -3.4623E-01
      72-
 mid.  surface     1.6227E+09  1.8919E+09  1.1725E+09 -2.7483E+07 -4.1766E+08 -2.3642E+08  2.6404E-01
      95-
 mid.  surface     6.9467E+08  7.0118E+08  9.1398E+08 -2.7600E+07 -2.1348E+08 -4.5548E+07 -8.2427E-02
     100-
 mid.  surface    -2.8825E+09 -2.8744E+09 -3.3382E+09 -1.1774E+07  3.9415E+07 -8.0847E+06  9.6613E-02
     110-
 mid.  surface    -4.1475E+09 -4.0893E+09 -4.3982E+09  5.8538E+07  1.2718E+08  7.2300E+07  2.8353E-01



 n o d a l  s t r a i n  c a l c u l a t i o n s   f o r   t i m e  s t e p      606   ( at time 1.44171E+01 )

 node (global)
          strain       eps-xx      eps-yy      eps-zz      eps-xy      eps-yz      eps-zx       
       4-
 mid.  surface     1.6292E-01  1.3531E-01 -3.8250E-01  6.2615E-02  6.8887E-03  9.0203E-02
       5-
 mid.  surface     8.1965E-02  2.0558E-01 -2.5458E-01  1.3577E-01 -3.5843E-02 -7.2694E-02
       6-
 mid.  surface     1.1802E-01  1.1870E-01 -1.0452E-01  4.0107E-02 -1.2722E-01 -4.9288E-02
       7-
 mid.  surface     7.8874E-02  4.9214E-02 -1.1825E-01  1.6160E-04 -7.6287E-02  5.8967E-03
       8-
 mid.  surface     1.0280E-01  7.1086E-02 -1.8131E-01  9.5617E-03 -3.4382E-02  3.2693E-03
       9-
 mid.  surface     9.7027E-02  9.9731E-02 -2.2185E-01 -2.6757E-02 -2.4525E-02  7.0103E-03
      10-
 mid.  surface     7.0597E-02  1.2572E-01 -1.5526E-01 -3.0187E-02 -2.3642E-02  1.1059E-02
      15-
 mid.  surface     6.2046E-02  9.4188E-02 -1.5319E-01 -3.3698E-02 -9.6817E-02 -4.1913E-02
      16-
 mid.  surface     1.6487E-01  5.6509E-02 -2.1845E-01 -2.2942E-02 -7.6312E-02 -2.9630E-02
      18-
 mid.  surface     8.1971E-02  1.1361E-01 -1.5255E-01  7.0192E-03 -5.4942E-02 -1.2442E-02
      40-
 mid.  surface     7.3864E-02  1.1834E-01 -1.7767E-01 -2.7128E-03 -8.8059E-03 -1.6431E-03
      41-
 mid.  surface     7.9925E-02  9.2013E-02 -1.6768E-01  2.3182E-02 -6.3188E-02  7.9626E-04
      50-
 mid.  surface     1.4271E-01  1.0796E-01 -2.9138E-01  2.6407E-02  2.6177E-02  8.1660E-03
      51-
 mid.  surface     1.3965E-01  1.2703E-01 -4.0830E-01 -7.2235E-02  8.2789E-02 -8.8006E-02
      52-
 mid.  surface     1.2206E-01  1.5139E-01 -2.8653E-01 -5.1445E-02  1.4287E-01 -1.2497E-01
      53-
 mid.  surface     1.1889E-01  1.0160E-01 -1.7788E-01  5.9873E-02  2.8265E-03 -2.9122E-02
      72-
 mid.  surface     9.5592E-02  1.3480E-01 -2.2044E-01  8.2342E-03  2.5362E-02  3.0041E-02
      95-
 mid.  surface     1.3340E-01  9.3252E-02 -1.9449E-01  1.9579E-02  4.2215E-02  2.6753E-02
     100-
 mid.  surface     1.0551E-01  8.6149E-02 -2.3214E-01 -2.1616E-03  4.6516E-03 -2.0048E-02
     110-
 mid.  surface     1.1368E-01  6.5799E-02 -2.4069E-01  3.2573E-02 -7.0683E-02 -3.6226E-02



 n o d a l  s t r e s s  c a l c u l a t i o n s   f o r   t i m e  s t e p      616   ( at time 1.52096E+01 )

 node (global)
          stress       sig-xx      sig-yy      sig-zz      sig-xy      sig-yz      sig-zx       plastic
                                                                                                 strain 
       4-
 mid.  surface     2.5129E+08  2.6746E+08 -1.3800E+09  1.6482E+08  7.6481E+07 -1.1616E+08  1.3904E+00
       5-
 mid.  surface    -3.9152E+08 -4.7068E+08 -2.0031E+09  1.0167E+08 -1.7539E+07 -2.8983E+08  1.2521E+00
       6-
 mid.  surface    -1.6572E+09 -1.9551E+09 -2.5203E+09 -2.4026E+07  1.6655E+08  1.7759E+08  1.2229E-02
       7-
 mid.  surface    -1.3325E+09 -1.6323E+09 -1.8325E+09  1.4846E+07 -7.2567E+07  9.8934E+07  8.7028E-02
       8-
 mid.  surface    -2.5174E+09 -2.4846E+09 -2.1477E+09 -2.5728E+07  2.0008E+08  5.6619E+07  7.4121E-02
       9-
 mid.  surface    -1.6163E+09 -1.7014E+09 -1.9918E+09 -3.7034E+07 -3.4533E+07  6.2829E+07  1.9761E-01
      10-
 mid.  surface     3.1292E+09  2.9857E+09  2.7041E+09 -4.1593E+07 -2.0570E+08  6.3928E+06  1.4427E-01
      15-
 mid.  surface    -9.1735E+07 -1.6677E+08 -6.2626E+08 -1.0968E+08 -2.4022E+07 -4.1578E+07  2.2735E-01
      16-
 mid.  surface    -2.7158E+09 -2.8224E+09 -3.8470E+09 -1.4030E+08  6.9723E+07 -1.4132E+06  3.2556E-01
      18-
 mid.  surface     1.5090E+09  1.6577E+09  1.8923E+09 -4.7437E+05  1.4913E+08  7.9909E+07  2.2297E-01
      40-
 mid.  surface     1.1240E+09  1.3600E+09  8.8568E+08 -4.4312E+07  8.4116E+07  5.8626E+07  1.9543E-01
      41-
 mid.  surface     4.6178E+08  5.0903E+08  1.8343E+08  1.5158E+07 -6.5449E+07  1.4196E+07  2.0911E-01
      50-
 mid.  surface     1.9323E+08  3.6382E+08  1.2139E+09 -4.2640E+07 -5.4386E+07 -9.4124E+07 -1.4142E-01
      51-
 mid.  surface     1.1121E+09  1.1876E+09  6.9358E+08  1.3316E+08  1.1383E+07 -4.7368E+07  6.3399E-01
      52-
 mid.  surface     9.5388E+08  1.0059E+09  5.4021E+08  1.1762E+08 -1.1760E+07 -9.0117E+07  4.6389E-01
      53-
 mid.  surface    -6.2243E+07 -7.3835E+07  1.1945E+09  8.0230E+07  1.9738E+06  1.3244E+08 -4.0281E-01
      72-
 mid.  surface     2.3280E+09  2.4626E+09  2.0747E+09 -9.1753E+07 -3.8521E+08 -2.2381E+08  2.8253E-01
      95-
 mid.  surface     1.4971E+09  1.3843E+09  1.4973E+09  2.9796E+07 -3.1654E+08 -1.0059E+08 -8.5446E-02
     100-
 mid.  surface    -3.5135E+09 -3.3784E+09 -3.7297E+09 -4.6779E+07  1.4296E+08  4.9475E+07  1.1237E-01
     110-
 mid.  surface    -4.0367E+09 -3.9894E+09 -4.2934E+09  7.1902E+07  1.0900E+08  6.6861E+07  2.9796E-01



 n o d a l  s t r a i n  c a l c u l a t i o n s   f o r   t i m e  s t e p      616   ( at time 1.52096E+01 )

 node (global)
          strain       eps-xx      eps-yy      eps-zz      eps-xy      eps-yz      eps-zx       
       4-
 mid.  surface     1.7054E-01  1.4190E-01 -4.0383E-01  6.2250E-02  9.7410E-03  9.9222E-02
       5-
 mid.  surface     8.1443E-02  2.2015E-01 -2.6653E-01  1.4462E-01 -3.5491E-02 -7.6922E-02
       6-
 mid.  surface     1.1748E-01  1.2858E-01 -1.1292E-01  4.5336E-02 -1.3212E-01 -4.5856E-02
       7-
 mid.  surface     8.4886E-02  5.1006E-02 -1.2240E-01  5.3837E-04 -7.7918E-02  7.1120E-03
       8-
 mid.  surface     1.0998E-01  7.8860E-02 -1.9621E-01  9.6207E-03 -3.2963E-02  1.9643E-03
       9-
 mid.  surface     1.0277E-01  1.0039E-01 -2.2934E-01 -2.8493E-02 -2.7013E-02  9.3814E-03
      10-
 mid.  surface     7.9016E-02  1.2804E-01 -1.6581E-01 -3.1588E-02 -2.5993E-02  1.4404E-02
      15-
 mid.  surface     6.5246E-02  1.0310E-01 -1.5662E-01 -3.5685E-02 -9.8680E-02 -4.0505E-02
      16-
 mid.  surface     1.6943E-01  6.1730E-02 -2.3584E-01 -2.3522E-02 -7.9015E-02 -2.7926E-02
      18-
 mid.  surface     8.8395E-02  1.2435E-01 -1.6792E-01  9.3929E-03 -5.3114E-02 -1.3109E-02
      40-
 mid.  surface     7.8900E-02  1.2890E-01 -1.9375E-01 -4.4901E-03 -1.1711E-02 -3.8579E-03
      41-
 mid.  surface     8.4684E-02  1.0160E-01 -1.8158E-01  2.5255E-02 -6.5951E-02  2.3195E-03
      50-
 mid.  surface     1.5726E-01  1.1650E-01 -3.1495E-01  3.0700E-02  2.5423E-02 -3.0322E-05
      51-
 mid.  surface     1.5148E-01  1.3463E-01 -4.3271E-01 -8.0724E-02  8.5239E-02 -9.5564E-02
      52-
 mid.  surface     1.3213E-01  1.6213E-01 -3.0167E-01 -5.5132E-02  1.5028E-01 -1.2963E-01
      53-
 mid.  surface     1.3100E-01  1.0820E-01 -1.9300E-01  6.9586E-02  3.1530E-03 -3.1437E-02
      72-
 mid.  surface     1.0133E-01  1.4070E-01 -2.2911E-01  3.8837E-03  2.6974E-02  3.4906E-02
      95-
 mid.  surface     1.4168E-01  9.3946E-02 -2.0204E-01  1.4754E-02  3.6559E-02  2.7659E-02
     100-
 mid.  surface     1.1074E-01  9.3421E-02 -2.5147E-01 -4.4493E-03  2.9179E-03 -2.4041E-02
     110-
 mid.  surface     1.1906E-01  7.3707E-02 -2.5259E-01  3.6991E-02 -7.5575E-02 -3.6166E-02



 n o d a l  s t r e s s  c a l c u l a t i o n s   f o r   t i m e  s t e p      628   ( at time 1.60020E+01 )

 node (global)
          stress       sig-xx      sig-yy      sig-zz      sig-xy      sig-yz      sig-zx       plastic
                                                                                                 strain 
       4-
 mid.  surface     1.2586E+08  1.5789E+08 -1.5337E+09  2.0771E+08  1.5579E+08 -1.1561E+08  1.4958E+00
       5-
 mid.  surface    -8.2100E+08 -9.0779E+08 -2.3974E+09  8.5395E+07 -7.7472E+06 -3.4587E+08  1.3540E+00
       6-
 mid.  surface    -1.7277E+09 -2.0571E+09 -2.5784E+09 -2.8429E+07  1.7252E+08  1.1226E+08  3.5885E-02
       7-
 mid.  surface    -1.1948E+09 -1.5532E+09 -1.7513E+09  3.9422E+07 -9.7093E+07  8.7893E+07  1.0242E-01
       8-
 mid.  surface    -2.7529E+09 -2.6816E+09 -2.4325E+09 -1.9478E+07  2.1345E+08  2.9160E+07  5.6589E-02
       9-
 mid.  surface    -1.7892E+09 -1.8507E+09 -2.1596E+09 -3.0032E+07 -4.5731E+07  5.4221E+07  2.1113E-01
      10-
 mid.  surface     3.3285E+09  3.2198E+09  2.9432E+09 -2.1572E+07 -2.2531E+08  2.0623E+06  1.5739E-01
      15-
 mid.  surface     8.9510E+08  6.8253E+08  3.0481E+08 -1.6045E+08 -3.1207E+07 -1.7166E+08  2.4647E-01
      16-
 mid.  surface    -2.3891E+09 -2.5695E+09 -3.5123E+09 -1.8309E+08  1.0092E+08 -9.9335E+07  3.7455E-01
      18-
 mid.  surface     1.6662E+09  1.8457E+09  2.0291E+09 -7.1018E+06  1.5653E+08  3.1336E+07  2.0280E-01
      40-
 mid.  surface     1.5157E+09  1.8266E+09  1.3436E+09 -7.8686E+07  1.2773E+08  4.1334E+07  2.0425E-01
      41-
 mid.  surface     5.6274E+08  5.9234E+08  3.3376E+08  5.3221E+07 -8.7170E+07  1.5001E+07  2.2902E-01
      50-
 mid.  surface    -8.9127E+07  8.2853E+07  9.6463E+08 -3.7960E+07 -9.0872E+07 -4.5332E+07 -1.8589E-01
      51-
 mid.  surface     8.5419E+08  9.4863E+08  3.6247E+08  2.0372E+08  1.1333E+07  2.6967E+07  6.7394E-01
      52-
 mid.  surface     6.2113E+08  6.8631E+08  1.4988E+08  1.7361E+08 -2.8920E+07 -2.9709E+07  5.0297E-01
      53-
 mid.  surface    -7.4058E+08 -6.9460E+08  5.5659E+08  1.2077E+08 -8.4851E+07  2.3248E+08 -4.7030E-01
      72-
 mid.  surface     2.6421E+09  2.7999E+09  2.5184E+09 -1.7720E+08 -4.2762E+08 -2.1734E+08  2.9545E-01
      95-
 mid.  surface     1.3525E+09  1.2972E+09  1.4205E+09  3.1051E+07 -3.0255E+08 -6.3722E+06 -9.4937E-02
     100-
 mid.  surface    -3.6778E+09 -3.4864E+09 -3.8686E+09 -6.2045E+07  2.0611E+08  3.0255E+07  1.2789E-01
     110-
 mid.  surface    -4.3403E+09 -4.3043E+09 -4.5646E+09  9.9139E+07  1.0274E+08  5.3402E+07  3.2132E-01



 n o d a l  s t r a i n  c a l c u l a t i o n s   f o r   t i m e  s t e p      628   ( at time 1.60020E+01 )

 node (global)
          strain       eps-xx      eps-yy      eps-zz      eps-xy      eps-yz      eps-zx       
       4-
 mid.  surface     1.7539E-01  1.5219E-01 -4.3331E-01  6.2440E-02  1.8545E-02  1.1068E-01
       5-
[...]
      51-
 mid.  surface     4.9637E-01  3.4166E-01 -4.9820E-01 -2.3383E-01  3.0223E-01 -2.6955E-01
      52-
 mid.  surface     3.9861E-01  4.1278E-01 -5.8956E-01 -7.7556E-02 -8.7608E-02 -2.8317E-01
      53-
 mid.  surface     5.7509E-01  3.7328E-01 -1.0876E+00  8.0397E-03 -4.4359E-01  5.8487E-02
      72-
 mid.  surface     2.5498E-01  1.0397E-01 -2.6185E-01 -1.6576E-01 -4.1113E-02  1.3965E-01
      95-
 mid.  surface     2.1164E-01  1.5232E-01 -3.7073E-01 -1.0138E-01  8.2339E-02 -1.3663E-01
     100-
 mid.  surface     0.0000E+00  0.0000E+00  0.0000E+00  0.0000E+00  0.0000E+00  0.0000E+00
     110-
 mid.  surface     0.0000E+00  0.0000E+00  0.0000E+00  0.0000E+00  0.0000E+00  0.0000E+00



 n o d a l  s t r e s s  c a l c u l a t i o n s   f o r   t i m e  s t e p     1039   ( at time 8.81139E+01 )

 node (global)
          stress       sig-xx      sig-yy      sig-zz      sig-xy      sig-yz      sig-zx       plastic
                                                                                                 strain 
       4-
 mid.  surface     1.8113E+08  2.5566E+08  1.4551E+08  2.8809E+06 -2.7439E+07 -4.7574E+06  2.1355E+00
       5-
 mid.  surface    -1.4254E+08 -2.2327E+08 -1.0395E+08 -3.1206E+06  2.9721E+07  5.1532E+06  2.4382E+00
       6-
 mid.  surface     6.4168E+07  1.0143E+08  4.6357E+07  1.4405E+06 -1.3719E+07 -2.3787E+06  1.1470E+00
       7-
 mid.  surface     0.0000E+00  0.0000E+00  0.0000E+00  0.0000E+00  0.0000E+00  0.0000E+00 -7.2903E-01
       8-
 mid.  surface     0.0000E+00  0.0000E+00  0.0000E+00  0.0000E+00  0.0000E+00  0.0000E+00  0.0000E+00
       9-
 mid.  surface     0.0000E+00  0.0000E+00  0.0000E+00  0.0000E+00  0.0000E+00  0.0000E+00  0.0000E+00
      10-
 mid.  surface     0.0000E+00  0.0000E+00  0.0000E+00  0.0000E+00  0.0000E+00  0.0000E+00  0.0000E+00
      15-
 mid.  surface     0.0000E+00  0.0000E+00  0.0000E+00  0.0000E+00  0.0000E+00  0.0000E+00 -4.5375E-01
      16-
 mid.  surface     1.2390E+08  1.8028E+08  9.6958E+07  2.1791E+06 -2.0754E+07 -3.5985E+06  1.5500E+00
      18-
 mid.  surface     0.0000E+00  0.0000E+00  0.0000E+00  0.0000E+00  0.0000E+00  0.0000E+00  0.0000E+00
      40-
 mid.  surface     0.0000E+00  0.0000E+00  0.0000E+00  0.0000E+00  0.0000E+00  0.0000E+00  0.0000E+00
      41-
 mid.  surface     0.0000E+00  0.0000E+00  0.0000E+00  0.0000E+00  0.0000E+00  0.0000E+00  0.0000E+00
      50-
 mid.  surface     6.4168E+07  1.0143E+08  4.6356E+07  1.4405E+06 -1.3719E+07 -2.3787E+06  3.0521E-01
      51-
 mid.  surface    -1.4254E+08 -2.2327E+08 -1.0395E+08 -3.1206E+06  2.9722E+07  5.1533E+06  8.2868E-01
      52-
 mid.  surface    -4.6576E+08 -6.8570E+08 -3.6063E+08 -8.5016E+06  8.0971E+07  1.4039E+07  1.0025E+00
      53-
 mid.  surface    -1.1145E+08 -1.5181E+08 -9.2152E+07 -1.5603E+06  1.4861E+07  2.5766E+06 -1.0955E-01
      72-
 mid.  surface     0.0000E+00  0.0000E+00  0.0000E+00  0.0000E+00  0.0000E+00  0.0000E+00 -8.4449E-01
      95-
 mid.  surface     0.0000E+00  0.0000E+00  0.0000E+00  0.0000E+00  0.0000E+00  0.0000E+00 -1.5682E+00
     100-
 mid.  surface     0.0000E+00  0.0000E+00  0.0000E+00  0.0000E+00  0.0000E+00  0.0000E+00  0.0000E+00
     110-
 mid.  surface     0.0000E+00  0.0000E+00  0.0000E+00  0.0000E+00  0.0000E+00  0.0000E+00  0.0000E+00



 n o d a l  s t r a i n  c a l c u l a t i o n s   f o r   t i m e  s t e p     1039   ( at time 8.81139E+01 )

 node (global)
          strain       eps-xx      eps-yy      eps-zz      eps-xy      eps-yz      eps-zx       
       4-
 mid.  surface    -4.3541E-01  3.5473E-01  5.2464E-01 -1.5535E-01  5.4019E-01 -2.3850E-01
       5-
 mid.  surface    -4.7692E-01  4.3355E-01  4.2087E-01  6.4242E-03  1.9735E-01 -4.2259E-02
       6-
 mid.  surface     1.2271E-01  6.5491E-01 -8.9555E-01  2.3154E-02 -8.0501E-02  2.4859E-01
       7-
 mid.  surface     1.0892E-01  2.9032E-01 -3.1774E-01  3.2930E-02  5.2581E-02  1.4943E-01
       8-
 mid.  surface     0.0000E+00  0.0000E+00  0.0000E+00  0.0000E+00  0.0000E+00  0.0000E+00
       9-
 mid.  surface     0.0000E+00  0.0000E+00  0.0000E+00  0.0000E+00  0.0000E+00  0.0000E+00
      10-
 mid.  surface     0.0000E+00  0.0000E+00  0.0000E+00  0.0000E+00  0.0000E+00  0.0000E+00
      15-
 mid.  surface     2.6386E-01  2.1671E-01 -3.5227E-01 -1.3895E-02  9.2555E-02  1.8141E-01
      16-
 mid.  surface     3.0095E-01  4.1688E-01 -8.5016E-01 -8.8568E-02  1.9909E-01  3.4452E-01
      18-
 mid.  surface     0.0000E+00  0.0000E+00  0.0000E+00  0.0000E+00  0.0000E+00  0.0000E+00
      40-
 mid.  surface     0.0000E+00  0.0000E+00  0.0000E+00  0.0000E+00  0.0000E+00  0.0000E+00
      41-
 mid.  surface     0.0000E+00  0.0000E+00  0.0000E+00  0.0000E+00  0.0000E+00  0.0000E+00
      50-
 mid.  surface     7.9897E-01  2.3322E-01 -1.1828E+00  2.7688E-03 -5.4196E-01  1.3336E-01
      51-
 mid.  surface     4.9611E-01  3.4158E-01 -4.9780E-01 -2.3366E-01  3.0212E-01 -2.6927E-01
      52-
 mid.  surface     3.9860E-01  4.1285E-01 -5.8940E-01 -7.7567E-02 -8.7817E-02 -2.8295E-01
      53-
 mid.  surface     5.7513E-01  3.7322E-01 -1.0875E+00  8.1844E-03 -4.4348E-01  5.8379E-02
      72-
 mid.  surface     2.5497E-01  1.0400E-01 -2.6192E-01 -1.6574E-01 -4.0872E-02  1.3966E-01
      95-
 mid.  surface     2.1166E-01  1.5229E-01 -3.7040E-01 -1.0132E-01  8.2345E-02 -1.3673E-01
     100-
 mid.  surface     0.0000E+00  0.0000E+00  0.0000E+00  0.0000E+00  0.0000E+00  0.0000E+00
     110-
 mid.  surface     0.0000E+00  0.0000E+00  0.0000E+00  0.0000E+00  0.0000E+00  0.0000E+00



 n o d a l  s t r e s s  c a l c u l a t i o n s   f o r   t i m e  s t e p     1045   ( at time 9.31139E+01 )

 node (global)
          stress       sig-xx      sig-yy      sig-zz      sig-xy      sig-yz      sig-zx       plastic
                                                                                                 strain 
       4-
 mid.  surface     1.5654E+08  2.2740E+08  1.1718E+08  5.6671E+06 -2.7602E+07 -3.7058E+06  2.1355E+00
       5-
 mid.  surface    -1.1688E+08 -2.0492E+08 -7.8912E+07 -1.0191E+06  3.0520E+07  6.6303E+06  2.4382E+00
       6-
 mid.  surface     5.2356E+07  9.3335E+07  3.4970E+07  3.1518E+05 -1.4107E+07 -3.1398E+06  1.1470E+00
       7-
 mid.  surface     0.0000E+00  0.0000E+00  0.0000E+00  0.0000E+00  0.0000E+00  0.0000E+00 -7.2903E-01
       8-
 mid.  surface     0.0000E+00  0.0000E+00  0.0000E+00  0.0000E+00  0.0000E+00  0.0000E+00  0.0000E+00
       9-
 mid.  surface     0.0000E+00  0.0000E+00  0.0000E+00  0.0000E+00  0.0000E+00  0.0000E+00  0.0000E+00
      10-
 mid.  surface     0.0000E+00  0.0000E+00  0.0000E+00  0.0000E+00  0.0000E+00  0.0000E+00  0.0000E+00
      15-
 mid.  surface     0.0000E+00  0.0000E+00  0.0000E+00  0.0000E+00  0.0000E+00  0.0000E+00 -4.5375E-01
      16-
 mid.  surface     1.0554E+08  1.6189E+08  7.6910E+07  3.0366E+06 -2.1030E+07 -3.4418E+06  1.5500E+00
      18-
 mid.  surface     0.0000E+00  0.0000E+00  0.0000E+00  0.0000E+00  0.0000E+00  0.0000E+00  0.0000E+00
      40-
 mid.  surface     0.0000E+00  0.0000E+00  0.0000E+00  0.0000E+00  0.0000E+00  0.0000E+00  0.0000E+00
      41-
 mid.  surface     0.0000E+00  0.0000E+00  0.0000E+00  0.0000E+00  0.0000E+00  0.0000E+00  0.0000E+00
      50-
 mid.  surface     5.2356E+07  9.3335E+07  3.4970E+07  3.1517E+05 -1.4107E+07 -3.1398E+06  3.0521E-01
      51-
 mid.  surface    -1.1688E+08 -2.0492E+08 -7.8913E+07 -1.0191E+06  3.0520E+07  6.6303E+06  8.2868E-01
      52-
 mid.  surface    -3.9445E+08 -6.1800E+08 -2.8427E+08 -1.0164E+07  8.2251E+07  1.4288E+07  1.0025E+00
      53-
 mid.  surface    -9.7882E+07 -1.3345E+08 -7.5405E+07 -4.3424E+06  1.4795E+07  1.3565E+06 -1.0955E-01
      72-
 mid.  surface     0.0000E+00  0.0000E+00  0.0000E+00  0.0000E+00  0.0000E+00  0.0000E+00 -8.4449E-01
      95-
 mid.  surface     0.0000E+00  0.0000E+00  0.0000E+00  0.0000E+00  0.0000E+00  0.0000E+00 -1.5682E+00
     100-
 mid.  surface     0.0000E+00  0.0000E+00  0.0000E+00  0.0000E+00  0.0000E+00  0.0000E+00  0.0000E+00
     110-
 mid.  surface     0.0000E+00  0.0000E+00  0.0000E+00  0.0000E+00  0.0000E+00  0.0000E+00  0.0000E+00



 n o d a l  s t r a i n  c a l c u l a t i o n s   f o r   t i m e  s t e p     1045   ( at time 9.31139E+01 )

 node (global)
          strain       eps-xx      eps-yy      eps-zz      eps-xy      eps-yz      eps-zx       
       4-
 mid.  surface    -4.3547E-01  3.5483E-01  5.2451E-01 -1.5548E-01  5.4010E-01 -2.3845E-01
       5-
 mid.  surface    -4.7675E-01  4.3373E-01  4.2058E-01  6.2008E-03  1.9719E-01 -4.2243E-02
       6-
 mid.  surface     1.2294E-01  6.5494E-01 -8.9578E-01  2.3074E-02 -8.0576E-02  2.4846E-01
       7-
 mid.  surface     1.0895E-01  2.9030E-01 -3.1751E-01  3.2878E-02  5.2433E-02  1.4931E-01
       8-
 mid.  surface     0.0000E+00  0.0000E+00  0.0000E+00  0.0000E+00  0.0000E+00  0.0000E+00
       9-
 mid.  surface     0.0000E+00  0.0000E+00  0.0000E+00  0.0000E+00  0.0000E+00  0.0000E+00
      10-
 mid.  surface     0.0000E+00  0.0000E+00  0.0000E+00  0.0000E+00  0.0000E+00  0.0000E+00
      15-
 mid.  surface     2.6378E-01  2.1675E-01 -3.5230E-01 -1.3950E-02  9.2474E-02  1.8151E-01
      16-
 mid.  surface     3.0100E-01  4.1696E-01 -8.5035E-01 -8.8577E-02  1.9913E-01  3.4443E-01
      18-
 mid.  surface     0.0000E+00  0.0000E+00  0.0000E+00  0.0000E+00  0.0000E+00  0.0000E+00
      40-
 mid.  surface     0.0000E+00  0.0000E+00  0.0000E+00  0.0000E+00  0.0000E+00  0.0000E+00
      41-
 mid.  surface     0.0000E+00  0.0000E+00  0.0000E+00  0.0000E+00  0.0000E+00  0.0000E+00
      50-
 mid.  surface     7.9894E-01  2.3327E-01 -1.1829E+00  2.8920E-03 -5.4178E-01  1.3330E-01
      51-
 mid.  surface     4.9587E-01  3.4151E-01 -4.9743E-01 -2.3351E-01  3.0199E-01 -2.6904E-01
      52-
 mid.  surface     3.9861E-01  4.1290E-01 -5.8925E-01 -7.7571E-02 -8.8027E-02 -2.8277E-01
      53-
 mid.  surface     5.7517E-01  3.7318E-01 -1.0873E+00  8.3096E-03 -4.4338E-01  5.8305E-02
      72-
 mid.  surface     2.5495E-01  1.0401E-01 -2.6195E-01 -1.6571E-01 -4.0671E-02  1.3967E-01
      95-
 mid.  surface     2.1167E-01  1.5226E-01 -3.7013E-01 -1.0126E-01  8.2344E-02 -1.3683E-01
     100-
 mid.  surface     0.0000E+00  0.0000E+00  0.0000E+00  0.0000E+00  0.0000E+00  0.0000E+00
     110-
 mid.  surface     0.0000E+00  0.0000E+00  0.0000E+00  0.0000E+00  0.0000E+00  0.0000E+00



 n o d a l  s t r e s s  c a l c u l a t i o n s   f o r   t i m e  s t e p     1051   ( at time 9.81139E+01 )

 node (global)
          stress       sig-xx      sig-yy      sig-zz      sig-xy      sig-yz      sig-zx       plastic
                                                                                                 strain 
       4-
 mid.  surface     1.3595E+08  2.0268E+08  9.4038E+07  7.6331E+06 -2.7036E+07 -3.1139E+06  2.1355E+00
       5-
 mid.  surface    -9.7256E+07 -1.9051E+08 -5.9982E+07  8.1529E+05  3.0713E+07  7.4143E+06  2.4382E+00
       6-
 mid.  surface     4.3377E+07  8.7061E+07  2.6418E+07 -6.5175E+05 -1.4220E+07 -3.5449E+06  1.1470E+00
       7-
 mid.  surface     0.0000E+00  0.0000E+00  0.0000E+00  0.0000E+00  0.0000E+00  0.0000E+00 -7.2903E-01
       8-
 mid.  surface     0.0000E+00  0.0000E+00  0.0000E+00  0.0000E+00  0.0000E+00  0.0000E+00  0.0000E+00
       9-
 mid.  surface     0.0000E+00  0.0000E+00  0.0000E+00  0.0000E+00  0.0000E+00  0.0000E+00  0.0000E+00
      10-
 mid.  surface     0.0000E+00  0.0000E+00  0.0000E+00  0.0000E+00  0.0000E+00  0.0000E+00  0.0000E+00
      15-
 mid.  surface     0.0000E+00  0.0000E+00  0.0000E+00  0.0000E+00  0.0000E+00  0.0000E+00 -4.5375E-01
      16-
 mid.  surface     9.0624E+07  1.4622E+08  6.0904E+07  3.5558E+06 -2.0799E+07 -3.3421E+06  1.5500E+00
      18-
 mid.  surface     0.0000E+00  0.0000E+00  0.0000E+00  0.0000E+00  0.0000E+00  0.0000E+00  0.0000E+00
      40-
 mid.  surface     0.0000E+00  0.0000E+00  0.0000E+00  0.0000E+00  0.0000E+00  0.0000E+00  0.0000E+00
      41-
 mid.  surface     0.0000E+00  0.0000E+00  0.0000E+00  0.0000E+00  0.0000E+00  0.0000E+00  0.0000E+00
      50-
 mid.  surface     4.3376E+07  8.7061E+07  2.6418E+07 -6.5176E+05 -1.4220E+07 -3.5449E+06  3.0521E-01
      51-
 mid.  surface    -9.7257E+07 -1.9052E+08 -5.9983E+07  8.1528E+05  3.0714E+07  7.4143E+06  8.2868E-01
      52-
 mid.  surface    -3.3712E+08 -5.6091E+08 -2.2384E+08 -1.0886E+07  8.1614E+07  1.4367E+07  1.0025E+00
      53-
 mid.  surface    -8.6069E+07 -1.1699E+08 -6.1346E+07 -6.3930E+06  1.4288E+07  6.8151E+05 -1.0955E-01
      72-
 mid.  surface     0.0000E+00  0.0000E+00  0.0000E+00  0.0000E+00  0.0000E+00  0.0000E+00 -8.4449E-01
      95-
 mid.  surface     0.0000E+00  0.0000E+00  0.0000E+00  0.0000E+00  0.0000E+00  0.0000E+00 -1.5682E+00
     100-
 mid.  surface     0.0000E+00  0.0000E+00  0.0000E+00  0.0000E+00  0.0000E+00  0.0000E+00  0.0000E+00
     110-
 mid.  surface     0.0000E+00  0.0000E+00  0.0000E+00  0.0000E+00  0.0000E+00  0.0000E+00  0.0000E+00



 n o d a l  s t r a i n  c a l c u l a t i o n s   f o r   t i m e  s t e p     1051   ( at time 9.81139E+01 )

 node (global)
          strain       eps-xx      eps-yy      eps-zz      eps-xy      eps-yz      eps-zx       
       4-
 mid.  surface    -4.3554E-01  3.5491E-01  5.2443E-01 -1.5558E-01  5.4002E-01 -2.3841E-01
       5-
 mid.  surface    -4.7662E-01  4.3388E-01  4.2035E-01  6.0134E-03  1.9703E-01 -4.2239E-02
       6-
 mid.  surface     1.2314E-01  6.5498E-01 -8.9598E-01  2.3002E-02 -8.0602E-02  2.4836E-01
       7-
 mid.  surface     1.0898E-01  2.9028E-01 -3.1733E-01  3.2831E-02  5.2311E-02  1.4923E-01
       8-
 mid.  surface     0.0000E+00  0.0000E+00  0.0000E+00  0.0000E+00  0.0000E+00  0.0000E+00
       9-
 mid.  surface     0.0000E+00  0.0000E+00  0.0000E+00  0.0000E+00  0.0000E+00  0.0000E+00
      10-
 mid.  surface     0.0000E+00  0.0000E+00  0.0000E+00  0.0000E+00  0.0000E+00  0.0000E+00
      15-
 mid.  surface     2.6370E-01  2.1680E-01 -3.5232E-01 -1.3995E-02  9.2398E-02  1.8160E-01
      16-
 mid.  surface     3.0104E-01  4.1704E-01 -8.5051E-01 -8.8590E-02  1.9918E-01  3.4436E-01
      18-
 mid.  surface     0.0000E+00  0.0000E+00  0.0000E+00  0.0000E+00  0.0000E+00  0.0000E+00
      40-
 mid.  surface     0.0000E+00  0.0000E+00  0.0000E+00  0.0000E+00  0.0000E+00  0.0000E+00
      41-
 mid.  surface     0.0000E+00  0.0000E+00  0.0000E+00  0.0000E+00  0.0000E+00  0.0000E+00
      50-
 mid.  surface     7.9892E-01  2.3333E-01 -1.1831E+00  3.0002E-03 -5.4162E-01  1.3324E-01
      51-
 mid.  surface     4.9568E-01  3.4143E-01 -4.9709E-01 -2.3337E-01  3.0184E-01 -2.6886E-01
      52-
 mid.  surface     3.9863E-01  4.1294E-01 -5.8912E-01 -7.7562E-02 -8.8247E-02 -2.8263E-01
      53-
 mid.  surface     5.7521E-01  3.7315E-01 -1.0872E+00  8.4154E-03 -4.4327E-01  5.8248E-02
      72-
 mid.  surface     2.5494E-01  1.0402E-01 -2.6197E-01 -1.6568E-01 -4.0511E-02  1.3969E-01
      95-
 mid.  surface     2.1169E-01  1.5224E-01 -3.6992E-01 -1.0121E-01  8.2345E-02 -1.3691E-01
     100-
 mid.  surface     0.0000E+00  0.0000E+00  0.0000E+00  0.0000E+00  0.0000E+00  0.0000E+00
     110-
 mid.  surface     0.0000E+00  0.0000E+00  0.0000E+00  0.0000E+00  0.0000E+00  0.0000E+00



 n o d a l  s t r e s s  c a l c u l a t i o n s   f o r   t i m e  s t e p     1057   ( at time 1.00000E+02 )

 node (global)
          stress       sig-xx      sig-yy      sig-zz      sig-xy      sig-yz      sig-zx       plastic
                                                                                                 strain 
       4-
 mid.  surface     1.1882E+08  1.8116E+08  7.5294E+07  8.9366E+06 -2.5934E+07 -2.7709E+06  2.1355E+00
       5-
 mid.  surface    -8.2159E+07 -1.7911E+08 -4.5626E+07  2.3986E+06  3.0440E+07  7.6597E+06  2.4382E+00
       6-
 mid.  surface     3.6513E+07  8.2158E+07  1.9971E+07 -1.4734E+06 -1.4122E+07 -3.6769E+06  1.1470E+00
       7-
 mid.  surface     0.0000E+00  0.0000E+00  0.0000E+00  0.0000E+00  0.0000E+00  0.0000E+00 -7.2903E-01
       8-
 mid.  surface     0.0000E+00  0.0000E+00  0.0000E+00  0.0000E+00  0.0000E+00  0.0000E+00  0.0000E+00
       9-
 mid.  surface     0.0000E+00  0.0000E+00  0.0000E+00  0.0000E+00  0.0000E+00  0.0000E+00  0.0000E+00
      10-
 mid.  surface     0.0000E+00  0.0000E+00  0.0000E+00  0.0000E+00  0.0000E+00  0.0000E+00  0.0000E+00
      15-
 mid.  surface     0.0000E+00  0.0000E+00  0.0000E+00  0.0000E+00  0.0000E+00  0.0000E+00 -4.5375E-01
      16-
 mid.  surface     7.8508E+07  1.3285E+08  4.8179E+07  3.8104E+06 -2.0190E+07 -3.2333E+06  1.5500E+00
      18-
 mid.  surface     0.0000E+00  0.0000E+00  0.0000E+00  0.0000E+00  0.0000E+00  0.0000E+00  0.0000E+00
      40-
 mid.  surface     0.0000E+00  0.0000E+00  0.0000E+00  0.0000E+00  0.0000E+00  0.0000E+00  0.0000E+00
      41-
 mid.  surface     0.0000E+00  0.0000E+00  0.0000E+00  0.0000E+00  0.0000E+00  0.0000E+00  0.0000E+00
      50-
 mid.  surface     3.6513E+07  8.2158E+07  1.9971E+07 -1.4734E+06 -1.4122E+07 -3.6769E+06  3.0521E-01
      51-
 mid.  surface    -8.2160E+07 -1.7911E+08 -4.5626E+07  2.3986E+06  3.0440E+07  7.6597E+06  8.2868E-01
      52-
 mid.  surface    -2.9099E+08 -5.1267E+08 -1.7615E+08 -1.0895E+07  7.9541E+07  1.4146E+07  1.0025E+00
      53-
 mid.  surface    -7.5926E+07 -1.0238E+08 -4.9715E+07 -7.8438E+06  1.3462E+07  3.4234E+05 -1.0955E-01
      72-
 mid.  surface     0.0000E+00  0.0000E+00  0.0000E+00  0.0000E+00  0.0000E+00  0.0000E+00 -8.4449E-01
      95-
 mid.  surface     0.0000E+00  0.0000E+00  0.0000E+00  0.0000E+00  0.0000E+00  0.0000E+00 -1.5682E+00
     100-
 mid.  surface     0.0000E+00  0.0000E+00  0.0000E+00  0.0000E+00  0.0000E+00  0.0000E+00  0.0000E+00
     110-
 mid.  surface     0.0000E+00  0.0000E+00  0.0000E+00  0.0000E+00  0.0000E+00  0.0000E+00  0.0000E+00



 n o d a l  s t r a i n  c a l c u l a t i o n s   f o r   t i m e  s t e p     1057   ( at time 1.00000E+02 )

 node (global)
          strain       eps-xx      eps-yy      eps-zz      eps-xy      eps-yz      eps-zx       
       4-
 mid.  surface    -4.3561E-01  3.5498E-01  5.2440E-01 -1.5567E-01  5.3995E-01 -2.3839E-01
       5-
 mid.  surface    -4.7653E-01  4.3401E-01  4.2017E-01  5.8548E-03  1.9689E-01 -4.2243E-02
       6-
 mid.  surface     1.2330E-01  6.5502E-01 -8.9617E-01  2.2936E-02 -8.0589E-02  2.4829E-01
       7-
 mid.  surface     1.0901E-01  2.9027E-01 -3.1718E-01  3.2788E-02  5.2211E-02  1.4918E-01
       8-
 mid.  surface     0.0000E+00  0.0000E+00  0.0000E+00  0.0000E+00  0.0000E+00  0.0000E+00
       9-
 mid.  surface     0.0000E+00  0.0000E+00  0.0000E+00  0.0000E+00  0.0000E+00  0.0000E+00
      10-
 mid.  surface     0.0000E+00  0.0000E+00  0.0000E+00  0.0000E+00  0.0000E+00  0.0000E+00
      15-
 mid.  surface     2.6363E-01  2.1684E-01 -3.5232E-01 -1.4031E-02  9.2327E-02  1.8167E-01
      16-
 mid.  surface     3.0107E-01  4.1712E-01 -8.5064E-01 -8.8604E-02  1.9926E-01  3.4431E-01
      18-
 mid.  surface     0.0000E+00  0.0000E+00  0.0000E+00  0.0000E+00  0.0000E+00  0.0000E+00
      40-
 mid.  surface     0.0000E+00  0.0000E+00  0.0000E+00  0.0000E+00  0.0000E+00  0.0000E+00
      41-
 mid.  surface     0.0000E+00  0.0000E+00  0.0000E+00  0.0000E+00  0.0000E+00  0.0000E+00
      50-
 mid.  surface     7.9890E-01  2.3338E-01 -1.1832E+00  3.0966E-03 -5.4147E-01  1.3320E-01
      51-
 mid.  surface     4.9554E-01  3.4135E-01 -4.9680E-01 -2.3325E-01  3.0168E-01 -2.6871E-01
      52-
 mid.  surface     3.9866E-01  4.1296E-01 -5.8901E-01 -7.7539E-02 -8.8474E-02 -2.8253E-01
      53-
 mid.  surface     5.7525E-01  3.7313E-01 -1.0872E+00  8.5053E-03 -4.4315E-01  5.8202E-02
      72-
 mid.  surface     2.5493E-01  1.0402E-01 -2.6199E-01 -1.6566E-01 -4.0386E-02  1.3970E-01
      95-
 mid.  surface     2.1170E-01  1.5221E-01 -3.6976E-01 -1.0117E-01  8.2349E-02 -1.3697E-01
     100-
 mid.  surface     0.0000E+00  0.0000E+00  0.0000E+00  0.0000E+00  0.0000E+00  0.0000E+00
     110-
 mid.  surface     0.0000E+00  0.0000E+00  0.0000E+00  0.0000E+00  0.0000E+00  0.0000E+00
