 LS-DYNA keyword deck by LS-PrePost                                      
                    ls-dyna smp d R14 R14.1.1s_1_ef50e1 date 06/16/2024

 n o d a l   f o r c e/e n e r g y    o u t p u t  t=   0.00000E+00

 velocity boundary condition forces/rigid body moments 

 nd#     220  xforce=   0.0000E+00   yforce=   0.0000E+00  zforce=   0.0000E+00   energy=   0.0000E+00   setid =     220 xmoment=   0.0000E+00 ymoment=   0.0000E+00 zmoment=   0.0000E+00
 nd#     221  xforce=   0.0000E+00   yforce=   0.0000E+00  zforce=   0.0000E+00   energy=   0.0000E+00   setid =     221 xmoment=   0.0000E+00 ymoment=   0.0000E+00 zmoment=   0.0000E+00
 nd#     222  xforce=   0.0000E+00   yforce=   0.0000E+00  zforce=   0.0000E+00   energy=   0.0000E+00   setid =     222 xmoment=   0.0000E+00 ymoment=   0.0000E+00 zmoment=   0.0000E+00
 nd#     223  xforce=   0.0000E+00   yforce=   0.0000E+00  zforce=   0.0000E+00   energy=   0.0000E+00   setid =     223 xmoment=   0.0000E+00 ymoment=   0.0000E+00 zmoment=   0.0000E+00
 nd#     248  xforce=   0.0000E+00   yforce=   0.0000E+00  zforce=   0.0000E+00   energy=   0.0000E+00   setid =     248 xmoment=   0.0000E+00 ymoment=   0.0000E+00 zmoment=   0.0000E+00
 nd#     249  xforce=   0.0000E+00   yforce=   0.0000E+00  zforce=   0.0000E+00   energy=   0.0000E+00   setid =     249 xmoment=   0.0000E+00 ymoment=   0.0000E+00 zmoment=   0.0000E+00
 nd#     286  xforce=   0.0000E+00   yforce=   0.0000E+00  zforce=   0.0000E+00   energy=   0.0000E+00   setid =     286 xmoment=   0.0000E+00 ymoment=   0.0000E+00 zmoment=   0.0000E+00
 nd#     287  xforce=   0.0000E+00   yforce=   0.0000E+00  zforce=   0.0000E+00   energy=   0.0000E+00   setid =     287 xmoment=   0.0000E+00 ymoment=   0.0000E+00 zmoment=   0.0000E+00
 nd#     288  xforce=   0.0000E+00   yforce=   0.0000E+00  zforce=   0.0000E+00   energy=   0.0000E+00   setid =     288 xmoment=   0.0000E+00 ymoment=   0.0000E+00 zmoment=   0.0000E+00
 nd#     301  xforce=   0.0000E+00   yforce=   0.0000E+00  zforce=   0.0000E+00   energy=   0.0000E+00   setid =     301 xmoment=   0.0000E+00 ymoment=   0.0000E+00 zmoment=   0.0000E+00
 nd#     314  xforce=   0.0000E+00   yforce=   0.0000E+00  zforce=   0.0000E+00   energy=   0.0000E+00   setid =     314 xmoment=   0.0000E+00 ymoment=   0.0000E+00 zmoment=   0.0000E+00
 nd#     363  xforce=   0.0000E+00   yforce=   0.0000E+00  zforce=   0.0000E+00   energy=   0.0000E+00   setid =     363 xmoment=   0.0000E+00 ymoment=   0.0000E+00 zmoment=   0.0000E+00
 nd#     364  xforce=   0.0000E+00   yforce=   0.0000E+00  zforce=   0.0000E+00   energy=   0.0000E+00   setid =     364 xmoment=   0.0000E+00 ymoment=   0.0000E+00 zmoment=   0.0000E+00
 nd#     365  xforce=   0.0000E+00   yforce=   0.0000E+00  zforce=   0.0000E+00   energy=   0.0000E+00   setid =     365 xmoment=   0.0000E+00 ymoment=   0.0000E+00 zmoment=   0.0000E+00
 nd#     366  xforce=   0.0000E+00   yforce=   0.0000E+00  zforce=   0.0000E+00   energy=   0.0000E+00   setid =     366 xmoment=   0.0000E+00 ymoment=   0.0000E+00 zmoment=   0.0000E+00
 nd#     379  xforce=   0.0000E+00   yforce=   0.0000E+00  zforce=   0.0000E+00   energy=   0.0000E+00   setid =     379 xmoment=   0.0000E+00 ymoment=   0.0000E+00 zmoment=   0.0000E+00
 nd#     404  xforce=   0.0000E+00   yforce=   0.0000E+00  zforce=   0.0000E+00   energy=   0.0000E+00   setid =     404 xmoment=   0.0000E+00 ymoment=   0.0000E+00 zmoment=   0.0000E+00
 nd#     405  xforce=   0.0000E+00   yforce=   0.0000E+00  zforce=   0.0000E+00   energy=   0.0000E+00   setid =     405 xmoment=   0.0000E+00 ymoment=   0.0000E+00 zmoment=   0.0000E+00
 nd#     418  xforce=   0.0000E+00   yforce=   0.0000E+00  zforce=   0.0000E+00   energy=   0.0000E+00   setid =     418 xmoment=   0.0000E+00 ymoment=   0.0000E+00 zmoment=   0.0000E+00
 nd#     438  xforce=   0.0000E+00   yforce=   0.0000E+00  zforce=   0.0000E+00   energy=   0.0000E+00   setid =     438 xmoment=   0.0000E+00 ymoment=   0.0000E+00 zmoment=   0.0000E+00
 nd#     439  xforce=   0.0000E+00   yforce=   0.0000E+00  zforce=   0.0000E+00   energy=   0.0000E+00   setid =     439 xmoment=   0.0000E+00 ymoment=   0.0000E+00 zmoment=   0.0000E+00
 nd#     440  xforce=   0.0000E+00   yforce=   0.0000E+00  zforce=   0.0000E+00   energy=   0.0000E+00   setid =     440 xmoment=   0.0000E+00 ymoment=   0.0000E+00 zmoment=   0.0000E+00
 nd#     441  xforce=   0.0000E+00   yforce=   0.0000E+00  zforce=   0.0000E+00   energy=   0.0000E+00   setid =     441 xmoment=   0.0000E+00 ymoment=   0.0000E+00 zmoment=   0.0000E+00
 nd#     442  xforce=   0.0000E+00   yforce=   0.0000E+00  zforce=   0.0000E+00   energy=   0.0000E+00   setid =     442 xmoment=   0.0000E+00 ymoment=   0.0000E+00 zmoment=   0.0000E+00
 nd#     443  xforce=   0.0000E+00   yforce=   0.0000E+00  zforce=   0.0000E+00   energy=   0.0000E+00   setid =     443 xmoment=   0.0000E+00 ymoment=   0.0000E+00 zmoment=   0.0000E+00
 nd#     444  xforce=   0.0000E+00   yforce=   0.0000E+00  zforce=   0.0000E+00   energy=   0.0000E+00   setid =     444 xmoment=   0.0000E+00 ymoment=   0.0000E+00 zmoment=   0.0000E+00
 nd#     591  xforce=   0.0000E+00   yforce=   0.0000E+00  zforce=   0.0000E+00   energy=   0.0000E+00   setid =     591 xmoment=   0.0000E+00 ymoment=   0.0000E+00 zmoment=   0.0000E+00
 nd#     592  xforce=   0.0000E+00   yforce=   0.0000E+00  zforce=   0.0000E+00   energy=   0.0000E+00   setid =     592 xmoment=   0.0000E+00 ymoment=   0.0000E+00 zmoment=   0.0000E+00
 nd#     595  xforce=   0.0000E+00   yforce=   0.0000E+00  zforce=   0.0000E+00   energy=   0.0000E+00   setid =     595 xmoment=   0.0000E+00 ymoment=   0.0000E+00 zmoment=   0.0000E+00
 nd#     596  xforce=   0.0000E+00   yforce=   0.0000E+00  zforce=   0.0000E+00   energy=   0.0000E+00   setid =     596 xmoment=   0.0000E+00 ymoment=   0.0000E+00 zmoment=   0.0000E+00
 nd#     599  xforce=   0.0000E+00   yforce=   0.0000E+00  zforce=   0.0000E+00   energy=   0.0000E+00   setid =     599 xmoment=   0.0000E+00 ymoment=   0.0000E+00 zmoment=   0.0000E+00
 nd#     600  xforce=   0.0000E+00   yforce=   0.0000E+00  zforce=   0.0000E+00   energy=   0.0000E+00   setid =     600 xmoment=   0.0000E+00 ymoment=   0.0000E+00 zmoment=   0.0000E+00
 nd#     603  xforce=   0.0000E+00   yforce=   0.0000E+00  zforce=   0.0000E+00   energy=   0.0000E+00   setid =     603 xmoment=   0.0000E+00 ymoment=   0.0000E+00 zmoment=   0.0000E+00
 nd#     604  xforce=   0.0000E+00   yforce=   0.0000E+00  zforce=   0.0000E+00   energy=   0.0000E+00   setid =     604 xmoment=   0.0000E+00 ymoment=   0.0000E+00 zmoment=   0.0000E+00
 nd#     638  xforce=   0.0000E+00   yforce=   0.0000E+00  zforce=   0.0000E+00   energy=   0.0000E+00   setid =     638 xmoment=   0.0000E+00 ymoment=   0.0000E+00 zmoment=   0.0000E+00
 nd#     639  xforce=   0.0000E+00   yforce=   0.0000E+00  zforce=   0.0000E+00   energy=   0.0000E+00   setid =     639 xmoment=   0.0000E+00 ymoment=   0.0000E+00 zmoment=   0.0000E+00
 nd#     641  xforce=   0.0000E+00   yforce=   0.0000E+00  zforce=   0.0000E+00   energy=   0.0000E+00   setid =     641 xmoment=   0.0000E+00 ymoment=   0.0000E+00 zmoment=   0.0000E+00
 nd#     642  xforce=   0.0000E+00   yforce=   0.0000E+00  zforce=   0.0000E+00   energy=   0.0000E+00   setid =     642 xmoment=   0.0000E+00 ymoment=   0.0000E+00 zmoment=   0.0000E+00
 nd#     644  xforce=   0.0000E+00   yforce=   0.0000E+00  zforce=   0.0000E+00   energy=   0.0000E+00   setid =     644 xmoment=   0.0000E+00 ymoment=   0.0000E+00 zmoment=   0.0000E+00
 nd#     645  xforce=   0.0000E+00   yforce=   0.0000E+00  zforce=   0.0000E+00   energy=   0.0000E+00   setid =     645 xmoment=   0.0000E+00 ymoment=   0.0000E+00 zmoment=   0.0000E+00
 nd#     647  xforce=   0.0000E+00   yforce=   0.0000E+00  zforce=   0.0000E+00   energy=   0.0000E+00   setid =     647 xmoment=   0.0000E+00 ymoment=   0.0000E+00 zmoment=   0.0000E+00
 nd#     648  xforce=   0.0000E+00   yforce=   0.0000E+00  zforce=   0.0000E+00   energy=   0.0000E+00   setid =     648 xmoment=   0.0000E+00 ymoment=   0.0000E+00 zmoment=   0.0000E+00
 nd#     674  xforce=   0.0000E+00   yforce=   0.0000E+00  zforce=   0.0000E+00   energy=   0.0000E+00   setid =     674 xmoment=   0.0000E+00 ymoment=   0.0000E+00 zmoment=   0.0000E+00
 nd#     676  xforce=   0.0000E+00   yforce=   0.0000E+00  zforce=   0.0000E+00   energy=   0.0000E+00   setid =     676 xmoment=   0.0000E+00 ymoment=   0.0000E+00 zmoment=   0.0000E+00
 nd#     678  xforce=   0.0000E+00   yforce=   0.0000E+00  zforce=   0.0000E+00   energy=   0.0000E+00   setid =     678 xmoment=   0.0000E+00 ymoment=   0.0000E+00 zmoment=   0.0000E+00
 nd#     680  xforce=   0.0000E+00   yforce=   0.0000E+00  zforce=   0.0000E+00   energy=   0.0000E+00   setid =     680 xmoment=   0.0000E+00 ymoment=   0.0000E+00 zmoment=   0.0000E+00
 nd#     821  xforce=   0.0000E+00   yforce=   0.0000E+00  zforce=   0.0000E+00   energy=   0.0000E+00   setid =     821 xmoment=   0.0000E+00 ymoment=   0.0000E+00 zmoment=   0.0000E+00
 nd#     822  xforce=   0.0000E+00   yforce=   0.0000E+00  zforce=   0.0000E+00   energy=   0.0000E+00   setid =     822 xmoment=   0.0000E+00 ymoment=   0.0000E+00 zmoment=   0.0000E+00
 nd#     823  xforce=   0.0000E+00   yforce=   0.0000E+00  zforce=   0.0000E+00   energy=   0.0000E+00   setid =     823 xmoment=   0.0000E+00 ymoment=   0.0000E+00 zmoment=   0.0000E+00
 nd#     824  xforce=   0.0000E+00   yforce=   0.0000E+00  zforce=   0.0000E+00   energy=   0.0000E+00   setid =     824 xmoment=   0.0000E+00 ymoment=   0.0000E+00 zmoment=   0.0000E+00
 nd#     850  xforce=   0.0000E+00   yforce=   0.0000E+00  zforce=   0.0000E+00   energy=   0.0000E+00   setid =     850 xmoment=   0.0000E+00 ymoment=   0.0000E+00 zmoment=   0.0000E+00
 nd#     852  xforce=   0.0000E+00   yforce=   0.0000E+00  zforce=   0.0000E+00   energy=   0.0000E+00   setid =     852 xmoment=   0.0000E+00 ymoment=   0.0000E+00 zmoment=   0.0000E+00
 nd#     854  xforce=   0.0000E+00   yforce=   0.0000E+00  zforce=   0.0000E+00   energy=   0.0000E+00   setid =     854 xmoment=   0.0000E+00 ymoment=   0.0000E+00 zmoment=   0.0000E+00
 nd#     856  xforce=   0.0000E+00   yforce=   0.0000E+00  zforce=   0.0000E+00   energy=   0.0000E+00   setid =     856 xmoment=   0.0000E+00 ymoment=   0.0000E+00 zmoment=   0.0000E+00
              xtotal=   0.0000E+00   ytotal=   0.0000E+00  ztotal=   0.0000E+00   etotal=   0.0000E+00

 n o d a l   f o r c e/e n e r g y    o u t p u t  t=   1.29245E+00

 velocity boundary condition forces/rigid body moments 

 nd#     220  xforce=   0.0000E+00   yforce=   0.0000E+00  zforce=  -2.6598E+01   energy=   3.4164E-04   setid =     220 xmoment=   0.0000E+00 ymoment=   0.0000E+00 zmoment=   0.0000E+00
 nd#     221  xforce=   0.0000E+00   yforce=   0.0000E+00  zforce=  -3.6229E+01   energy=   4.9172E-04   setid =     221 xmoment=   0.0000E+00 ymoment=   0.0000E+00 zmoment=   0.0000E+00
 nd#     222  xforce=   0.0000E+00   yforce=   0.0000E+00  zforce=  -5.5638E+01   energy=   7.2808E-04   setid =     222 xmoment=   0.0000E+00 ymoment=   0.0000E+00 zmoment=   0.0000E+00
 nd#     223  xforce=   0.0000E+00   yforce=   0.0000E+00  zforce=  -3.3340E+01   energy=   4.2783E-04   setid =     223 xmoment=   0.0000E+00 ymoment=   0.0000E+00 zmoment=   0.0000E+00
 nd#     248  xforce=   0.0000E+00   yforce=   0.0000E+00  zforce=  -5.0368E+01   energy=   6.5434E-04   setid =     248 xmoment=   0.0000E+00 ymoment=   0.0000E+00 zmoment=   0.0000E+00
 nd#     249  xforce=   0.0000E+00   yforce=   0.0000E+00  zforce=  -2.9665E+01   energy=   3.7967E-04   setid =     249 xmoment=   0.0000E+00 ymoment=   0.0000E+00 zmoment=   0.0000E+00
 nd#     286  xforce=   0.0000E+00   yforce=   0.0000E+00  zforce=  -5.2326E+01   energy=   6.8424E-04   setid =     286 xmoment=   0.0000E+00 ymoment=   0.0000E+00 zmoment=   0.0000E+00
 nd#     287  xforce=   0.0000E+00   yforce=   0.0000E+00  zforce=  -2.7684E+01   energy=   3.6680E-04   setid =     287 xmoment=   0.0000E+00 ymoment=   0.0000E+00 zmoment=   0.0000E+00
 nd#     288  xforce=   0.0000E+00   yforce=   0.0000E+00  zforce=  -5.0500E+01   energy=   6.6030E-04   setid =     288 xmoment=   0.0000E+00 ymoment=   0.0000E+00 zmoment=   0.0000E+00
 nd#     301  xforce=   0.0000E+00   yforce=   0.0000E+00  zforce=  -5.4962E+01   energy=   7.1808E-04   setid =     301 xmoment=   0.0000E+00 ymoment=   0.0000E+00 zmoment=   0.0000E+00
 nd#     314  xforce=   0.0000E+00   yforce=   0.0000E+00  zforce=  -4.8323E+01   energy=   6.3116E-04   setid =     314 xmoment=   0.0000E+00 ymoment=   0.0000E+00 zmoment=   0.0000E+00
 nd#     363  xforce=   0.0000E+00   yforce=   0.0000E+00  zforce=  -5.0915E+01   energy=   6.6359E-04   setid =     363 xmoment=   0.0000E+00 ymoment=   0.0000E+00 zmoment=   0.0000E+00
 nd#     364  xforce=   0.0000E+00   yforce=   0.0000E+00  zforce=  -6.3770E+01   energy=   8.2795E-04   setid =     364 xmoment=   0.0000E+00 ymoment=   0.0000E+00 zmoment=   0.0000E+00
 nd#     365  xforce=   0.0000E+00   yforce=   0.0000E+00  zforce=  -3.7770E+01   energy=   4.7633E-04   setid =     365 xmoment=   0.0000E+00 ymoment=   0.0000E+00 zmoment=   0.0000E+00
 nd#     366  xforce=   0.0000E+00   yforce=   0.0000E+00  zforce=  -2.7987E+01   energy=   3.5916E-04   setid =     366 xmoment=   0.0000E+00 ymoment=   0.0000E+00 zmoment=   0.0000E+00
 nd#     379  xforce=   0.0000E+00   yforce=   0.0000E+00  zforce=  -3.4548E+01   energy=   4.3388E-04   setid =     379 xmoment=   0.0000E+00 ymoment=   0.0000E+00 zmoment=   0.0000E+00
 nd#     404  xforce=   0.0000E+00   yforce=   0.0000E+00  zforce=  -3.1792E+01   energy=   3.9468E-04   setid =     404 xmoment=   0.0000E+00 ymoment=   0.0000E+00 zmoment=   0.0000E+00
 nd#     405  xforce=   0.0000E+00   yforce=   0.0000E+00  zforce=  -2.1447E+01   energy=   2.6091E-04   setid =     405 xmoment=   0.0000E+00 ymoment=   0.0000E+00 zmoment=   0.0000E+00
 nd#     418  xforce=   0.0000E+00   yforce=   0.0000E+00  zforce=  -3.7296E+01   energy=   4.6203E-04   setid =     418 xmoment=   0.0000E+00 ymoment=   0.0000E+00 zmoment=   0.0000E+00
 nd#     438  xforce=   0.0000E+00   yforce=   0.0000E+00  zforce=  -4.6843E+00   energy=   6.4599E-05   setid =     438 xmoment=   0.0000E+00 ymoment=   0.0000E+00 zmoment=   0.0000E+00
 nd#     439  xforce=   0.0000E+00   yforce=   0.0000E+00  zforce=  -2.4651E+01   energy=   3.2464E-04   setid =     439 xmoment=   0.0000E+00 ymoment=   0.0000E+00 zmoment=   0.0000E+00
 nd#     440  xforce=   0.0000E+00   yforce=   0.0000E+00  zforce=  -2.4536E+01   energy=   3.2110E-04   setid =     440 xmoment=   0.0000E+00 ymoment=   0.0000E+00 zmoment=   0.0000E+00
 nd#     441  xforce=   0.0000E+00   yforce=   0.0000E+00  zforce=  -2.4018E+01   energy=   3.1302E-04   setid =     441 xmoment=   0.0000E+00 ymoment=   0.0000E+00 zmoment=   0.0000E+00
 nd#     442  xforce=   0.0000E+00   yforce=   0.0000E+00  zforce=  -2.3445E+01   energy=   3.0441E-04   setid =     442 xmoment=   0.0000E+00 ymoment=   0.0000E+00 zmoment=   0.0000E+00
 nd#     443  xforce=   0.0000E+00   yforce=   0.0000E+00  zforce=  -2.2753E+01   energy=   2.9445E-04   setid =     443 xmoment=   0.0000E+00 ymoment=   0.0000E+00 zmoment=   0.0000E+00
 nd#     444  xforce=   0.0000E+00   yforce=   0.0000E+00  zforce=  -2.1570E+01   energy=   2.7837E-04   setid =     444 xmoment=   0.0000E+00 ymoment=   0.0000E+00 zmoment=   0.0000E+00
 nd#     591  xforce=   0.0000E+00   yforce=   0.0000E+00  zforce=  -4.4818E+01   energy=   5.8395E-04   setid =     591 xmoment=   0.0000E+00 ymoment=   0.0000E+00 zmoment=   0.0000E+00
 nd#     592  xforce=   0.0000E+00   yforce=   0.0000E+00  zforce=  -4.6615E+01   energy=   6.0816E-04   setid =     592 xmoment=   0.0000E+00 ymoment=   0.0000E+00 zmoment=   0.0000E+00
 nd#     595  xforce=   0.0000E+00   yforce=   0.0000E+00  zforce=  -4.4015E+01   energy=   5.7354E-04   setid =     595 xmoment=   0.0000E+00 ymoment=   0.0000E+00 zmoment=   0.0000E+00
 nd#     596  xforce=   0.0000E+00   yforce=   0.0000E+00  zforce=  -4.6305E+01   energy=   6.0380E-04   setid =     596 xmoment=   0.0000E+00 ymoment=   0.0000E+00 zmoment=   0.0000E+00
 nd#     599  xforce=   0.0000E+00   yforce=   0.0000E+00  zforce=  -4.4327E+01   energy=   5.7621E-04   setid =     599 xmoment=   0.0000E+00 ymoment=   0.0000E+00 zmoment=   0.0000E+00
 nd#     600  xforce=   0.0000E+00   yforce=   0.0000E+00  zforce=  -4.6833E+01   energy=   6.0892E-04   setid =     600 xmoment=   0.0000E+00 ymoment=   0.0000E+00 zmoment=   0.0000E+00
 nd#     603  xforce=   0.0000E+00   yforce=   0.0000E+00  zforce=  -2.3368E+01   energy=   3.0150E-04   setid =     603 xmoment=   0.0000E+00 ymoment=   0.0000E+00 zmoment=   0.0000E+00
 nd#     604  xforce=   0.0000E+00   yforce=   0.0000E+00  zforce=  -2.4493E+01   energy=   3.1636E-04   setid =     604 xmoment=   0.0000E+00 ymoment=   0.0000E+00 zmoment=   0.0000E+00
 nd#     638  xforce=   0.0000E+00   yforce=   0.0000E+00  zforce=  -4.9364E+01   energy=   6.4722E-04   setid =     638 xmoment=   0.0000E+00 ymoment=   0.0000E+00 zmoment=   0.0000E+00
 nd#     639  xforce=   0.0000E+00   yforce=   0.0000E+00  zforce=  -4.9638E+01   energy=   6.5442E-04   setid =     639 xmoment=   0.0000E+00 ymoment=   0.0000E+00 zmoment=   0.0000E+00
 nd#     641  xforce=   0.0000E+00   yforce=   0.0000E+00  zforce=  -4.9837E+01   energy=   6.5229E-04   setid =     641 xmoment=   0.0000E+00 ymoment=   0.0000E+00 zmoment=   0.0000E+00
 nd#     642  xforce=   0.0000E+00   yforce=   0.0000E+00  zforce=  -5.0190E+01   energy=   6.6041E-04   setid =     642 xmoment=   0.0000E+00 ymoment=   0.0000E+00 zmoment=   0.0000E+00
 nd#     644  xforce=   0.0000E+00   yforce=   0.0000E+00  zforce=  -5.0749E+01   energy=   6.6155E-04   setid =     644 xmoment=   0.0000E+00 ymoment=   0.0000E+00 zmoment=   0.0000E+00
 nd#     645  xforce=   0.0000E+00   yforce=   0.0000E+00  zforce=  -5.1445E+01   energy=   6.7374E-04   setid =     645 xmoment=   0.0000E+00 ymoment=   0.0000E+00 zmoment=   0.0000E+00
 nd#     647  xforce=   0.0000E+00   yforce=   0.0000E+00  zforce=  -2.6179E+01   energy=   3.3956E-04   setid =     647 xmoment=   0.0000E+00 ymoment=   0.0000E+00 zmoment=   0.0000E+00
 nd#     648  xforce=   0.0000E+00   yforce=   0.0000E+00  zforce=  -2.6475E+01   energy=   3.4508E-04   setid =     648 xmoment=   0.0000E+00 ymoment=   0.0000E+00 zmoment=   0.0000E+00
 nd#     674  xforce=   0.0000E+00   yforce=   0.0000E+00  zforce=  -4.2352E+01   energy=   5.5135E-04   setid =     674 xmoment=   0.0000E+00 ymoment=   0.0000E+00 zmoment=   0.0000E+00
 nd#     676  xforce=   0.0000E+00   yforce=   0.0000E+00  zforce=  -4.1269E+01   energy=   5.3741E-04   setid =     676 xmoment=   0.0000E+00 ymoment=   0.0000E+00 zmoment=   0.0000E+00
 nd#     678  xforce=   0.0000E+00   yforce=   0.0000E+00  zforce=  -4.1738E+01   energy=   5.4208E-04   setid =     678 xmoment=   0.0000E+00 ymoment=   0.0000E+00 zmoment=   0.0000E+00
 nd#     680  xforce=   0.0000E+00   yforce=   0.0000E+00  zforce=  -2.2206E+01   energy=   2.8595E-04   setid =     680 xmoment=   0.0000E+00 ymoment=   0.0000E+00 zmoment=   0.0000E+00
 nd#     821  xforce=   0.0000E+00   yforce=   0.0000E+00  zforce=  -4.8108E+01   energy=   6.2894E-04   setid =     821 xmoment=   0.0000E+00 ymoment=   0.0000E+00 zmoment=   0.0000E+00
 nd#     822  xforce=   0.0000E+00   yforce=   0.0000E+00  zforce=  -4.8249E+01   energy=   6.3003E-04   setid =     822 xmoment=   0.0000E+00 ymoment=   0.0000E+00 zmoment=   0.0000E+00
 nd#     823  xforce=   0.0000E+00   yforce=   0.0000E+00  zforce=  -4.8962E+01   energy=   6.3712E-04   setid =     823 xmoment=   0.0000E+00 ymoment=   0.0000E+00 zmoment=   0.0000E+00
 nd#     824  xforce=   0.0000E+00   yforce=   0.0000E+00  zforce=  -2.5410E+01   energy=   3.2876E-04   setid =     824 xmoment=   0.0000E+00 ymoment=   0.0000E+00 zmoment=   0.0000E+00
 nd#     850  xforce=   0.0000E+00   yforce=   0.0000E+00  zforce=  -7.8004E+00   energy=   1.1263E-04   setid =     850 xmoment=   0.0000E+00 ymoment=   0.0000E+00 zmoment=   0.0000E+00
 nd#     852  xforce=   0.0000E+00   yforce=   0.0000E+00  zforce=  -4.3530E+00   energy=   7.3391E-05   setid =     852 xmoment=   0.0000E+00 ymoment=   0.0000E+00 zmoment=   0.0000E+00
 nd#     854  xforce=   0.0000E+00   yforce=   0.0000E+00  zforce=  -7.0240E-01   energy=   3.3098E-05   setid =     854 xmoment=   0.0000E+00 ymoment=   0.0000E+00 zmoment=   0.0000E+00
 nd#     856  xforce=   0.0000E+00   yforce=   0.0000E+00  zforce=  -3.0284E-02   energy=   1.3845E-05   setid =     856 xmoment=   0.0000E+00 ymoment=   0.0000E+00 zmoment=   0.0000E+00
              xtotal=   0.0000E+00   ytotal=   0.0000E+00  ztotal=  -1.9226E+03   etotal=   2.5044E-02

 n o d a l   f o r c e/e n e r g y    o u t p u t  t=   2.54839E+00

 velocity boundary condition forces/rigid body moments 

 nd#     220  xforce=   0.0000E+00   yforce=   0.0000E+00  zforce=  -1.7210E+01   energy=   8.9185E-04   setid =     220 xmoment=   0.0000E+00 ymoment=   0.0000E+00 zmoment=   0.0000E+00
 nd#     221  xforce=   0.0000E+00   yforce=   0.0000E+00  zforce=  -1.7257E+01   energy=   1.1635E-03   setid =     221 xmoment=   0.0000E+00 ymoment=   0.0000E+00 zmoment=   0.0000E+00
 nd#     222  xforce=   0.0000E+00   yforce=   0.0000E+00  zforce=  -8.8121E+01   energy=   2.5336E-03   setid =     222 xmoment=   0.0000E+00 ymoment=   0.0000E+00 zmoment=   0.0000E+00
 nd#     223  xforce=   0.0000E+00   yforce=   0.0000E+00  zforce=  -4.3285E+01   energy=   1.3902E-03   setid =     223 xmoment=   0.0000E+00 ymoment=   0.0000E+00 zmoment=   0.0000E+00
 nd#     248  xforce=   0.0000E+00   yforce=   0.0000E+00  zforce=  -8.6317E+01   energy=   2.3710E-03   setid =     248 xmoment=   0.0000E+00 ymoment=   0.0000E+00 zmoment=   0.0000E+00
 nd#     249  xforce=   0.0000E+00   yforce=   0.0000E+00  zforce=  -3.8779E+01   energy=   1.2393E-03   setid =     249 xmoment=   0.0000E+00 ymoment=   0.0000E+00 zmoment=   0.0000E+00
 nd#     286  xforce=   0.0000E+00   yforce=   0.0000E+00  zforce=  -8.9805E+01   energy=   2.4693E-03   setid =     286 xmoment=   0.0000E+00 ymoment=   0.0000E+00 zmoment=   0.0000E+00
 nd#     287  xforce=   0.0000E+00   yforce=   0.0000E+00  zforce=  -8.4608E+01   energy=   1.7771E-03   setid =     287 xmoment=   0.0000E+00 ymoment=   0.0000E+00 zmoment=   0.0000E+00
 nd#     288  xforce=   0.0000E+00   yforce=   0.0000E+00  zforce=  -9.8304E+01   energy=   2.5292E-03   setid =     288 xmoment=   0.0000E+00 ymoment=   0.0000E+00 zmoment=   0.0000E+00
 nd#     301  xforce=   0.0000E+00   yforce=   0.0000E+00  zforce=  -1.2244E+02   energy=   2.9462E-03   setid =     301 xmoment=   0.0000E+00 ymoment=   0.0000E+00 zmoment=   0.0000E+00
 nd#     314  xforce=   0.0000E+00   yforce=   0.0000E+00  zforce=  -9.4094E+01   energy=   2.4198E-03   setid =     314 xmoment=   0.0000E+00 ymoment=   0.0000E+00 zmoment=   0.0000E+00
 nd#     363  xforce=   0.0000E+00   yforce=   0.0000E+00  zforce=  -7.3016E+01   energy=   2.2201E-03   setid =     363 xmoment=   0.0000E+00 ymoment=   0.0000E+00 zmoment=   0.0000E+00
 nd#     364  xforce=   0.0000E+00   yforce=   0.0000E+00  zforce=  -1.0087E+02   energy=   2.8958E-03   setid =     364 xmoment=   0.0000E+00 ymoment=   0.0000E+00 zmoment=   0.0000E+00
 nd#     365  xforce=   0.0000E+00   yforce=   0.0000E+00  zforce=  -7.4707E+01   energy=   1.8890E-03   setid =     365 xmoment=   0.0000E+00 ymoment=   0.0000E+00 zmoment=   0.0000E+00
 nd#     366  xforce=   0.0000E+00   yforce=   0.0000E+00  zforce=  -5.2642E+01   energy=   1.3718E-03   setid =     366 xmoment=   0.0000E+00 ymoment=   0.0000E+00 zmoment=   0.0000E+00
 nd#     379  xforce=   0.0000E+00   yforce=   0.0000E+00  zforce=  -8.8637E+01   energy=   1.9810E-03   setid =     379 xmoment=   0.0000E+00 ymoment=   0.0000E+00 zmoment=   0.0000E+00
 nd#     404  xforce=   0.0000E+00   yforce=   0.0000E+00  zforce=  -4.7901E+01   energy=   1.3956E-03   setid =     404 xmoment=   0.0000E+00 ymoment=   0.0000E+00 zmoment=   0.0000E+00
 nd#     405  xforce=   0.0000E+00   yforce=   0.0000E+00  zforce=  -4.2385E+01   energy=   1.0626E-03   setid =     405 xmoment=   0.0000E+00 ymoment=   0.0000E+00 zmoment=   0.0000E+00
 nd#     418  xforce=   0.0000E+00   yforce=   0.0000E+00  zforce=  -7.5680E+01   energy=   1.8809E-03   setid =     418 xmoment=   0.0000E+00 ymoment=   0.0000E+00 zmoment=   0.0000E+00
 nd#     438  xforce=   0.0000E+00   yforce=   0.0000E+00  zforce=   9.6493E+00   energy=   2.2420E-06   setid =     438 xmoment=   0.0000E+00 ymoment=   0.0000E+00 zmoment=   0.0000E+00
 nd#     439  xforce=   0.0000E+00   yforce=   0.0000E+00  zforce=  -2.3588E+01   energy=   9.3049E-04   setid =     439 xmoment=   0.0000E+00 ymoment=   0.0000E+00 zmoment=   0.0000E+00
 nd#     440  xforce=   0.0000E+00   yforce=   0.0000E+00  zforce=  -2.5007E+01   energy=   9.4333E-04   setid =     440 xmoment=   0.0000E+00 ymoment=   0.0000E+00 zmoment=   0.0000E+00
 nd#     441  xforce=   0.0000E+00   yforce=   0.0000E+00  zforce=  -2.5721E+01   energy=   9.3771E-04   setid =     441 xmoment=   0.0000E+00 ymoment=   0.0000E+00 zmoment=   0.0000E+00
 nd#     442  xforce=   0.0000E+00   yforce=   0.0000E+00  zforce=  -2.5687E+01   energy=   9.2149E-04   setid =     442 xmoment=   0.0000E+00 ymoment=   0.0000E+00 zmoment=   0.0000E+00
 nd#     443  xforce=   0.0000E+00   yforce=   0.0000E+00  zforce=  -2.6582E+01   energy=   9.1406E-04   setid =     443 xmoment=   0.0000E+00 ymoment=   0.0000E+00 zmoment=   0.0000E+00
 nd#     444  xforce=   0.0000E+00   yforce=   0.0000E+00  zforce=  -2.6280E+01   energy=   8.7934E-04   setid =     444 xmoment=   0.0000E+00 ymoment=   0.0000E+00 zmoment=   0.0000E+00
 nd#     591  xforce=   0.0000E+00   yforce=   0.0000E+00  zforce=  -3.4855E+01   energy=   1.5846E-03   setid =     591 xmoment=   0.0000E+00 ymoment=   0.0000E+00 zmoment=   0.0000E+00
 nd#     592  xforce=   0.0000E+00   yforce=   0.0000E+00  zforce=  -3.8839E+01   energy=   1.6814E-03   setid =     592 xmoment=   0.0000E+00 ymoment=   0.0000E+00 zmoment=   0.0000E+00
 nd#     595  xforce=   0.0000E+00   yforce=   0.0000E+00  zforce=  -5.9715E+01   energy=   1.8763E-03   setid =     595 xmoment=   0.0000E+00 ymoment=   0.0000E+00 zmoment=   0.0000E+00
 nd#     596  xforce=   0.0000E+00   yforce=   0.0000E+00  zforce=  -6.2442E+01   energy=   1.9696E-03   setid =     596 xmoment=   0.0000E+00 ymoment=   0.0000E+00 zmoment=   0.0000E+00
 nd#     599  xforce=   0.0000E+00   yforce=   0.0000E+00  zforce=  -5.5679E+01   energy=   1.8322E-03   setid =     599 xmoment=   0.0000E+00 ymoment=   0.0000E+00 zmoment=   0.0000E+00
 nd#     600  xforce=   0.0000E+00   yforce=   0.0000E+00  zforce=  -6.4803E+01   energy=   2.0110E-03   setid =     600 xmoment=   0.0000E+00 ymoment=   0.0000E+00 zmoment=   0.0000E+00
 nd#     603  xforce=   0.0000E+00   yforce=   0.0000E+00  zforce=  -2.8916E+01   energy=   9.5816E-04   setid =     603 xmoment=   0.0000E+00 ymoment=   0.0000E+00 zmoment=   0.0000E+00
 nd#     604  xforce=   0.0000E+00   yforce=   0.0000E+00  zforce=  -2.9307E+01   energy=   9.9206E-04   setid =     604 xmoment=   0.0000E+00 ymoment=   0.0000E+00 zmoment=   0.0000E+00
 nd#     638  xforce=   0.0000E+00   yforce=   0.0000E+00  zforce=  -4.7716E+01   energy=   1.8665E-03   setid =     638 xmoment=   0.0000E+00 ymoment=   0.0000E+00 zmoment=   0.0000E+00
 nd#     639  xforce=   0.0000E+00   yforce=   0.0000E+00  zforce=  -4.0956E+01   energy=   1.7922E-03   setid =     639 xmoment=   0.0000E+00 ymoment=   0.0000E+00 zmoment=   0.0000E+00
 nd#     641  xforce=   0.0000E+00   yforce=   0.0000E+00  zforce=  -6.3938E+01   energy=   2.0812E-03   setid =     641 xmoment=   0.0000E+00 ymoment=   0.0000E+00 zmoment=   0.0000E+00
 nd#     642  xforce=   0.0000E+00   yforce=   0.0000E+00  zforce=  -6.9056E+01   energy=   2.1581E-03   setid =     642 xmoment=   0.0000E+00 ymoment=   0.0000E+00 zmoment=   0.0000E+00
 nd#     644  xforce=   0.0000E+00   yforce=   0.0000E+00  zforce=  -7.4940E+01   energy=   2.2401E-03   setid =     644 xmoment=   0.0000E+00 ymoment=   0.0000E+00 zmoment=   0.0000E+00
 nd#     645  xforce=   0.0000E+00   yforce=   0.0000E+00  zforce=  -7.3522E+01   energy=   2.2433E-03   setid =     645 xmoment=   0.0000E+00 ymoment=   0.0000E+00 zmoment=   0.0000E+00
 nd#     647  xforce=   0.0000E+00   yforce=   0.0000E+00  zforce=  -1.8940E+01   energy=   9.0622E-04   setid =     647 xmoment=   0.0000E+00 ymoment=   0.0000E+00 zmoment=   0.0000E+00
 nd#     648  xforce=   0.0000E+00   yforce=   0.0000E+00  zforce=  -3.1024E+00   energy=   7.1656E-04   setid =     648 xmoment=   0.0000E+00 ymoment=   0.0000E+00 zmoment=   0.0000E+00
 nd#     674  xforce=   0.0000E+00   yforce=   0.0000E+00  zforce=  -2.9774E+01   energy=   1.4572E-03   setid =     674 xmoment=   0.0000E+00 ymoment=   0.0000E+00 zmoment=   0.0000E+00
 nd#     676  xforce=   0.0000E+00   yforce=   0.0000E+00  zforce=  -6.0853E+01   energy=   1.8200E-03   setid =     676 xmoment=   0.0000E+00 ymoment=   0.0000E+00 zmoment=   0.0000E+00
 nd#     678  xforce=   0.0000E+00   yforce=   0.0000E+00  zforce=  -5.9965E+01   energy=   1.8194E-03   setid =     678 xmoment=   0.0000E+00 ymoment=   0.0000E+00 zmoment=   0.0000E+00
 nd#     680  xforce=   0.0000E+00   yforce=   0.0000E+00  zforce=  -3.3186E+01   energy=   9.8164E-04   setid =     680 xmoment=   0.0000E+00 ymoment=   0.0000E+00 zmoment=   0.0000E+00
 nd#     821  xforce=   0.0000E+00   yforce=   0.0000E+00  zforce=  -4.3491E+01   energy=   1.7794E-03   setid =     821 xmoment=   0.0000E+00 ymoment=   0.0000E+00 zmoment=   0.0000E+00
 nd#     822  xforce=   0.0000E+00   yforce=   0.0000E+00  zforce=  -6.4199E+01   energy=   2.0423E-03   setid =     822 xmoment=   0.0000E+00 ymoment=   0.0000E+00 zmoment=   0.0000E+00
 nd#     823  xforce=   0.0000E+00   yforce=   0.0000E+00  zforce=  -7.4113E+01   energy=   2.1829E-03   setid =     823 xmoment=   0.0000E+00 ymoment=   0.0000E+00 zmoment=   0.0000E+00
 nd#     824  xforce=   0.0000E+00   yforce=   0.0000E+00  zforce=  -2.8358E+01   energy=   1.0041E-03   setid =     824 xmoment=   0.0000E+00 ymoment=   0.0000E+00 zmoment=   0.0000E+00
 nd#     850  xforce=   0.0000E+00   yforce=   0.0000E+00  zforce=   4.1944E+01   energy=  -3.1620E-04   setid =     850 xmoment=   0.0000E+00 ymoment=   0.0000E+00 zmoment=   0.0000E+00
 nd#     852  xforce=   0.0000E+00   yforce=   0.0000E+00  zforce=   5.2345E+01   energy=  -5.2936E-04   setid =     852 xmoment=   0.0000E+00 ymoment=   0.0000E+00 zmoment=   0.0000E+00
 nd#     854  xforce=   0.0000E+00   yforce=   0.0000E+00  zforce=   9.7141E+01   energy=  -1.1781E-03   setid =     854 xmoment=   0.0000E+00 ymoment=   0.0000E+00 zmoment=   0.0000E+00
 nd#     856  xforce=   0.0000E+00   yforce=   0.0000E+00  zforce=   6.7162E+01   energy=  -8.2928E-04   setid =     856 xmoment=   0.0000E+00 ymoment=   0.0000E+00 zmoment=   0.0000E+00
              xtotal=   0.0000E+00   ytotal=   0.0000E+00  ztotal=  -2.3814E+03   etotal=   7.9100E-02

 n o d a l   f o r c e/e n e r g y    o u t p u t  t=   3.13273E+00

 velocity boundary condition forces/rigid body moments 

 nd#     220  xforce=   0.0000E+00   yforce=   0.0000E+00  zforce=  -1.1459E+02   energy=   1.9460E-03   setid =     220 xmoment=   0.0000E+00 ymoment=   0.0000E+00 zmoment=   0.0000E+00
 nd#     221  xforce=   0.0000E+00   yforce=   0.0000E+00  zforce=  -7.6912E+01   energy=   1.9165E-03   setid =     221 xmoment=   0.0000E+00 ymoment=   0.0000E+00 zmoment=   0.0000E+00
 nd#     222  xforce=   0.0000E+00   yforce=   0.0000E+00  zforce=  -5.0553E+01   energy=   3.2069E-03   setid =     222 xmoment=   0.0000E+00 ymoment=   0.0000E+00 zmoment=   0.0000E+00
 nd#     223  xforce=   0.0000E+00   yforce=   0.0000E+00  zforce=  -6.7709E+01   energy=   2.1010E-03   setid =     223 xmoment=   0.0000E+00 ymoment=   0.0000E+00 zmoment=   0.0000E+00
 nd#     248  xforce=   0.0000E+00   yforce=   0.0000E+00  zforce=  -3.2331E+01   energy=   2.8839E-03   setid =     248 xmoment=   0.0000E+00 ymoment=   0.0000E+00 zmoment=   0.0000E+00
 nd#     249  xforce=   0.0000E+00   yforce=   0.0000E+00  zforce=  -2.7929E+01   energy=   1.5917E-03   setid =     249 xmoment=   0.0000E+00 ymoment=   0.0000E+00 zmoment=   0.0000E+00
 nd#     286  xforce=   0.0000E+00   yforce=   0.0000E+00  zforce=   2.7588E+02   energy=   3.0843E-04   setid =     286 xmoment=   0.0000E+00 ymoment=   0.0000E+00 zmoment=   0.0000E+00
 nd#     287  xforce=   0.0000E+00   yforce=   0.0000E+00  zforce=  -5.4154E+01   energy=   2.5811E-03   setid =     287 xmoment=   0.0000E+00 ymoment=   0.0000E+00 zmoment=   0.0000E+00
 nd#     288  xforce=   0.0000E+00   yforce=   0.0000E+00  zforce=   8.3071E+01   energy=   1.9701E-03   setid =     288 xmoment=   0.0000E+00 ymoment=   0.0000E+00 zmoment=   0.0000E+00
 nd#     301  xforce=   0.0000E+00   yforce=   0.0000E+00  zforce=  -1.3873E+02   energy=   4.6135E-03   setid =     301 xmoment=   0.0000E+00 ymoment=   0.0000E+00 zmoment=   0.0000E+00
 nd#     314  xforce=   0.0000E+00   yforce=   0.0000E+00  zforce=  -5.4857E+01   energy=   3.1703E-03   setid =     314 xmoment=   0.0000E+00 ymoment=   0.0000E+00 zmoment=   0.0000E+00
 nd#     363  xforce=   0.0000E+00   yforce=   0.0000E+00  zforce=   5.6931E+00   energy=   2.3373E-03   setid =     363 xmoment=   0.0000E+00 ymoment=   0.0000E+00 zmoment=   0.0000E+00
 nd#     364  xforce=   0.0000E+00   yforce=   0.0000E+00  zforce=  -1.7082E+01   energy=   3.3576E-03   setid =     364 xmoment=   0.0000E+00 ymoment=   0.0000E+00 zmoment=   0.0000E+00
 nd#     365  xforce=   0.0000E+00   yforce=   0.0000E+00  zforce=  -1.6589E+02   energy=   3.6377E-03   setid =     365 xmoment=   0.0000E+00 ymoment=   0.0000E+00 zmoment=   0.0000E+00
 nd#     366  xforce=   0.0000E+00   yforce=   0.0000E+00  zforce=  -6.4513E+01   energy=   2.1152E-03   setid =     366 xmoment=   0.0000E+00 ymoment=   0.0000E+00 zmoment=   0.0000E+00
 nd#     379  xforce=   0.0000E+00   yforce=   0.0000E+00  zforce=  -2.1872E+01   energy=   2.3496E-03   setid =     379 xmoment=   0.0000E+00 ymoment=   0.0000E+00 zmoment=   0.0000E+00
 nd#     404  xforce=   0.0000E+00   yforce=   0.0000E+00  zforce=  -2.4207E+02   energy=   3.6719E-03   setid =     404 xmoment=   0.0000E+00 ymoment=   0.0000E+00 zmoment=   0.0000E+00
 nd#     405  xforce=   0.0000E+00   yforce=   0.0000E+00  zforce=  -1.5238E+02   energy=   2.5063E-03   setid =     405 xmoment=   0.0000E+00 ymoment=   0.0000E+00 zmoment=   0.0000E+00
 nd#     418  xforce=   0.0000E+00   yforce=   0.0000E+00  zforce=  -1.1842E+02   energy=   3.2211E-03   setid =     418 xmoment=   0.0000E+00 ymoment=   0.0000E+00 zmoment=   0.0000E+00
 nd#     438  xforce=   0.0000E+00   yforce=   0.0000E+00  zforce=   3.8661E+00   energy=  -5.2796E-05   setid =     438 xmoment=   0.0000E+00 ymoment=   0.0000E+00 zmoment=   0.0000E+00
 nd#     439  xforce=   0.0000E+00   yforce=   0.0000E+00  zforce=  -2.4074E+01   energy=   1.2103E-03   setid =     439 xmoment=   0.0000E+00 ymoment=   0.0000E+00 zmoment=   0.0000E+00
 nd#     440  xforce=   0.0000E+00   yforce=   0.0000E+00  zforce=  -3.1903E+01   energy=   1.3033E-03   setid =     440 xmoment=   0.0000E+00 ymoment=   0.0000E+00 zmoment=   0.0000E+00
 nd#     441  xforce=   0.0000E+00   yforce=   0.0000E+00  zforce=  -3.4856E+01   energy=   1.3309E-03   setid =     441 xmoment=   0.0000E+00 ymoment=   0.0000E+00 zmoment=   0.0000E+00
 nd#     442  xforce=   0.0000E+00   yforce=   0.0000E+00  zforce=  -3.7270E+01   energy=   1.3455E-03   setid =     442 xmoment=   0.0000E+00 ymoment=   0.0000E+00 zmoment=   0.0000E+00
 nd#     443  xforce=   0.0000E+00   yforce=   0.0000E+00  zforce=  -4.0669E+01   energy=   1.3776E-03   setid =     443 xmoment=   0.0000E+00 ymoment=   0.0000E+00 zmoment=   0.0000E+00
 nd#     444  xforce=   0.0000E+00   yforce=   0.0000E+00  zforce=  -4.3793E+01   energy=   1.3765E-03   setid =     444 xmoment=   0.0000E+00 ymoment=   0.0000E+00 zmoment=   0.0000E+00
 nd#     591  xforce=   0.0000E+00   yforce=   0.0000E+00  zforce=  -2.7550E+01   energy=   1.9363E-03   setid =     591 xmoment=   0.0000E+00 ymoment=   0.0000E+00 zmoment=   0.0000E+00
 nd#     592  xforce=   0.0000E+00   yforce=   0.0000E+00  zforce=  -3.2391E+01   energy=   2.0865E-03   setid =     592 xmoment=   0.0000E+00 ymoment=   0.0000E+00 zmoment=   0.0000E+00
 nd#     595  xforce=   0.0000E+00   yforce=   0.0000E+00  zforce=  -5.9643E+01   energy=   2.5943E-03   setid =     595 xmoment=   0.0000E+00 ymoment=   0.0000E+00 zmoment=   0.0000E+00
 nd#     596  xforce=   0.0000E+00   yforce=   0.0000E+00  zforce=  -5.7026E+01   energy=   2.6748E-03   setid =     596 xmoment=   0.0000E+00 ymoment=   0.0000E+00 zmoment=   0.0000E+00
 nd#     599  xforce=   0.0000E+00   yforce=   0.0000E+00  zforce=  -4.6363E+01   energy=   2.3987E-03   setid =     599 xmoment=   0.0000E+00 ymoment=   0.0000E+00 zmoment=   0.0000E+00
 nd#     600  xforce=   0.0000E+00   yforce=   0.0000E+00  zforce=  -5.3967E+01   energy=   2.6760E-03   setid =     600 xmoment=   0.0000E+00 ymoment=   0.0000E+00 zmoment=   0.0000E+00
 nd#     603  xforce=   0.0000E+00   yforce=   0.0000E+00  zforce=  -3.4556E+01   energy=   1.3383E-03   setid =     603 xmoment=   0.0000E+00 ymoment=   0.0000E+00 zmoment=   0.0000E+00
 nd#     604  xforce=   0.0000E+00   yforce=   0.0000E+00  zforce=  -3.2096E+01   energy=   1.3674E-03   setid =     604 xmoment=   0.0000E+00 ymoment=   0.0000E+00 zmoment=   0.0000E+00
 nd#     638  xforce=   0.0000E+00   yforce=   0.0000E+00  zforce=  -4.1293E+01   energy=   2.3620E-03   setid =     638 xmoment=   0.0000E+00 ymoment=   0.0000E+00 zmoment=   0.0000E+00
 nd#     639  xforce=   0.0000E+00   yforce=   0.0000E+00  zforce=  -3.1038E+01   energy=   2.1649E-03   setid =     639 xmoment=   0.0000E+00 ymoment=   0.0000E+00 zmoment=   0.0000E+00
 nd#     641  xforce=   0.0000E+00   yforce=   0.0000E+00  zforce=  -5.7931E+01   energy=   2.7776E-03   setid =     641 xmoment=   0.0000E+00 ymoment=   0.0000E+00 zmoment=   0.0000E+00
 nd#     642  xforce=   0.0000E+00   yforce=   0.0000E+00  zforce=  -4.3485E+01   energy=   2.7195E-03   setid =     642 xmoment=   0.0000E+00 ymoment=   0.0000E+00 zmoment=   0.0000E+00
 nd#     644  xforce=   0.0000E+00   yforce=   0.0000E+00  zforce=  -6.5061E+01   energy=   3.0154E-03   setid =     644 xmoment=   0.0000E+00 ymoment=   0.0000E+00 zmoment=   0.0000E+00
 nd#     645  xforce=   0.0000E+00   yforce=   0.0000E+00  zforce=  -5.7895E+01   energy=   2.9677E-03   setid =     645 xmoment=   0.0000E+00 ymoment=   0.0000E+00 zmoment=   0.0000E+00
 nd#     647  xforce=   0.0000E+00   yforce=   0.0000E+00  zforce=  -2.3436E+01   energy=   1.1593E-03   setid =     647 xmoment=   0.0000E+00 ymoment=   0.0000E+00 zmoment=   0.0000E+00
 nd#     648  xforce=   0.0000E+00   yforce=   0.0000E+00  zforce=  -6.8422E+00   energy=   7.8588E-04   setid =     648 xmoment=   0.0000E+00 ymoment=   0.0000E+00 zmoment=   0.0000E+00
 nd#     674  xforce=   0.0000E+00   yforce=   0.0000E+00  zforce=  -2.1546E+01   energy=   1.7342E-03   setid =     674 xmoment=   0.0000E+00 ymoment=   0.0000E+00 zmoment=   0.0000E+00
 nd#     676  xforce=   0.0000E+00   yforce=   0.0000E+00  zforce=  -6.0576E+01   energy=   2.5362E-03   setid =     676 xmoment=   0.0000E+00 ymoment=   0.0000E+00 zmoment=   0.0000E+00
 nd#     678  xforce=   0.0000E+00   yforce=   0.0000E+00  zforce=  -3.4943E+01   energy=   2.2959E-03   setid =     678 xmoment=   0.0000E+00 ymoment=   0.0000E+00 zmoment=   0.0000E+00
 nd#     680  xforce=   0.0000E+00   yforce=   0.0000E+00  zforce=  -3.8280E+01   energy=   1.4025E-03   setid =     680 xmoment=   0.0000E+00 ymoment=   0.0000E+00 zmoment=   0.0000E+00
 nd#     821  xforce=   0.0000E+00   yforce=   0.0000E+00  zforce=  -3.8478E+01   energy=   2.2448E-03   setid =     821 xmoment=   0.0000E+00 ymoment=   0.0000E+00 zmoment=   0.0000E+00
 nd#     822  xforce=   0.0000E+00   yforce=   0.0000E+00  zforce=  -5.7222E+01   energy=   2.7435E-03   setid =     822 xmoment=   0.0000E+00 ymoment=   0.0000E+00 zmoment=   0.0000E+00
 nd#     823  xforce=   0.0000E+00   yforce=   0.0000E+00  zforce=  -6.0304E+01   energy=   2.9196E-03   setid =     823 xmoment=   0.0000E+00 ymoment=   0.0000E+00 zmoment=   0.0000E+00
 nd#     824  xforce=   0.0000E+00   yforce=   0.0000E+00  zforce=  -2.9901E+01   energy=   1.3530E-03   setid =     824 xmoment=   0.0000E+00 ymoment=   0.0000E+00 zmoment=   0.0000E+00
 nd#     850  xforce=   0.0000E+00   yforce=   0.0000E+00  zforce=   2.7057E+01   energy=  -6.6922E-04   setid =     850 xmoment=   0.0000E+00 ymoment=   0.0000E+00 zmoment=   0.0000E+00
 nd#     852  xforce=   0.0000E+00   yforce=   0.0000E+00  zforce=   2.7377E+01   energy=  -8.6884E-04   setid =     852 xmoment=   0.0000E+00 ymoment=   0.0000E+00 zmoment=   0.0000E+00
 nd#     854  xforce=   0.0000E+00   yforce=   0.0000E+00  zforce=   5.4895E+01   energy=  -1.9606E-03   setid =     854 xmoment=   0.0000E+00 ymoment=   0.0000E+00 zmoment=   0.0000E+00
 nd#     856  xforce=   0.0000E+00   yforce=   0.0000E+00  zforce=   1.2659E+01   energy=  -1.0228E-03   setid =     856 xmoment=   0.0000E+00 ymoment=   0.0000E+00 zmoment=   0.0000E+00
              xtotal=   0.0000E+00   ytotal=   0.0000E+00  ztotal=  -2.1339E+03   etotal=   1.0511E-01

 n o d a l   f o r c e/e n e r g y    o u t p u t  t=   4.32969E+00

 velocity boundary condition forces/rigid body moments 

 nd#     220  xforce=   0.0000E+00   yforce=   0.0000E+00  zforce=  -1.1461E+02   energy=   4.6863E-03   setid =     220 xmoment=   0.0000E+00 ymoment=   0.0000E+00 zmoment=   0.0000E+00
 nd#     221  xforce=   0.0000E+00   yforce=   0.0000E+00  zforce=  -7.1613E+01   energy=   3.6702E-03   setid =     221 xmoment=   0.0000E+00 ymoment=   0.0000E+00 zmoment=   0.0000E+00
 nd#     222  xforce=   0.0000E+00   yforce=   0.0000E+00  zforce=  -5.5602E+01   energy=   4.4907E-03   setid =     222 xmoment=   0.0000E+00 ymoment=   0.0000E+00 zmoment=   0.0000E+00
 nd#     223  xforce=   0.0000E+00   yforce=   0.0000E+00  zforce=  -7.0130E+01   energy=   3.7380E-03   setid =     223 xmoment=   0.0000E+00 ymoment=   0.0000E+00 zmoment=   0.0000E+00
 nd#     248  xforce=   0.0000E+00   yforce=   0.0000E+00  zforce=  -4.1627E+01   energy=   3.7719E-03   setid =     248 xmoment=   0.0000E+00 ymoment=   0.0000E+00 zmoment=   0.0000E+00
 nd#     249  xforce=   0.0000E+00   yforce=   0.0000E+00  zforce=  -3.1385E+01   energy=   2.2926E-03   setid =     249 xmoment=   0.0000E+00 ymoment=   0.0000E+00 zmoment=   0.0000E+00
 nd#     286  xforce=   0.0000E+00   yforce=   0.0000E+00  zforce=   2.9443E+02   energy=  -6.5184E-03   setid =     286 xmoment=   0.0000E+00 ymoment=   0.0000E+00 zmoment=   0.0000E+00
 nd#     287  xforce=   0.0000E+00   yforce=   0.0000E+00  zforce=  -6.0615E+01   energy=   3.9475E-03   setid =     287 xmoment=   0.0000E+00 ymoment=   0.0000E+00 zmoment=   0.0000E+00
 nd#     288  xforce=   0.0000E+00   yforce=   0.0000E+00  zforce=   8.5561E+01   energy=  -2.3846E-05   setid =     288 xmoment=   0.0000E+00 ymoment=   0.0000E+00 zmoment=   0.0000E+00
 nd#     301  xforce=   0.0000E+00   yforce=   0.0000E+00  zforce=  -1.5471E+02   energy=   8.1616E-03   setid =     301 xmoment=   0.0000E+00 ymoment=   0.0000E+00 zmoment=   0.0000E+00
 nd#     314  xforce=   0.0000E+00   yforce=   0.0000E+00  zforce=  -6.4603E+01   energy=   4.6002E-03   setid =     314 xmoment=   0.0000E+00 ymoment=   0.0000E+00 zmoment=   0.0000E+00
 nd#     363  xforce=   0.0000E+00   yforce=   0.0000E+00  zforce=   3.4388E+00   energy=   2.3016E-03   setid =     363 xmoment=   0.0000E+00 ymoment=   0.0000E+00 zmoment=   0.0000E+00
 nd#     364  xforce=   0.0000E+00   yforce=   0.0000E+00  zforce=  -2.2823E+01   energy=   3.8887E-03   setid =     364 xmoment=   0.0000E+00 ymoment=   0.0000E+00 zmoment=   0.0000E+00
 nd#     365  xforce=   0.0000E+00   yforce=   0.0000E+00  zforce=  -1.7448E+02   energy=   7.7476E-03   setid =     365 xmoment=   0.0000E+00 ymoment=   0.0000E+00 zmoment=   0.0000E+00
 nd#     366  xforce=   0.0000E+00   yforce=   0.0000E+00  zforce=  -6.8826E+01   energy=   3.7631E-03   setid =     366 xmoment=   0.0000E+00 ymoment=   0.0000E+00 zmoment=   0.0000E+00
 nd#     379  xforce=   0.0000E+00   yforce=   0.0000E+00  zforce=  -3.0981E+01   energy=   2.9943E-03   setid =     379 xmoment=   0.0000E+00 ymoment=   0.0000E+00 zmoment=   0.0000E+00
 nd#     404  xforce=   0.0000E+00   yforce=   0.0000E+00  zforce=  -2.5673E+02   energy=   9.6757E-03   setid =     404 xmoment=   0.0000E+00 ymoment=   0.0000E+00 zmoment=   0.0000E+00
 nd#     405  xforce=   0.0000E+00   yforce=   0.0000E+00  zforce=  -1.6162E+02   energy=   6.2796E-03   setid =     405 xmoment=   0.0000E+00 ymoment=   0.0000E+00 zmoment=   0.0000E+00
 nd#     418  xforce=   0.0000E+00   yforce=   0.0000E+00  zforce=  -1.2663E+02   energy=   6.1790E-03   setid =     418 xmoment=   0.0000E+00 ymoment=   0.0000E+00 zmoment=   0.0000E+00
 nd#     438  xforce=   0.0000E+00   yforce=   0.0000E+00  zforce=   4.7857E+00   energy=  -1.5973E-04   setid =     438 xmoment=   0.0000E+00 ymoment=   0.0000E+00 zmoment=   0.0000E+00
 nd#     439  xforce=   0.0000E+00   yforce=   0.0000E+00  zforce=  -2.6024E+01   energy=   1.8087E-03   setid =     439 xmoment=   0.0000E+00 ymoment=   0.0000E+00 zmoment=   0.0000E+00
 nd#     440  xforce=   0.0000E+00   yforce=   0.0000E+00  zforce=  -3.3516E+01   energy=   2.0900E-03   setid =     440 xmoment=   0.0000E+00 ymoment=   0.0000E+00 zmoment=   0.0000E+00
 nd#     441  xforce=   0.0000E+00   yforce=   0.0000E+00  zforce=  -3.6753E+01   energy=   2.1884E-03   setid =     441 xmoment=   0.0000E+00 ymoment=   0.0000E+00 zmoment=   0.0000E+00
 nd#     442  xforce=   0.0000E+00   yforce=   0.0000E+00  zforce=  -3.9940E+01   energy=   2.2717E-03   setid =     442 xmoment=   0.0000E+00 ymoment=   0.0000E+00 zmoment=   0.0000E+00
 nd#     443  xforce=   0.0000E+00   yforce=   0.0000E+00  zforce=  -4.3528E+01   energy=   2.3927E-03   setid =     443 xmoment=   0.0000E+00 ymoment=   0.0000E+00 zmoment=   0.0000E+00
 nd#     444  xforce=   0.0000E+00   yforce=   0.0000E+00  zforce=  -4.6728E+01   energy=   2.4829E-03   setid =     444 xmoment=   0.0000E+00 ymoment=   0.0000E+00 zmoment=   0.0000E+00
 nd#     591  xforce=   0.0000E+00   yforce=   0.0000E+00  zforce=  -3.0324E+01   energy=   2.6429E-03   setid =     591 xmoment=   0.0000E+00 ymoment=   0.0000E+00 zmoment=   0.0000E+00
 nd#     592  xforce=   0.0000E+00   yforce=   0.0000E+00  zforce=  -3.4614E+01   energy=   2.8946E-03   setid =     592 xmoment=   0.0000E+00 ymoment=   0.0000E+00 zmoment=   0.0000E+00
 nd#     595  xforce=   0.0000E+00   yforce=   0.0000E+00  zforce=  -6.4102E+01   energy=   4.0835E-03   setid =     595 xmoment=   0.0000E+00 ymoment=   0.0000E+00 zmoment=   0.0000E+00
 nd#     596  xforce=   0.0000E+00   yforce=   0.0000E+00  zforce=  -6.0933E+01   energy=   4.0916E-03   setid =     596 xmoment=   0.0000E+00 ymoment=   0.0000E+00 zmoment=   0.0000E+00
 nd#     599  xforce=   0.0000E+00   yforce=   0.0000E+00  zforce=  -5.1419E+01   energy=   3.5770E-03   setid =     599 xmoment=   0.0000E+00 ymoment=   0.0000E+00 zmoment=   0.0000E+00
 nd#     600  xforce=   0.0000E+00   yforce=   0.0000E+00  zforce=  -5.9085E+01   energy=   4.0336E-03   setid =     600 xmoment=   0.0000E+00 ymoment=   0.0000E+00 zmoment=   0.0000E+00
 nd#     603  xforce=   0.0000E+00   yforce=   0.0000E+00  zforce=  -3.7639E+01   energy=   2.2116E-03   setid =     603 xmoment=   0.0000E+00 ymoment=   0.0000E+00 zmoment=   0.0000E+00
 nd#     604  xforce=   0.0000E+00   yforce=   0.0000E+00  zforce=  -3.4451E+01   energy=   2.1694E-03   setid =     604 xmoment=   0.0000E+00 ymoment=   0.0000E+00 zmoment=   0.0000E+00
 nd#     638  xforce=   0.0000E+00   yforce=   0.0000E+00  zforce=  -4.3896E+01   energy=   3.3856E-03   setid =     638 xmoment=   0.0000E+00 ymoment=   0.0000E+00 zmoment=   0.0000E+00
 nd#     639  xforce=   0.0000E+00   yforce=   0.0000E+00  zforce=  -3.3938E+01   energy=   2.9381E-03   setid =     639 xmoment=   0.0000E+00 ymoment=   0.0000E+00 zmoment=   0.0000E+00
 nd#     641  xforce=   0.0000E+00   yforce=   0.0000E+00  zforce=  -6.0972E+01   energy=   4.2036E-03   setid =     641 xmoment=   0.0000E+00 ymoment=   0.0000E+00 zmoment=   0.0000E+00
 nd#     642  xforce=   0.0000E+00   yforce=   0.0000E+00  zforce=  -4.8786E+01   energy=   3.8205E-03   setid =     642 xmoment=   0.0000E+00 ymoment=   0.0000E+00 zmoment=   0.0000E+00
 nd#     644  xforce=   0.0000E+00   yforce=   0.0000E+00  zforce=  -6.8667E+01   energy=   4.6147E-03   setid =     644 xmoment=   0.0000E+00 ymoment=   0.0000E+00 zmoment=   0.0000E+00
 nd#     645  xforce=   0.0000E+00   yforce=   0.0000E+00  zforce=  -6.3015E+01   energy=   4.4115E-03   setid =     645 xmoment=   0.0000E+00 ymoment=   0.0000E+00 zmoment=   0.0000E+00
 nd#     647  xforce=   0.0000E+00   yforce=   0.0000E+00  zforce=  -2.5729E+01   energy=   1.7516E-03   setid =     647 xmoment=   0.0000E+00 ymoment=   0.0000E+00 zmoment=   0.0000E+00
 nd#     648  xforce=   0.0000E+00   yforce=   0.0000E+00  zforce=  -8.8241E+00   energy=   9.6767E-04   setid =     648 xmoment=   0.0000E+00 ymoment=   0.0000E+00 zmoment=   0.0000E+00
 nd#     674  xforce=   0.0000E+00   yforce=   0.0000E+00  zforce=  -2.4808E+01   energy=   2.3206E-03   setid =     674 xmoment=   0.0000E+00 ymoment=   0.0000E+00 zmoment=   0.0000E+00
 nd#     676  xforce=   0.0000E+00   yforce=   0.0000E+00  zforce=  -6.4974E+01   energy=   4.0452E-03   setid =     676 xmoment=   0.0000E+00 ymoment=   0.0000E+00 zmoment=   0.0000E+00
 nd#     678  xforce=   0.0000E+00   yforce=   0.0000E+00  zforce=  -3.9984E+01   energy=   3.1846E-03   setid =     678 xmoment=   0.0000E+00 ymoment=   0.0000E+00 zmoment=   0.0000E+00
 nd#     680  xforce=   0.0000E+00   yforce=   0.0000E+00  zforce=  -3.8845E+01   energy=   2.3231E-03   setid =     680 xmoment=   0.0000E+00 ymoment=   0.0000E+00 zmoment=   0.0000E+00
 nd#     821  xforce=   0.0000E+00   yforce=   0.0000E+00  zforce=  -4.0206E+01   energy=   3.1881E-03   setid =     821 xmoment=   0.0000E+00 ymoment=   0.0000E+00 zmoment=   0.0000E+00
 nd#     822  xforce=   0.0000E+00   yforce=   0.0000E+00  zforce=  -6.0332E+01   energy=   4.1542E-03   setid =     822 xmoment=   0.0000E+00 ymoment=   0.0000E+00 zmoment=   0.0000E+00
 nd#     823  xforce=   0.0000E+00   yforce=   0.0000E+00  zforce=  -6.4816E+01   energy=   4.4162E-03   setid =     823 xmoment=   0.0000E+00 ymoment=   0.0000E+00 zmoment=   0.0000E+00
 nd#     824  xforce=   0.0000E+00   yforce=   0.0000E+00  zforce=  -3.2312E+01   energy=   2.1025E-03   setid =     824 xmoment=   0.0000E+00 ymoment=   0.0000E+00 zmoment=   0.0000E+00
 nd#     850  xforce=   0.0000E+00   yforce=   0.0000E+00  zforce=   3.0583E+01   energy=  -1.3716E-03   setid =     850 xmoment=   0.0000E+00 ymoment=   0.0000E+00 zmoment=   0.0000E+00
 nd#     852  xforce=   0.0000E+00   yforce=   0.0000E+00  zforce=   3.3538E+01   energy=  -1.6159E-03   setid =     852 xmoment=   0.0000E+00 ymoment=   0.0000E+00 zmoment=   0.0000E+00
 nd#     854  xforce=   0.0000E+00   yforce=   0.0000E+00  zforce=   6.2395E+01   energy=  -3.4098E-03   setid =     854 xmoment=   0.0000E+00 ymoment=   0.0000E+00 zmoment=   0.0000E+00
 nd#     856  xforce=   0.0000E+00   yforce=   0.0000E+00  zforce=   2.5612E+01   energy=  -1.5072E-03   setid =     856 xmoment=   0.0000E+00 ymoment=   0.0000E+00 zmoment=   0.0000E+00
              xtotal=   0.0000E+00   ytotal=   0.0000E+00  ztotal=  -2.2858E+03   etotal=   1.5835E-01

 n o d a l   f o r c e/e n e r g y    o u t p u t  t=   5.49284E+00

 velocity boundary condition forces/rigid body moments 

 nd#     220  xforce=   0.0000E+00   yforce=   0.0000E+00  zforce=  -7.7411E+01   energy=   6.9198E-03   setid =     220 xmoment=   0.0000E+00 ymoment=   0.0000E+00 zmoment=   0.0000E+00
 nd#     221  xforce=   0.0000E+00   yforce=   0.0000E+00  zforce=  -3.1379E+01   energy=   4.8681E-03   setid =     221 xmoment=   0.0000E+00 ymoment=   0.0000E+00 zmoment=   0.0000E+00
 nd#     222  xforce=   0.0000E+00   yforce=   0.0000E+00  zforce=  -6.2783E+01   energy=   5.8677E-03   setid =     222 xmoment=   0.0000E+00 ymoment=   0.0000E+00 zmoment=   0.0000E+00
 nd#     223  xforce=   0.0000E+00   yforce=   0.0000E+00  zforce=  -6.1396E+01   energy=   5.2678E-03   setid =     223 xmoment=   0.0000E+00 ymoment=   0.0000E+00 zmoment=   0.0000E+00
 nd#     248  xforce=   0.0000E+00   yforce=   0.0000E+00  zforce=  -5.8241E+01   energy=   4.9335E-03   setid =     248 xmoment=   0.0000E+00 ymoment=   0.0000E+00 zmoment=   0.0000E+00
 nd#     249  xforce=   0.0000E+00   yforce=   0.0000E+00  zforce=  -3.1330E+01   energy=   3.0221E-03   setid =     249 xmoment=   0.0000E+00 ymoment=   0.0000E+00 zmoment=   0.0000E+00
 nd#     286  xforce=   0.0000E+00   yforce=   0.0000E+00  zforce=   1.8047E+02   energy=  -1.2042E-02   setid =     286 xmoment=   0.0000E+00 ymoment=   0.0000E+00 zmoment=   0.0000E+00
 nd#     287  xforce=   0.0000E+00   yforce=   0.0000E+00  zforce=  -4.9070E+01   energy=   5.2233E-03   setid =     287 xmoment=   0.0000E+00 ymoment=   0.0000E+00 zmoment=   0.0000E+00
 nd#     288  xforce=   0.0000E+00   yforce=   0.0000E+00  zforce=  -7.1002E+00   energy=  -9.3647E-04   setid =     288 xmoment=   0.0000E+00 ymoment=   0.0000E+00 zmoment=   0.0000E+00
 nd#     301  xforce=   0.0000E+00   yforce=   0.0000E+00  zforce=  -1.3187E+02   energy=   1.1495E-02   setid =     301 xmoment=   0.0000E+00 ymoment=   0.0000E+00 zmoment=   0.0000E+00
 nd#     314  xforce=   0.0000E+00   yforce=   0.0000E+00  zforce=  -7.0325E+01   energy=   6.1696E-03   setid =     314 xmoment=   0.0000E+00 ymoment=   0.0000E+00 zmoment=   0.0000E+00
 nd#     363  xforce=   0.0000E+00   yforce=   0.0000E+00  zforce=  -2.8917E+01   energy=   2.5980E-03   setid =     363 xmoment=   0.0000E+00 ymoment=   0.0000E+00 zmoment=   0.0000E+00
 nd#     364  xforce=   0.0000E+00   yforce=   0.0000E+00  zforce=  -4.8630E+01   energy=   4.7198E-03   setid =     364 xmoment=   0.0000E+00 ymoment=   0.0000E+00 zmoment=   0.0000E+00
 nd#     365  xforce=   0.0000E+00   yforce=   0.0000E+00  zforce=  -1.1665E+02   energy=   1.1134E-02   setid =     365 xmoment=   0.0000E+00 ymoment=   0.0000E+00 zmoment=   0.0000E+00
 nd#     366  xforce=   0.0000E+00   yforce=   0.0000E+00  zforce=  -5.4443E+01   energy=   5.1969E-03   setid =     366 xmoment=   0.0000E+00 ymoment=   0.0000E+00 zmoment=   0.0000E+00
 nd#     379  xforce=   0.0000E+00   yforce=   0.0000E+00  zforce=  -7.5491E+01   energy=   4.2327E-03   setid =     379 xmoment=   0.0000E+00 ymoment=   0.0000E+00 zmoment=   0.0000E+00
 nd#     404  xforce=   0.0000E+00   yforce=   0.0000E+00  zforce=  -1.5515E+02   energy=   1.4467E-02   setid =     404 xmoment=   0.0000E+00 ymoment=   0.0000E+00 zmoment=   0.0000E+00
 nd#     405  xforce=   0.0000E+00   yforce=   0.0000E+00  zforce=  -1.0559E+02   energy=   9.3876E-03   setid =     405 xmoment=   0.0000E+00 ymoment=   0.0000E+00 zmoment=   0.0000E+00
 nd#     418  xforce=   0.0000E+00   yforce=   0.0000E+00  zforce=  -7.5842E+01   energy=   8.5341E-03   setid =     418 xmoment=   0.0000E+00 ymoment=   0.0000E+00 zmoment=   0.0000E+00
 nd#     438  xforce=   0.0000E+00   yforce=   0.0000E+00  zforce=   4.4698E+00   energy=  -2.6738E-04   setid =     438 xmoment=   0.0000E+00 ymoment=   0.0000E+00 zmoment=   0.0000E+00
 nd#     439  xforce=   0.0000E+00   yforce=   0.0000E+00  zforce=  -2.4154E+01   energy=   2.3923E-03   setid =     439 xmoment=   0.0000E+00 ymoment=   0.0000E+00 zmoment=   0.0000E+00
 nd#     440  xforce=   0.0000E+00   yforce=   0.0000E+00  zforce=  -2.9930E+01   energy=   2.8280E-03   setid =     440 xmoment=   0.0000E+00 ymoment=   0.0000E+00 zmoment=   0.0000E+00
 nd#     441  xforce=   0.0000E+00   yforce=   0.0000E+00  zforce=  -3.1971E+01   energy=   2.9878E-03   setid =     441 xmoment=   0.0000E+00 ymoment=   0.0000E+00 zmoment=   0.0000E+00
 nd#     442  xforce=   0.0000E+00   yforce=   0.0000E+00  zforce=  -3.3264E+01   energy=   3.1232E-03   setid =     442 xmoment=   0.0000E+00 ymoment=   0.0000E+00 zmoment=   0.0000E+00
 nd#     443  xforce=   0.0000E+00   yforce=   0.0000E+00  zforce=  -3.4722E+01   energy=   3.3029E-03   setid =     443 xmoment=   0.0000E+00 ymoment=   0.0000E+00 zmoment=   0.0000E+00
 nd#     444  xforce=   0.0000E+00   yforce=   0.0000E+00  zforce=  -3.8253E+01   energy=   3.4714E-03   setid =     444 xmoment=   0.0000E+00 ymoment=   0.0000E+00 zmoment=   0.0000E+00
 nd#     591  xforce=   0.0000E+00   yforce=   0.0000E+00  zforce=  -3.5944E+01   energy=   3.4137E-03   setid =     591 xmoment=   0.0000E+00 ymoment=   0.0000E+00 zmoment=   0.0000E+00
 nd#     592  xforce=   0.0000E+00   yforce=   0.0000E+00  zforce=  -3.9692E+01   energy=   3.7589E-03   setid =     592 xmoment=   0.0000E+00 ymoment=   0.0000E+00 zmoment=   0.0000E+00
 nd#     595  xforce=   0.0000E+00   yforce=   0.0000E+00  zforce=  -6.0112E+01   energy=   5.5283E-03   setid =     595 xmoment=   0.0000E+00 ymoment=   0.0000E+00 zmoment=   0.0000E+00
 nd#     596  xforce=   0.0000E+00   yforce=   0.0000E+00  zforce=  -5.8749E+01   energy=   5.4836E-03   setid =     596 xmoment=   0.0000E+00 ymoment=   0.0000E+00 zmoment=   0.0000E+00
 nd#     599  xforce=   0.0000E+00   yforce=   0.0000E+00  zforce=  -5.2785E+01   energy=   4.7891E-03   setid =     599 xmoment=   0.0000E+00 ymoment=   0.0000E+00 zmoment=   0.0000E+00
 nd#     600  xforce=   0.0000E+00   yforce=   0.0000E+00  zforce=  -5.7999E+01   energy=   5.3955E-03   setid =     600 xmoment=   0.0000E+00 ymoment=   0.0000E+00 zmoment=   0.0000E+00
 nd#     603  xforce=   0.0000E+00   yforce=   0.0000E+00  zforce=  -3.4687E+01   energy=   3.0529E-03   setid =     603 xmoment=   0.0000E+00 ymoment=   0.0000E+00 zmoment=   0.0000E+00
 nd#     604  xforce=   0.0000E+00   yforce=   0.0000E+00  zforce=  -3.1181E+01   energy=   2.9328E-03   setid =     604 xmoment=   0.0000E+00 ymoment=   0.0000E+00 zmoment=   0.0000E+00
 nd#     638  xforce=   0.0000E+00   yforce=   0.0000E+00  zforce=  -4.6784E+01   energy=   4.4403E-03   setid =     638 xmoment=   0.0000E+00 ymoment=   0.0000E+00 zmoment=   0.0000E+00
 nd#     639  xforce=   0.0000E+00   yforce=   0.0000E+00  zforce=  -3.7482E+01   energy=   3.7688E-03   setid =     639 xmoment=   0.0000E+00 ymoment=   0.0000E+00 zmoment=   0.0000E+00
 nd#     641  xforce=   0.0000E+00   yforce=   0.0000E+00  zforce=  -6.0519E+01   energy=   5.6167E-03   setid =     641 xmoment=   0.0000E+00 ymoment=   0.0000E+00 zmoment=   0.0000E+00
 nd#     642  xforce=   0.0000E+00   yforce=   0.0000E+00  zforce=  -5.1054E+01   energy=   4.9818E-03   setid =     642 xmoment=   0.0000E+00 ymoment=   0.0000E+00 zmoment=   0.0000E+00
 nd#     644  xforce=   0.0000E+00   yforce=   0.0000E+00  zforce=  -6.7027E+01   energy=   6.1930E-03   setid =     644 xmoment=   0.0000E+00 ymoment=   0.0000E+00 zmoment=   0.0000E+00
 nd#     645  xforce=   0.0000E+00   yforce=   0.0000E+00  zforce=  -6.1168E+01   energy=   5.8559E-03   setid =     645 xmoment=   0.0000E+00 ymoment=   0.0000E+00 zmoment=   0.0000E+00
 nd#     647  xforce=   0.0000E+00   yforce=   0.0000E+00  zforce=  -2.3535E+01   energy=   2.3246E-03   setid =     647 xmoment=   0.0000E+00 ymoment=   0.0000E+00 zmoment=   0.0000E+00
 nd#     648  xforce=   0.0000E+00   yforce=   0.0000E+00  zforce=  -7.0659E+00   energy=   1.1525E-03   setid =     648 xmoment=   0.0000E+00 ymoment=   0.0000E+00 zmoment=   0.0000E+00
 nd#     674  xforce=   0.0000E+00   yforce=   0.0000E+00  zforce=  -3.4624E+01   energy=   3.0119E-03   setid =     674 xmoment=   0.0000E+00 ymoment=   0.0000E+00 zmoment=   0.0000E+00
 nd#     676  xforce=   0.0000E+00   yforce=   0.0000E+00  zforce=  -5.9788E+01   energy=   5.4964E-03   setid =     676 xmoment=   0.0000E+00 ymoment=   0.0000E+00 zmoment=   0.0000E+00
 nd#     678  xforce=   0.0000E+00   yforce=   0.0000E+00  zforce=  -4.3117E+01   energy=   4.1511E-03   setid =     678 xmoment=   0.0000E+00 ymoment=   0.0000E+00 zmoment=   0.0000E+00
 nd#     680  xforce=   0.0000E+00   yforce=   0.0000E+00  zforce=  -3.4654E+01   energy=   3.1780E-03   setid =     680 xmoment=   0.0000E+00 ymoment=   0.0000E+00 zmoment=   0.0000E+00
 nd#     821  xforce=   0.0000E+00   yforce=   0.0000E+00  zforce=  -4.4402E+01   energy=   4.1723E-03   setid =     821 xmoment=   0.0000E+00 ymoment=   0.0000E+00 zmoment=   0.0000E+00
 nd#     822  xforce=   0.0000E+00   yforce=   0.0000E+00  zforce=  -5.9257E+01   energy=   5.5452E-03   setid =     822 xmoment=   0.0000E+00 ymoment=   0.0000E+00 zmoment=   0.0000E+00
 nd#     823  xforce=   0.0000E+00   yforce=   0.0000E+00  zforce=  -6.3573E+01   energy=   5.9096E-03   setid =     823 xmoment=   0.0000E+00 ymoment=   0.0000E+00 zmoment=   0.0000E+00
 nd#     824  xforce=   0.0000E+00   yforce=   0.0000E+00  zforce=  -3.0022E+01   energy=   2.8275E-03   setid =     824 xmoment=   0.0000E+00 ymoment=   0.0000E+00 zmoment=   0.0000E+00
 nd#     850  xforce=   0.0000E+00   yforce=   0.0000E+00  zforce=   2.6168E+01   energy=  -2.0317E-03   setid =     850 xmoment=   0.0000E+00 ymoment=   0.0000E+00 zmoment=   0.0000E+00
 nd#     852  xforce=   0.0000E+00   yforce=   0.0000E+00  zforce=   3.1464E+01   energy=  -2.3720E-03   setid =     852 xmoment=   0.0000E+00 ymoment=   0.0000E+00 zmoment=   0.0000E+00
 nd#     854  xforce=   0.0000E+00   yforce=   0.0000E+00  zforce=   6.0884E+01   energy=  -4.8437E-03   setid =     854 xmoment=   0.0000E+00 ymoment=   0.0000E+00 zmoment=   0.0000E+00
 nd#     856  xforce=   0.0000E+00   yforce=   0.0000E+00  zforce=   2.5622E+01   energy=  -2.1031E-03   setid =     856 xmoment=   0.0000E+00 ymoment=   0.0000E+00 zmoment=   0.0000E+00
              xtotal=   0.0000E+00   ytotal=   0.0000E+00  ztotal=  -2.2001E+03   etotal=   2.1053E-01

 n o d a l   f o r c e/e n e r g y    o u t p u t  t=   6.65600E+00

 velocity boundary condition forces/rigid body moments 

 nd#     220  xforce=   0.0000E+00   yforce=   0.0000E+00  zforce=  -7.4548E+01   energy=   8.6874E-03   setid =     220 xmoment=   0.0000E+00 ymoment=   0.0000E+00 zmoment=   0.0000E+00
 nd#     221  xforce=   0.0000E+00   yforce=   0.0000E+00  zforce=  -4.2421E+01   energy=   5.7265E-03   setid =     221 xmoment=   0.0000E+00 ymoment=   0.0000E+00 zmoment=   0.0000E+00
 nd#     222  xforce=   0.0000E+00   yforce=   0.0000E+00  zforce=  -5.7120E+01   energy=   7.2624E-03   setid =     222 xmoment=   0.0000E+00 ymoment=   0.0000E+00 zmoment=   0.0000E+00
 nd#     223  xforce=   0.0000E+00   yforce=   0.0000E+00  zforce=  -5.3669E+01   energy=   6.6062E-03   setid =     223 xmoment=   0.0000E+00 ymoment=   0.0000E+00 zmoment=   0.0000E+00
 nd#     248  xforce=   0.0000E+00   yforce=   0.0000E+00  zforce=  -5.1746E+01   energy=   6.2128E-03   setid =     248 xmoment=   0.0000E+00 ymoment=   0.0000E+00 zmoment=   0.0000E+00
 nd#     249  xforce=   0.0000E+00   yforce=   0.0000E+00  zforce=  -2.6170E+01   energy=   3.6909E-03   setid =     249 xmoment=   0.0000E+00 ymoment=   0.0000E+00 zmoment=   0.0000E+00
 nd#     286  xforce=   0.0000E+00   yforce=   0.0000E+00  zforce=   1.7065E+02   energy=  -1.6126E-02   setid =     286 xmoment=   0.0000E+00 ymoment=   0.0000E+00 zmoment=   0.0000E+00
 nd#     287  xforce=   0.0000E+00   yforce=   0.0000E+00  zforce=  -5.7321E+01   energy=   6.4608E-03   setid =     287 xmoment=   0.0000E+00 ymoment=   0.0000E+00 zmoment=   0.0000E+00
 nd#     288  xforce=   0.0000E+00   yforce=   0.0000E+00  zforce=   9.3151E+00   energy=  -9.6223E-04   setid =     288 xmoment=   0.0000E+00 ymoment=   0.0000E+00 zmoment=   0.0000E+00
 nd#     301  xforce=   0.0000E+00   yforce=   0.0000E+00  zforce=  -1.3375E+02   energy=   1.4584E-02   setid =     301 xmoment=   0.0000E+00 ymoment=   0.0000E+00 zmoment=   0.0000E+00
 nd#     314  xforce=   0.0000E+00   yforce=   0.0000E+00  zforce=  -6.1488E+01   energy=   7.7028E-03   setid =     314 xmoment=   0.0000E+00 ymoment=   0.0000E+00 zmoment=   0.0000E+00
 nd#     363  xforce=   0.0000E+00   yforce=   0.0000E+00  zforce=  -2.4363E+01   energy=   3.2177E-03   setid =     363 xmoment=   0.0000E+00 ymoment=   0.0000E+00 zmoment=   0.0000E+00
 nd#     364  xforce=   0.0000E+00   yforce=   0.0000E+00  zforce=  -5.6382E+01   energy=   5.9412E-03   setid =     364 xmoment=   0.0000E+00 ymoment=   0.0000E+00 zmoment=   0.0000E+00
 nd#     365  xforce=   0.0000E+00   yforce=   0.0000E+00  zforce=  -1.1634E+02   energy=   1.3844E-02   setid =     365 xmoment=   0.0000E+00 ymoment=   0.0000E+00 zmoment=   0.0000E+00
 nd#     366  xforce=   0.0000E+00   yforce=   0.0000E+00  zforce=  -4.8488E+01   energy=   6.3941E-03   setid =     366 xmoment=   0.0000E+00 ymoment=   0.0000E+00 zmoment=   0.0000E+00
 nd#     379  xforce=   0.0000E+00   yforce=   0.0000E+00  zforce=  -5.9757E+01   energy=   5.8059E-03   setid =     379 xmoment=   0.0000E+00 ymoment=   0.0000E+00 zmoment=   0.0000E+00
 nd#     404  xforce=   0.0000E+00   yforce=   0.0000E+00  zforce=  -1.4525E+02   energy=   1.7961E-02   setid =     404 xmoment=   0.0000E+00 ymoment=   0.0000E+00 zmoment=   0.0000E+00
 nd#     405  xforce=   0.0000E+00   yforce=   0.0000E+00  zforce=  -1.0091E+02   energy=   1.1790E-02   setid =     405 xmoment=   0.0000E+00 ymoment=   0.0000E+00 zmoment=   0.0000E+00
 nd#     418  xforce=   0.0000E+00   yforce=   0.0000E+00  zforce=  -7.1277E+01   energy=   1.0245E-02   setid =     418 xmoment=   0.0000E+00 ymoment=   0.0000E+00 zmoment=   0.0000E+00
 nd#     438  xforce=   0.0000E+00   yforce=   0.0000E+00  zforce=   3.6513E+00   energy=  -3.6185E-04   setid =     438 xmoment=   0.0000E+00 ymoment=   0.0000E+00 zmoment=   0.0000E+00
 nd#     439  xforce=   0.0000E+00   yforce=   0.0000E+00  zforce=  -2.3447E+01   energy=   2.9460E-03   setid =     439 xmoment=   0.0000E+00 ymoment=   0.0000E+00 zmoment=   0.0000E+00
 nd#     440  xforce=   0.0000E+00   yforce=   0.0000E+00  zforce=  -2.8936E+01   energy=   3.5127E-03   setid =     440 xmoment=   0.0000E+00 ymoment=   0.0000E+00 zmoment=   0.0000E+00
 nd#     441  xforce=   0.0000E+00   yforce=   0.0000E+00  zforce=  -3.0470E+01   energy=   3.7140E-03   setid =     441 xmoment=   0.0000E+00 ymoment=   0.0000E+00 zmoment=   0.0000E+00
 nd#     442  xforce=   0.0000E+00   yforce=   0.0000E+00  zforce=  -3.2090E+01   energy=   3.8833E-03   setid =     442 xmoment=   0.0000E+00 ymoment=   0.0000E+00 zmoment=   0.0000E+00
 nd#     443  xforce=   0.0000E+00   yforce=   0.0000E+00  zforce=  -3.4231E+01   energy=   4.1049E-03   setid =     443 xmoment=   0.0000E+00 ymoment=   0.0000E+00 zmoment=   0.0000E+00
 nd#     444  xforce=   0.0000E+00   yforce=   0.0000E+00  zforce=  -3.5926E+01   energy=   4.3342E-03   setid =     444 xmoment=   0.0000E+00 ymoment=   0.0000E+00 zmoment=   0.0000E+00
 nd#     591  xforce=   0.0000E+00   yforce=   0.0000E+00  zforce=  -3.7036E+01   energy=   4.2625E-03   setid =     591 xmoment=   0.0000E+00 ymoment=   0.0000E+00 zmoment=   0.0000E+00
 nd#     592  xforce=   0.0000E+00   yforce=   0.0000E+00  zforce=  -3.9265E+01   energy=   4.6773E-03   setid =     592 xmoment=   0.0000E+00 ymoment=   0.0000E+00 zmoment=   0.0000E+00
 nd#     595  xforce=   0.0000E+00   yforce=   0.0000E+00  zforce=  -5.6269E+01   energy=   6.8820E-03   setid =     595 xmoment=   0.0000E+00 ymoment=   0.0000E+00 zmoment=   0.0000E+00
 nd#     596  xforce=   0.0000E+00   yforce=   0.0000E+00  zforce=  -5.5182E+01   energy=   6.8088E-03   setid =     596 xmoment=   0.0000E+00 ymoment=   0.0000E+00 zmoment=   0.0000E+00
 nd#     599  xforce=   0.0000E+00   yforce=   0.0000E+00  zforce=  -5.0001E+01   energy=   5.9846E-03   setid =     599 xmoment=   0.0000E+00 ymoment=   0.0000E+00 zmoment=   0.0000E+00
 nd#     600  xforce=   0.0000E+00   yforce=   0.0000E+00  zforce=  -5.5470E+01   energy=   6.7153E-03   setid =     600 xmoment=   0.0000E+00 ymoment=   0.0000E+00 zmoment=   0.0000E+00
 nd#     603  xforce=   0.0000E+00   yforce=   0.0000E+00  zforce=  -3.2611E+01   energy=   3.8357E-03   setid =     603 xmoment=   0.0000E+00 ymoment=   0.0000E+00 zmoment=   0.0000E+00
 nd#     604  xforce=   0.0000E+00   yforce=   0.0000E+00  zforce=  -2.9336E+01   energy=   3.6367E-03   setid =     604 xmoment=   0.0000E+00 ymoment=   0.0000E+00 zmoment=   0.0000E+00
 nd#     638  xforce=   0.0000E+00   yforce=   0.0000E+00  zforce=  -4.6419E+01   energy=   5.5244E-03   setid =     638 xmoment=   0.0000E+00 ymoment=   0.0000E+00 zmoment=   0.0000E+00
 nd#     639  xforce=   0.0000E+00   yforce=   0.0000E+00  zforce=  -3.7387E+01   energy=   4.6397E-03   setid =     639 xmoment=   0.0000E+00 ymoment=   0.0000E+00 zmoment=   0.0000E+00
 nd#     641  xforce=   0.0000E+00   yforce=   0.0000E+00  zforce=  -5.8719E+01   energy=   7.0036E-03   setid =     641 xmoment=   0.0000E+00 ymoment=   0.0000E+00 zmoment=   0.0000E+00
 nd#     642  xforce=   0.0000E+00   yforce=   0.0000E+00  zforce=  -5.0970E+01   energy=   6.1685E-03   setid =     642 xmoment=   0.0000E+00 ymoment=   0.0000E+00 zmoment=   0.0000E+00
 nd#     644  xforce=   0.0000E+00   yforce=   0.0000E+00  zforce=  -6.5047E+01   energy=   7.7292E-03   setid =     644 xmoment=   0.0000E+00 ymoment=   0.0000E+00 zmoment=   0.0000E+00
 nd#     645  xforce=   0.0000E+00   yforce=   0.0000E+00  zforce=  -6.0623E+01   energy=   7.2725E-03   setid =     645 xmoment=   0.0000E+00 ymoment=   0.0000E+00 zmoment=   0.0000E+00
 nd#     647  xforce=   0.0000E+00   yforce=   0.0000E+00  zforce=  -2.2241E+01   energy=   2.8571E-03   setid =     647 xmoment=   0.0000E+00 ymoment=   0.0000E+00 zmoment=   0.0000E+00
 nd#     648  xforce=   0.0000E+00   yforce=   0.0000E+00  zforce=  -6.6715E+00   energy=   1.3123E-03   setid =     648 xmoment=   0.0000E+00 ymoment=   0.0000E+00 zmoment=   0.0000E+00
 nd#     674  xforce=   0.0000E+00   yforce=   0.0000E+00  zforce=  -3.6166E+01   energy=   3.8353E-03   setid =     674 xmoment=   0.0000E+00 ymoment=   0.0000E+00 zmoment=   0.0000E+00
 nd#     676  xforce=   0.0000E+00   yforce=   0.0000E+00  zforce=  -5.8300E+01   energy=   6.8699E-03   setid =     676 xmoment=   0.0000E+00 ymoment=   0.0000E+00 zmoment=   0.0000E+00
 nd#     678  xforce=   0.0000E+00   yforce=   0.0000E+00  zforce=  -4.3150E+01   energy=   5.1546E-03   setid =     678 xmoment=   0.0000E+00 ymoment=   0.0000E+00 zmoment=   0.0000E+00
 nd#     680  xforce=   0.0000E+00   yforce=   0.0000E+00  zforce=  -3.4136E+01   energy=   3.9781E-03   setid =     680 xmoment=   0.0000E+00 ymoment=   0.0000E+00 zmoment=   0.0000E+00
 nd#     821  xforce=   0.0000E+00   yforce=   0.0000E+00  zforce=  -4.3663E+01   energy=   5.1966E-03   setid =     821 xmoment=   0.0000E+00 ymoment=   0.0000E+00 zmoment=   0.0000E+00
 nd#     822  xforce=   0.0000E+00   yforce=   0.0000E+00  zforce=  -5.6485E+01   energy=   6.8915E-03   setid =     822 xmoment=   0.0000E+00 ymoment=   0.0000E+00 zmoment=   0.0000E+00
 nd#     823  xforce=   0.0000E+00   yforce=   0.0000E+00  zforce=  -6.0758E+01   energy=   7.3558E-03   setid =     823 xmoment=   0.0000E+00 ymoment=   0.0000E+00 zmoment=   0.0000E+00
 nd#     824  xforce=   0.0000E+00   yforce=   0.0000E+00  zforce=  -2.8209E+01   energy=   3.5049E-03   setid =     824 xmoment=   0.0000E+00 ymoment=   0.0000E+00 zmoment=   0.0000E+00
 nd#     850  xforce=   0.0000E+00   yforce=   0.0000E+00  zforce=   2.2830E+01   energy=  -2.6016E-03   setid =     850 xmoment=   0.0000E+00 ymoment=   0.0000E+00 zmoment=   0.0000E+00
 nd#     852  xforce=   0.0000E+00   yforce=   0.0000E+00  zforce=   2.9673E+01   energy=  -3.0831E-03   setid =     852 xmoment=   0.0000E+00 ymoment=   0.0000E+00 zmoment=   0.0000E+00
 nd#     854  xforce=   0.0000E+00   yforce=   0.0000E+00  zforce=   5.3351E+01   energy=  -6.1724E-03   setid =     854 xmoment=   0.0000E+00 ymoment=   0.0000E+00 zmoment=   0.0000E+00
 nd#     856  xforce=   0.0000E+00   yforce=   0.0000E+00  zforce=   2.3031E+01   energy=  -2.6690E-03   setid =     856 xmoment=   0.0000E+00 ymoment=   0.0000E+00 zmoment=   0.0000E+00
              xtotal=   0.0000E+00   ytotal=   0.0000E+00  ztotal=  -2.1177E+03   etotal=   2.6075E-01

 n o d a l   f o r c e/e n e r g y    o u t p u t  t=   7.81915E+00

 velocity boundary condition forces/rigid body moments 

 nd#     220  xforce=   0.0000E+00   yforce=   0.0000E+00  zforce=  -5.9956E+01   energy=   1.0252E-02   setid =     220 xmoment=   0.0000E+00 ymoment=   0.0000E+00 zmoment=   0.0000E+00
 nd#     221  xforce=   0.0000E+00   yforce=   0.0000E+00  zforce=  -2.7003E+01   energy=   6.5340E-03   setid =     221 xmoment=   0.0000E+00 ymoment=   0.0000E+00 zmoment=   0.0000E+00
 nd#     222  xforce=   0.0000E+00   yforce=   0.0000E+00  zforce=  -5.4707E+01   energy=   8.5631E-03   setid =     222 xmoment=   0.0000E+00 ymoment=   0.0000E+00 zmoment=   0.0000E+00
 nd#     223  xforce=   0.0000E+00   yforce=   0.0000E+00  zforce=  -4.8143E+01   energy=   7.7905E-03   setid =     223 xmoment=   0.0000E+00 ymoment=   0.0000E+00 zmoment=   0.0000E+00
 nd#     248  xforce=   0.0000E+00   yforce=   0.0000E+00  zforce=  -5.0873E+01   energy=   7.4064E-03   setid =     248 xmoment=   0.0000E+00 ymoment=   0.0000E+00 zmoment=   0.0000E+00
 nd#     249  xforce=   0.0000E+00   yforce=   0.0000E+00  zforce=  -2.2258E+01   energy=   4.2542E-03   setid =     249 xmoment=   0.0000E+00 ymoment=   0.0000E+00 zmoment=   0.0000E+00
 nd#     286  xforce=   0.0000E+00   yforce=   0.0000E+00  zforce=   1.5131E+02   energy=  -1.9871E-02   setid =     286 xmoment=   0.0000E+00 ymoment=   0.0000E+00 zmoment=   0.0000E+00
 nd#     287  xforce=   0.0000E+00   yforce=   0.0000E+00  zforce=  -4.3657E+01   energy=   7.6353E-03   setid =     287 xmoment=   0.0000E+00 ymoment=   0.0000E+00 zmoment=   0.0000E+00
 nd#     288  xforce=   0.0000E+00   yforce=   0.0000E+00  zforce=  -9.1006E+00   energy=  -9.6472E-04   setid =     288 xmoment=   0.0000E+00 ymoment=   0.0000E+00 zmoment=   0.0000E+00
 nd#     301  xforce=   0.0000E+00   yforce=   0.0000E+00  zforce=  -1.1641E+02   energy=   1.7494E-02   setid =     301 xmoment=   0.0000E+00 ymoment=   0.0000E+00 zmoment=   0.0000E+00
 nd#     314  xforce=   0.0000E+00   yforce=   0.0000E+00  zforce=  -5.8481E+01   energy=   9.0982E-03   setid =     314 xmoment=   0.0000E+00 ymoment=   0.0000E+00 zmoment=   0.0000E+00
 nd#     363  xforce=   0.0000E+00   yforce=   0.0000E+00  zforce=  -3.1313E+01   energy=   3.8653E-03   setid =     363 xmoment=   0.0000E+00 ymoment=   0.0000E+00 zmoment=   0.0000E+00
 nd#     364  xforce=   0.0000E+00   yforce=   0.0000E+00  zforce=  -4.9773E+01   energy=   7.1760E-03   setid =     364 xmoment=   0.0000E+00 ymoment=   0.0000E+00 zmoment=   0.0000E+00
 nd#     365  xforce=   0.0000E+00   yforce=   0.0000E+00  zforce=  -9.5039E+01   energy=   1.6303E-02   setid =     365 xmoment=   0.0000E+00 ymoment=   0.0000E+00 zmoment=   0.0000E+00
 nd#     366  xforce=   0.0000E+00   yforce=   0.0000E+00  zforce=  -4.5135E+01   energy=   7.4831E-03   setid =     366 xmoment=   0.0000E+00 ymoment=   0.0000E+00 zmoment=   0.0000E+00
 nd#     379  xforce=   0.0000E+00   yforce=   0.0000E+00  zforce=  -6.3707E+01   energy=   7.2419E-03   setid =     379 xmoment=   0.0000E+00 ymoment=   0.0000E+00 zmoment=   0.0000E+00
 nd#     404  xforce=   0.0000E+00   yforce=   0.0000E+00  zforce=  -1.2105E+02   energy=   2.1058E-02   setid =     404 xmoment=   0.0000E+00 ymoment=   0.0000E+00 zmoment=   0.0000E+00
 nd#     405  xforce=   0.0000E+00   yforce=   0.0000E+00  zforce=  -8.4967E+01   energy=   1.3952E-02   setid =     405 xmoment=   0.0000E+00 ymoment=   0.0000E+00 zmoment=   0.0000E+00
 nd#     418  xforce=   0.0000E+00   yforce=   0.0000E+00  zforce=  -5.8127E+01   energy=   1.1750E-02   setid =     418 xmoment=   0.0000E+00 ymoment=   0.0000E+00 zmoment=   0.0000E+00
 nd#     438  xforce=   0.0000E+00   yforce=   0.0000E+00  zforce=   3.2361E+00   energy=  -4.4196E-04   setid =     438 xmoment=   0.0000E+00 ymoment=   0.0000E+00 zmoment=   0.0000E+00
 nd#     439  xforce=   0.0000E+00   yforce=   0.0000E+00  zforce=  -2.0144E+01   energy=   3.4530E-03   setid =     439 xmoment=   0.0000E+00 ymoment=   0.0000E+00 zmoment=   0.0000E+00
 nd#     440  xforce=   0.0000E+00   yforce=   0.0000E+00  zforce=  -2.5106E+01   energy=   4.1413E-03   setid =     440 xmoment=   0.0000E+00 ymoment=   0.0000E+00 zmoment=   0.0000E+00
 nd#     441  xforce=   0.0000E+00   yforce=   0.0000E+00  zforce=  -2.6194E+01   energy=   4.3731E-03   setid =     441 xmoment=   0.0000E+00 ymoment=   0.0000E+00 zmoment=   0.0000E+00
 nd#     442  xforce=   0.0000E+00   yforce=   0.0000E+00  zforce=  -2.7368E+01   energy=   4.5749E-03   setid =     442 xmoment=   0.0000E+00 ymoment=   0.0000E+00 zmoment=   0.0000E+00
 nd#     443  xforce=   0.0000E+00   yforce=   0.0000E+00  zforce=  -2.8727E+01   energy=   4.8372E-03   setid =     443 xmoment=   0.0000E+00 ymoment=   0.0000E+00 zmoment=   0.0000E+00
 nd#     444  xforce=   0.0000E+00   yforce=   0.0000E+00  zforce=  -3.0067E+01   energy=   5.1018E-03   setid =     444 xmoment=   0.0000E+00 ymoment=   0.0000E+00 zmoment=   0.0000E+00
 nd#     591  xforce=   0.0000E+00   yforce=   0.0000E+00  zforce=  -3.4320E+01   energy=   5.0925E-03   setid =     591 xmoment=   0.0000E+00 ymoment=   0.0000E+00 zmoment=   0.0000E+00
 nd#     592  xforce=   0.0000E+00   yforce=   0.0000E+00  zforce=  -3.6008E+01   energy=   5.5529E-03   setid =     592 xmoment=   0.0000E+00 ymoment=   0.0000E+00 zmoment=   0.0000E+00
 nd#     595  xforce=   0.0000E+00   yforce=   0.0000E+00  zforce=  -5.0725E+01   energy=   8.1266E-03   setid =     595 xmoment=   0.0000E+00 ymoment=   0.0000E+00 zmoment=   0.0000E+00
 nd#     596  xforce=   0.0000E+00   yforce=   0.0000E+00  zforce=  -4.8462E+01   energy=   8.0144E-03   setid =     596 xmoment=   0.0000E+00 ymoment=   0.0000E+00 zmoment=   0.0000E+00
 nd#     599  xforce=   0.0000E+00   yforce=   0.0000E+00  zforce=  -4.6189E+01   energy=   7.1035E-03   setid =     599 xmoment=   0.0000E+00 ymoment=   0.0000E+00 zmoment=   0.0000E+00
 nd#     600  xforce=   0.0000E+00   yforce=   0.0000E+00  zforce=  -5.0216E+01   energy=   7.9446E-03   setid =     600 xmoment=   0.0000E+00 ymoment=   0.0000E+00 zmoment=   0.0000E+00
 nd#     603  xforce=   0.0000E+00   yforce=   0.0000E+00  zforce=  -2.9096E+01   energy=   4.5534E-03   setid =     603 xmoment=   0.0000E+00 ymoment=   0.0000E+00 zmoment=   0.0000E+00
 nd#     604  xforce=   0.0000E+00   yforce=   0.0000E+00  zforce=  -2.5802E+01   energy=   4.2780E-03   setid =     604 xmoment=   0.0000E+00 ymoment=   0.0000E+00 zmoment=   0.0000E+00
 nd#     638  xforce=   0.0000E+00   yforce=   0.0000E+00  zforce=  -4.1325E+01   energy=   6.5450E-03   setid =     638 xmoment=   0.0000E+00 ymoment=   0.0000E+00 zmoment=   0.0000E+00
 nd#     639  xforce=   0.0000E+00   yforce=   0.0000E+00  zforce=  -3.2823E+01   energy=   5.4563E-03   setid =     639 xmoment=   0.0000E+00 ymoment=   0.0000E+00 zmoment=   0.0000E+00
 nd#     641  xforce=   0.0000E+00   yforce=   0.0000E+00  zforce=  -5.1227E+01   energy=   8.2825E-03   setid =     641 xmoment=   0.0000E+00 ymoment=   0.0000E+00 zmoment=   0.0000E+00
 nd#     642  xforce=   0.0000E+00   yforce=   0.0000E+00  zforce=  -4.1983E+01   energy=   7.2496E-03   setid =     642 xmoment=   0.0000E+00 ymoment=   0.0000E+00 zmoment=   0.0000E+00
 nd#     644  xforce=   0.0000E+00   yforce=   0.0000E+00  zforce=  -5.6641E+01   energy=   9.1446E-03   setid =     644 xmoment=   0.0000E+00 ymoment=   0.0000E+00 zmoment=   0.0000E+00
[...]
 nd#     223  xforce=   0.0000E+00   yforce=   0.0000E+00  zforce=   2.4453E+01   energy=   1.0771E-02   setid =     223 xmoment=   0.0000E+00 ymoment=   0.0000E+00 zmoment=   0.0000E+00
 nd#     248  xforce=   0.0000E+00   yforce=   0.0000E+00  zforce=  -2.4064E+01   energy=   5.6016E-02   setid =     248 xmoment=   0.0000E+00 ymoment=   0.0000E+00 zmoment=   0.0000E+00
 nd#     249  xforce=   0.0000E+00   yforce=   0.0000E+00  zforce=   1.2427E+01   energy=  -4.6254E-03   setid =     249 xmoment=   0.0000E+00 ymoment=   0.0000E+00 zmoment=   0.0000E+00
 nd#     286  xforce=   0.0000E+00   yforce=   0.0000E+00  zforce=  -5.4850E+01   energy=  -1.0910E-01   setid =     286 xmoment=   0.0000E+00 ymoment=   0.0000E+00 zmoment=   0.0000E+00
 nd#     287  xforce=   0.0000E+00   yforce=   0.0000E+00  zforce=  -2.9344E+01   energy=   6.4948E-02   setid =     287 xmoment=   0.0000E+00 ymoment=   0.0000E+00 zmoment=   0.0000E+00
 nd#     288  xforce=   0.0000E+00   yforce=   0.0000E+00  zforce=  -7.7026E+01   energy=   7.1680E-02   setid =     288 xmoment=   0.0000E+00 ymoment=   0.0000E+00 zmoment=   0.0000E+00
 nd#     301  xforce=   0.0000E+00   yforce=   0.0000E+00  zforce=  -3.0297E+01   energy=   1.2544E-01   setid =     301 xmoment=   0.0000E+00 ymoment=   0.0000E+00 zmoment=   0.0000E+00
 nd#     314  xforce=   0.0000E+00   yforce=   0.0000E+00  zforce=  -1.9759E+01   energy=   6.1445E-02   setid =     314 xmoment=   0.0000E+00 ymoment=   0.0000E+00 zmoment=   0.0000E+00
 nd#     363  xforce=   0.0000E+00   yforce=   0.0000E+00  zforce=  -3.6940E+01   energy=   5.1925E-02   setid =     363 xmoment=   0.0000E+00 ymoment=   0.0000E+00 zmoment=   0.0000E+00
 nd#     364  xforce=   0.0000E+00   yforce=   0.0000E+00  zforce=  -4.8757E+01   energy=   8.7920E-02   setid =     364 xmoment=   0.0000E+00 ymoment=   0.0000E+00 zmoment=   0.0000E+00
 nd#     365  xforce=   0.0000E+00   yforce=   0.0000E+00  zforce=   4.3449E+01   energy=   3.7408E-02   setid =     365 xmoment=   0.0000E+00 ymoment=   0.0000E+00 zmoment=   0.0000E+00
 nd#     366  xforce=   0.0000E+00   yforce=   0.0000E+00  zforce=   1.6188E+01   energy=   1.7428E-02   setid =     366 xmoment=   0.0000E+00 ymoment=   0.0000E+00 zmoment=   0.0000E+00
 nd#     379  xforce=   0.0000E+00   yforce=   0.0000E+00  zforce=  -2.5726E+01   energy=   6.8971E-02   setid =     379 xmoment=   0.0000E+00 ymoment=   0.0000E+00 zmoment=   0.0000E+00
 nd#     404  xforce=   0.0000E+00   yforce=   0.0000E+00  zforce=   7.6514E+01   energy=   2.7806E-02   setid =     404 xmoment=   0.0000E+00 ymoment=   0.0000E+00 zmoment=   0.0000E+00
 nd#     405  xforce=   0.0000E+00   yforce=   0.0000E+00  zforce=   5.5107E+01   energy=   1.8081E-02   setid =     405 xmoment=   0.0000E+00 ymoment=   0.0000E+00 zmoment=   0.0000E+00
 nd#     418  xforce=   0.0000E+00   yforce=   0.0000E+00  zforce=   4.0122E+01   energy=   8.0042E-05   setid =     418 xmoment=   0.0000E+00 ymoment=   0.0000E+00 zmoment=   0.0000E+00
 nd#     438  xforce=   0.0000E+00   yforce=   0.0000E+00  zforce=  -6.5944E-02   energy=  -2.3685E-03   setid =     438 xmoment=   0.0000E+00 ymoment=   0.0000E+00 zmoment=   0.0000E+00
 nd#     439  xforce=   0.0000E+00   yforce=   0.0000E+00  zforce=   3.4431E+00   energy=   1.0648E-02   setid =     439 xmoment=   0.0000E+00 ymoment=   0.0000E+00 zmoment=   0.0000E+00
 nd#     440  xforce=   0.0000E+00   yforce=   0.0000E+00  zforce=   2.7925E+00   energy=   1.5285E-02   setid =     440 xmoment=   0.0000E+00 ymoment=   0.0000E+00 zmoment=   0.0000E+00
 nd#     441  xforce=   0.0000E+00   yforce=   0.0000E+00  zforce=   3.8527E+00   energy=   1.5658E-02   setid =     441 xmoment=   0.0000E+00 ymoment=   0.0000E+00 zmoment=   0.0000E+00
 nd#     442  xforce=   0.0000E+00   yforce=   0.0000E+00  zforce=   5.1385E+00   energy=   1.5535E-02   setid =     442 xmoment=   0.0000E+00 ymoment=   0.0000E+00 zmoment=   0.0000E+00
 nd#     443  xforce=   0.0000E+00   yforce=   0.0000E+00  zforce=   5.8477E+00   energy=   1.6401E-02   setid =     443 xmoment=   0.0000E+00 ymoment=   0.0000E+00 zmoment=   0.0000E+00
 nd#     444  xforce=   0.0000E+00   yforce=   0.0000E+00  zforce=   6.0829E+00   energy=   1.8703E-02   setid =     444 xmoment=   0.0000E+00 ymoment=   0.0000E+00 zmoment=   0.0000E+00
 nd#     591  xforce=   0.0000E+00   yforce=   0.0000E+00  zforce=  -1.0277E+01   energy=   3.4540E-02   setid =     591 xmoment=   0.0000E+00 ymoment=   0.0000E+00 zmoment=   0.0000E+00
 nd#     592  xforce=   0.0000E+00   yforce=   0.0000E+00  zforce=  -5.6167E+00   energy=   3.0686E-02   setid =     592 xmoment=   0.0000E+00 ymoment=   0.0000E+00 zmoment=   0.0000E+00
 nd#     595  xforce=   0.0000E+00   yforce=   0.0000E+00  zforce=  -1.6349E+00   energy=   3.8369E-02   setid =     595 xmoment=   0.0000E+00 ymoment=   0.0000E+00 zmoment=   0.0000E+00
 nd#     596  xforce=   0.0000E+00   yforce=   0.0000E+00  zforce=  -2.6246E-01   energy=   3.4940E-02   setid =     596 xmoment=   0.0000E+00 ymoment=   0.0000E+00 zmoment=   0.0000E+00
 nd#     599  xforce=   0.0000E+00   yforce=   0.0000E+00  zforce=  -4.8516E+00   energy=   3.5375E-02   setid =     599 xmoment=   0.0000E+00 ymoment=   0.0000E+00 zmoment=   0.0000E+00
 nd#     600  xforce=   0.0000E+00   yforce=   0.0000E+00  zforce=  -2.9494E+00   energy=   3.7605E-02   setid =     600 xmoment=   0.0000E+00 ymoment=   0.0000E+00 zmoment=   0.0000E+00
 nd#     603  xforce=   0.0000E+00   yforce=   0.0000E+00  zforce=   2.6199E+00   energy=   1.8114E-02   setid =     603 xmoment=   0.0000E+00 ymoment=   0.0000E+00 zmoment=   0.0000E+00
 nd#     604  xforce=   0.0000E+00   yforce=   0.0000E+00  zforce=   6.4386E+00   energy=   1.1333E-02   setid =     604 xmoment=   0.0000E+00 ymoment=   0.0000E+00 zmoment=   0.0000E+00
 nd#     638  xforce=   0.0000E+00   yforce=   0.0000E+00  zforce=  -3.5082E+00   energy=   3.2734E-02   setid =     638 xmoment=   0.0000E+00 ymoment=   0.0000E+00 zmoment=   0.0000E+00
 nd#     639  xforce=   0.0000E+00   yforce=   0.0000E+00  zforce=   5.9345E-01   energy=   2.1950E-02   setid =     639 xmoment=   0.0000E+00 ymoment=   0.0000E+00 zmoment=   0.0000E+00
 nd#     641  xforce=   0.0000E+00   yforce=   0.0000E+00  zforce=  -5.3943E+00   energy=   4.2317E-02   setid =     641 xmoment=   0.0000E+00 ymoment=   0.0000E+00 zmoment=   0.0000E+00
 nd#     642  xforce=   0.0000E+00   yforce=   0.0000E+00  zforce=   4.7508E+00   energy=   2.5720E-02   setid =     642 xmoment=   0.0000E+00 ymoment=   0.0000E+00 zmoment=   0.0000E+00
 nd#     644  xforce=   0.0000E+00   yforce=   0.0000E+00  zforce=  -4.4346E+00   energy=   4.4548E-02   setid =     644 xmoment=   0.0000E+00 ymoment=   0.0000E+00 zmoment=   0.0000E+00
 nd#     645  xforce=   0.0000E+00   yforce=   0.0000E+00  zforce=  -8.3686E-01   energy=   3.5821E-02   setid =     645 xmoment=   0.0000E+00 ymoment=   0.0000E+00 zmoment=   0.0000E+00
 nd#     647  xforce=   0.0000E+00   yforce=   0.0000E+00  zforce=   1.3111E+01   energy=  -2.6359E-03   setid =     647 xmoment=   0.0000E+00 ymoment=   0.0000E+00 zmoment=   0.0000E+00
 nd#     648  xforce=   0.0000E+00   yforce=   0.0000E+00  zforce=   1.9647E+01   energy=  -1.7559E-02   setid =     648 xmoment=   0.0000E+00 ymoment=   0.0000E+00 zmoment=   0.0000E+00
 nd#     674  xforce=   0.0000E+00   yforce=   0.0000E+00  zforce=  -1.6996E+01   energy=   4.1788E-02   setid =     674 xmoment=   0.0000E+00 ymoment=   0.0000E+00 zmoment=   0.0000E+00
 nd#     676  xforce=   0.0000E+00   yforce=   0.0000E+00  zforce=  -4.3161E+00   energy=   4.3612E-02   setid =     676 xmoment=   0.0000E+00 ymoment=   0.0000E+00 zmoment=   0.0000E+00
 nd#     678  xforce=   0.0000E+00   yforce=   0.0000E+00  zforce=  -9.3452E+00   energy=   3.4188E-02   setid =     678 xmoment=   0.0000E+00 ymoment=   0.0000E+00 zmoment=   0.0000E+00
 nd#     680  xforce=   0.0000E+00   yforce=   0.0000E+00  zforce=   6.4445E+00   energy=   2.0316E-02   setid =     680 xmoment=   0.0000E+00 ymoment=   0.0000E+00 zmoment=   0.0000E+00
 nd#     821  xforce=   0.0000E+00   yforce=   0.0000E+00  zforce=  -5.0366E+00   energy=   3.3163E-02   setid =     821 xmoment=   0.0000E+00 ymoment=   0.0000E+00 zmoment=   0.0000E+00
 nd#     822  xforce=   0.0000E+00   yforce=   0.0000E+00  zforce=  -2.3117E+00   energy=   3.7821E-02   setid =     822 xmoment=   0.0000E+00 ymoment=   0.0000E+00 zmoment=   0.0000E+00
 nd#     823  xforce=   0.0000E+00   yforce=   0.0000E+00  zforce=  -1.9540E+00   energy=   4.0182E-02   setid =     823 xmoment=   0.0000E+00 ymoment=   0.0000E+00 zmoment=   0.0000E+00
 nd#     824  xforce=   0.0000E+00   yforce=   0.0000E+00  zforce=   8.9958E+00   energy=   7.1348E-03   setid =     824 xmoment=   0.0000E+00 ymoment=   0.0000E+00 zmoment=   0.0000E+00
 nd#     850  xforce=   0.0000E+00   yforce=   0.0000E+00  zforce=   6.0141E-01   energy=  -1.5382E-02   setid =     850 xmoment=   0.0000E+00 ymoment=   0.0000E+00 zmoment=   0.0000E+00
 nd#     852  xforce=   0.0000E+00   yforce=   0.0000E+00  zforce=  -2.9440E+00   energy=  -1.6559E-02   setid =     852 xmoment=   0.0000E+00 ymoment=   0.0000E+00 zmoment=   0.0000E+00
 nd#     854  xforce=   0.0000E+00   yforce=   0.0000E+00  zforce=   2.0226E+01   energy=  -5.9712E-02   setid =     854 xmoment=   0.0000E+00 ymoment=   0.0000E+00 zmoment=   0.0000E+00
 nd#     856  xforce=   0.0000E+00   yforce=   0.0000E+00  zforce=  -3.1692E+01   energy=   2.1260E-02   setid =     856 xmoment=   0.0000E+00 ymoment=   0.0000E+00 zmoment=   0.0000E+00
              xtotal=   0.0000E+00   ytotal=   0.0000E+00  ztotal=  -1.0739E-02   etotal=   1.3101E+00

 n o d a l   f o r c e/e n e r g y    o u t p u t  t=   1.00000E+02

 velocity boundary condition forces/rigid body moments 

 nd#     220  xforce=   0.0000E+00   yforce=   0.0000E+00  zforce=   6.6032E+01   energy=  -1.6527E-02   setid =     220 xmoment=   0.0000E+00 ymoment=   0.0000E+00 zmoment=   0.0000E+00
 nd#     221  xforce=   0.0000E+00   yforce=   0.0000E+00  zforce=   3.7432E+01   energy=  -1.4776E-02   setid =     221 xmoment=   0.0000E+00 ymoment=   0.0000E+00 zmoment=   0.0000E+00
 nd#     222  xforce=   0.0000E+00   yforce=   0.0000E+00  zforce=  -1.5690E+01   energy=   4.9733E-02   setid =     222 xmoment=   0.0000E+00 ymoment=   0.0000E+00 zmoment=   0.0000E+00
 nd#     223  xforce=   0.0000E+00   yforce=   0.0000E+00  zforce=   2.5318E+01   energy=   9.6158E-03   setid =     223 xmoment=   0.0000E+00 ymoment=   0.0000E+00 zmoment=   0.0000E+00
 nd#     248  xforce=   0.0000E+00   yforce=   0.0000E+00  zforce=  -2.5076E+01   energy=   5.7156E-02   setid =     248 xmoment=   0.0000E+00 ymoment=   0.0000E+00 zmoment=   0.0000E+00
 nd#     249  xforce=   0.0000E+00   yforce=   0.0000E+00  zforce=   1.1973E+01   energy=  -5.1916E-03   setid =     249 xmoment=   0.0000E+00 ymoment=   0.0000E+00 zmoment=   0.0000E+00
 nd#     286  xforce=   0.0000E+00   yforce=   0.0000E+00  zforce=  -6.7384E+01   energy=  -1.0627E-01   setid =     286 xmoment=   0.0000E+00 ymoment=   0.0000E+00 zmoment=   0.0000E+00
 nd#     287  xforce=   0.0000E+00   yforce=   0.0000E+00  zforce=  -2.9746E+01   energy=   6.6319E-02   setid =     287 xmoment=   0.0000E+00 ymoment=   0.0000E+00 zmoment=   0.0000E+00
 nd#     288  xforce=   0.0000E+00   yforce=   0.0000E+00  zforce=  -7.8760E+01   energy=   7.5295E-02   setid =     288 xmoment=   0.0000E+00 ymoment=   0.0000E+00 zmoment=   0.0000E+00
 nd#     301  xforce=   0.0000E+00   yforce=   0.0000E+00  zforce=  -2.7966E+01   energy=   1.2679E-01   setid =     301 xmoment=   0.0000E+00 ymoment=   0.0000E+00 zmoment=   0.0000E+00
 nd#     314  xforce=   0.0000E+00   yforce=   0.0000E+00  zforce=  -1.9901E+01   energy=   6.2365E-02   setid =     314 xmoment=   0.0000E+00 ymoment=   0.0000E+00 zmoment=   0.0000E+00
 nd#     363  xforce=   0.0000E+00   yforce=   0.0000E+00  zforce=  -3.8419E+01   energy=   5.3673E-02   setid =     363 xmoment=   0.0000E+00 ymoment=   0.0000E+00 zmoment=   0.0000E+00
 nd#     364  xforce=   0.0000E+00   yforce=   0.0000E+00  zforce=  -5.0318E+01   energy=   9.0219E-02   setid =     364 xmoment=   0.0000E+00 ymoment=   0.0000E+00 zmoment=   0.0000E+00
 nd#     365  xforce=   0.0000E+00   yforce=   0.0000E+00  zforce=   4.7041E+01   energy=   3.5309E-02   setid =     365 xmoment=   0.0000E+00 ymoment=   0.0000E+00 zmoment=   0.0000E+00
 nd#     366  xforce=   0.0000E+00   yforce=   0.0000E+00  zforce=   1.7841E+01   energy=   1.6638E-02   setid =     366 xmoment=   0.0000E+00 ymoment=   0.0000E+00 zmoment=   0.0000E+00
 nd#     379  xforce=   0.0000E+00   yforce=   0.0000E+00  zforce=  -2.5459E+01   energy=   7.0158E-02   setid =     379 xmoment=   0.0000E+00 ymoment=   0.0000E+00 zmoment=   0.0000E+00
 nd#     404  xforce=   0.0000E+00   yforce=   0.0000E+00  zforce=   8.2053E+01   energy=   2.4127E-02   setid =     404 xmoment=   0.0000E+00 ymoment=   0.0000E+00 zmoment=   0.0000E+00
 nd#     405  xforce=   0.0000E+00   yforce=   0.0000E+00  zforce=   5.9944E+01   energy=   1.5412E-02   setid =     405 xmoment=   0.0000E+00 ymoment=   0.0000E+00 zmoment=   0.0000E+00
 nd#     418  xforce=   0.0000E+00   yforce=   0.0000E+00  zforce=   4.0499E+01   energy=  -1.7907E-03   setid =     418 xmoment=   0.0000E+00 ymoment=   0.0000E+00 zmoment=   0.0000E+00
 nd#     438  xforce=   0.0000E+00   yforce=   0.0000E+00  zforce=  -2.4228E-01   energy=  -2.3613E-03   setid =     438 xmoment=   0.0000E+00 ymoment=   0.0000E+00 zmoment=   0.0000E+00
 nd#     439  xforce=   0.0000E+00   yforce=   0.0000E+00  zforce=   3.5514E+00   energy=   1.0486E-02   setid =     439 xmoment=   0.0000E+00 ymoment=   0.0000E+00 zmoment=   0.0000E+00
 nd#     440  xforce=   0.0000E+00   yforce=   0.0000E+00  zforce=   2.9908E+00   energy=   1.5151E-02   setid =     440 xmoment=   0.0000E+00 ymoment=   0.0000E+00 zmoment=   0.0000E+00
 nd#     441  xforce=   0.0000E+00   yforce=   0.0000E+00  zforce=   4.1704E+00   energy=   1.5472E-02   setid =     441 xmoment=   0.0000E+00 ymoment=   0.0000E+00 zmoment=   0.0000E+00
 nd#     442  xforce=   0.0000E+00   yforce=   0.0000E+00  zforce=   5.4766E+00   energy=   1.5289E-02   setid =     442 xmoment=   0.0000E+00 ymoment=   0.0000E+00 zmoment=   0.0000E+00
 nd#     443  xforce=   0.0000E+00   yforce=   0.0000E+00  zforce=   6.5375E+00   energy=   1.6113E-02   setid =     443 xmoment=   0.0000E+00 ymoment=   0.0000E+00 zmoment=   0.0000E+00
 nd#     444  xforce=   0.0000E+00   yforce=   0.0000E+00  zforce=   6.7109E+00   energy=   1.8406E-02   setid =     444 xmoment=   0.0000E+00 ymoment=   0.0000E+00 zmoment=   0.0000E+00
 nd#     591  xforce=   0.0000E+00   yforce=   0.0000E+00  zforce=  -1.0691E+01   energy=   3.5026E-02   setid =     591 xmoment=   0.0000E+00 ymoment=   0.0000E+00 zmoment=   0.0000E+00
 nd#     592  xforce=   0.0000E+00   yforce=   0.0000E+00  zforce=  -6.1477E+00   energy=   3.0959E-02   setid =     592 xmoment=   0.0000E+00 ymoment=   0.0000E+00 zmoment=   0.0000E+00
 nd#     595  xforce=   0.0000E+00   yforce=   0.0000E+00  zforce=  -1.2069E+00   energy=   3.8435E-02   setid =     595 xmoment=   0.0000E+00 ymoment=   0.0000E+00 zmoment=   0.0000E+00
 nd#     596  xforce=   0.0000E+00   yforce=   0.0000E+00  zforce=  -1.8851E-01   energy=   3.4950E-02   setid =     596 xmoment=   0.0000E+00 ymoment=   0.0000E+00 zmoment=   0.0000E+00
 nd#     599  xforce=   0.0000E+00   yforce=   0.0000E+00  zforce=  -4.8104E+00   energy=   3.5600E-02   setid =     599 xmoment=   0.0000E+00 ymoment=   0.0000E+00 zmoment=   0.0000E+00
 nd#     600  xforce=   0.0000E+00   yforce=   0.0000E+00  zforce=  -2.8490E+00   energy=   3.7739E-02   setid =     600 xmoment=   0.0000E+00 ymoment=   0.0000E+00 zmoment=   0.0000E+00
 nd#     603  xforce=   0.0000E+00   yforce=   0.0000E+00  zforce=   2.7841E+00   energy=   1.7989E-02   setid =     603 xmoment=   0.0000E+00 ymoment=   0.0000E+00 zmoment=   0.0000E+00
 nd#     604  xforce=   0.0000E+00   yforce=   0.0000E+00  zforce=   6.7230E+00   energy=   1.1028E-02   setid =     604 xmoment=   0.0000E+00 ymoment=   0.0000E+00 zmoment=   0.0000E+00
 nd#     638  xforce=   0.0000E+00   yforce=   0.0000E+00  zforce=  -3.7447E+00   energy=   3.2902E-02   setid =     638 xmoment=   0.0000E+00 ymoment=   0.0000E+00 zmoment=   0.0000E+00
 nd#     639  xforce=   0.0000E+00   yforce=   0.0000E+00  zforce=   3.2528E-01   energy=   2.1929E-02   setid =     639 xmoment=   0.0000E+00 ymoment=   0.0000E+00 zmoment=   0.0000E+00
 nd#     641  xforce=   0.0000E+00   yforce=   0.0000E+00  zforce=  -5.3498E+00   energy=   4.2567E-02   setid =     641 xmoment=   0.0000E+00 ymoment=   0.0000E+00 zmoment=   0.0000E+00
 nd#     642  xforce=   0.0000E+00   yforce=   0.0000E+00  zforce=   4.9147E+00   energy=   2.5496E-02   setid =     642 xmoment=   0.0000E+00 ymoment=   0.0000E+00 zmoment=   0.0000E+00
 nd#     644  xforce=   0.0000E+00   yforce=   0.0000E+00  zforce=  -4.1818E+00   energy=   4.4748E-02   setid =     644 xmoment=   0.0000E+00 ymoment=   0.0000E+00 zmoment=   0.0000E+00
 nd#     645  xforce=   0.0000E+00   yforce=   0.0000E+00  zforce=  -6.4745E-01   energy=   3.5855E-02   setid =     645 xmoment=   0.0000E+00 ymoment=   0.0000E+00 zmoment=   0.0000E+00
 nd#     647  xforce=   0.0000E+00   yforce=   0.0000E+00  zforce=   1.3015E+01   energy=  -3.2421E-03   setid =     647 xmoment=   0.0000E+00 ymoment=   0.0000E+00 zmoment=   0.0000E+00
 nd#     648  xforce=   0.0000E+00   yforce=   0.0000E+00  zforce=   1.9787E+01   energy=  -1.8474E-02   setid =     648 xmoment=   0.0000E+00 ymoment=   0.0000E+00 zmoment=   0.0000E+00
 nd#     674  xforce=   0.0000E+00   yforce=   0.0000E+00  zforce=  -1.7808E+01   energy=   4.2596E-02   setid =     674 xmoment=   0.0000E+00 ymoment=   0.0000E+00 zmoment=   0.0000E+00
 nd#     676  xforce=   0.0000E+00   yforce=   0.0000E+00  zforce=  -4.1166E+00   energy=   4.3807E-02   setid =     676 xmoment=   0.0000E+00 ymoment=   0.0000E+00 zmoment=   0.0000E+00
 nd#     678  xforce=   0.0000E+00   yforce=   0.0000E+00  zforce=  -9.7441E+00   energy=   3.4631E-02   setid =     678 xmoment=   0.0000E+00 ymoment=   0.0000E+00 zmoment=   0.0000E+00
 nd#     680  xforce=   0.0000E+00   yforce=   0.0000E+00  zforce=   6.9410E+00   energy=   2.0005E-02   setid =     680 xmoment=   0.0000E+00 ymoment=   0.0000E+00 zmoment=   0.0000E+00
 nd#     821  xforce=   0.0000E+00   yforce=   0.0000E+00  zforce=  -5.2322E+00   energy=   3.3402E-02   setid =     821 xmoment=   0.0000E+00 ymoment=   0.0000E+00 zmoment=   0.0000E+00
 nd#     822  xforce=   0.0000E+00   yforce=   0.0000E+00  zforce=  -2.0862E+00   energy=   3.7923E-02   setid =     822 xmoment=   0.0000E+00 ymoment=   0.0000E+00 zmoment=   0.0000E+00
 nd#     823  xforce=   0.0000E+00   yforce=   0.0000E+00  zforce=  -2.3149E+00   energy=   4.0281E-02   setid =     823 xmoment=   0.0000E+00 ymoment=   0.0000E+00 zmoment=   0.0000E+00
 nd#     824  xforce=   0.0000E+00   yforce=   0.0000E+00  zforce=   8.6423E+00   energy=   6.7255E-03   setid =     824 xmoment=   0.0000E+00 ymoment=   0.0000E+00 zmoment=   0.0000E+00
 nd#     850  xforce=   0.0000E+00   yforce=   0.0000E+00  zforce=  -4.1121E-02   energy=  -1.5395E-02   setid =     850 xmoment=   0.0000E+00 ymoment=   0.0000E+00 zmoment=   0.0000E+00
 nd#     852  xforce=   0.0000E+00   yforce=   0.0000E+00  zforce=  -3.5205E+00   energy=  -1.6409E-02   setid =     852 xmoment=   0.0000E+00 ymoment=   0.0000E+00 zmoment=   0.0000E+00
 nd#     854  xforce=   0.0000E+00   yforce=   0.0000E+00  zforce=   1.9503E+01   energy=  -6.0634E-02   setid =     854 xmoment=   0.0000E+00 ymoment=   0.0000E+00 zmoment=   0.0000E+00
 nd#     856  xforce=   0.0000E+00   yforce=   0.0000E+00  zforce=  -3.2774E+01   energy=   2.2755E-02   setid =     856 xmoment=   0.0000E+00 ymoment=   0.0000E+00 zmoment=   0.0000E+00
              xtotal=   0.0000E+00   ytotal=   0.0000E+00  ztotal=   3.7874E+00   etotal=   1.3100E+00
