 LS-DYNA keyword deck by LS-PrePost                                      
                    ls-dyna smp d R14 R14.1.1s_1_ef50e1 date 06/16/2024



 e l e m e n t   s t r e s s   c a l c u l a t i o n s   f o r   t i m e  s t e p        1   ( at time 0.00000E+00 )

 element  materl
     ipt  stress       sig-xx      sig-yy      sig-zz      sig-xy      sig-yz      sig-zx                       yield
           state                                                                                  effsg      function
      13-      1
       1          -1.9509E-06 -1.9509E-06 -1.9509E-06  0.0000E+00  0.0000E+00  0.0000E+00    0.0000E+00    0.0000E+00
      14-      1
       1          -5.8528E-06 -5.8528E-06 -5.8528E-06  0.0000E+00  0.0000E+00  0.0000E+00    0.0000E+00    0.0000E+00
      15-      1
       1          -1.9509E-06 -1.9509E-06 -1.9509E-06  0.0000E+00  0.0000E+00  0.0000E+00    0.0000E+00    0.0000E+00
      21-      1
       1           0.0000E+00  0.0000E+00  0.0000E+00  0.0000E+00  0.0000E+00  0.0000E+00    0.0000E+00    0.0000E+00
      22-      1
       1           0.0000E+00  0.0000E+00  0.0000E+00  0.0000E+00  0.0000E+00  0.0000E+00    0.0000E+00    0.0000E+00
      23-      1
       1          -1.9509E-06 -1.9509E-06 -1.9509E-06  0.0000E+00  0.0000E+00  0.0000E+00    0.0000E+00    0.0000E+00
      53-      1
       1          -1.9509E-06 -1.9509E-06 -1.9509E-06  0.0000E+00  0.0000E+00  0.0000E+00    0.0000E+00    0.0000E+00
      54-      1
       1           0.0000E+00  0.0000E+00  0.0000E+00  0.0000E+00  0.0000E+00  0.0000E+00    0.0000E+00    0.0000E+00
      55-      1
       1          -1.9509E-06 -1.9509E-06 -1.9509E-06  0.0000E+00  0.0000E+00  0.0000E+00    0.0000E+00    0.0000E+00
      93-      1
       1          -3.9019E-06 -3.9019E-06 -3.9019E-06  0.0000E+00  0.0000E+00  0.0000E+00    0.0000E+00    0.0000E+00
      94-      1
       1          -3.9019E-06 -3.9019E-06 -3.9019E-06  0.0000E+00  0.0000E+00  0.0000E+00    0.0000E+00    0.0000E+00
      95-      1
       1          -1.9509E-06 -1.9509E-06 -1.9509E-06  0.0000E+00  0.0000E+00  0.0000E+00    0.0000E+00    0.0000E+00



 e l e m e n t   s t r a i n   c a l c u l a t i o n s   f o r   t i m e  s t e p        1   ( at time  0.00000E+00 )

 element  strain       eps-xx      eps-yy      eps-zz      eps-xy      eps-yz      eps-zx                            yield
 num/ipt   state
      13-      1
      1            0.0000E+00  0.0000E+00  0.0000E+00  0.0000E+00  0.0000E+00  0.0000E+00
      14-      1
      1            0.0000E+00  0.0000E+00  0.0000E+00  0.0000E+00  0.0000E+00  0.0000E+00
      15-      1
      1            0.0000E+00  0.0000E+00  0.0000E+00  0.0000E+00  0.0000E+00  0.0000E+00
      21-      1
      1            0.0000E+00  0.0000E+00  0.0000E+00  0.0000E+00  0.0000E+00  0.0000E+00
      22-      1
      1            0.0000E+00  0.0000E+00  0.0000E+00  0.0000E+00  0.0000E+00  0.0000E+00
      23-      1
      1            0.0000E+00  0.0000E+00  0.0000E+00  0.0000E+00  0.0000E+00  0.0000E+00
      53-      1
      1            0.0000E+00  0.0000E+00  0.0000E+00  0.0000E+00  0.0000E+00  0.0000E+00
      54-      1
      1            0.0000E+00  0.0000E+00  0.0000E+00  0.0000E+00  0.0000E+00  0.0000E+00
      55-      1
      1            0.0000E+00  0.0000E+00  0.0000E+00  0.0000E+00  0.0000E+00  0.0000E+00
      93-      1
      1            0.0000E+00  0.0000E+00  0.0000E+00  0.0000E+00  0.0000E+00  0.0000E+00
      94-      1
      1            0.0000E+00  0.0000E+00  0.0000E+00  0.0000E+00  0.0000E+00  0.0000E+00
      95-      1
      1            0.0000E+00  0.0000E+00  0.0000E+00  0.0000E+00  0.0000E+00  0.0000E+00



 e l e m e n t   s t r e s s   c a l c u l a t i o n s   f o r   t i m e  s t e p       10   ( at time 1.29245E+00 )

 element  materl
     ipt  stress       sig-xx      sig-yy      sig-zz      sig-xy      sig-yz      sig-zx                       yield
           state                                                                                  effsg      function
      13-      1
       1          -3.5161E+07 -3.5373E+07 -2.2824E+08  9.6368E+06 -9.5653E+06 -2.1930E+07    1.9808E+08    5.0307E-04
      14-      1
       1          -1.6424E+07 -1.5201E+07 -2.3232E+08  5.1137E+06 -2.4953E+07 -3.7125E+07    2.3012E+08    1.0437E-04
      15-      1
       1          -2.1609E+07 -1.9412E+07 -2.0657E+08  2.3399E+05 -3.4306E+07 -4.8291E+07    2.1248E+08    0.0000E+00
      21-      1
       1          -3.5518E+07 -2.5670E+07 -2.1609E+08  7.5768E+06 -2.2418E+07 -3.6120E+06    1.9026E+08    6.7999E-04
      22-      1
       1          -1.8256E+07 -1.2740E+07 -2.2435E+08  4.1432E+06 -3.8439E+07 -1.9477E+07    2.2195E+08    1.4917E-04
      23-      1
       1          -2.2017E+07 -2.0864E+07 -2.0508E+08  4.3405E+05 -5.0279E+07 -3.0424E+07    2.0996E+08    8.8865E-06
      53-      1
       1          -1.7773E+07 -3.3054E+07 -2.2120E+08  3.5779E+06 -5.0140E+06 -2.2778E+07    2.0044E+08    4.0095E-04
      54-      1
       1          -9.9353E+06 -1.9756E+07 -2.3500E+08  1.9118E+06 -8.5332E+06 -4.7411E+07    2.3561E+08    2.7123E-05
      55-      1
       1          -2.0455E+07 -2.1216E+07 -2.0525E+08  8.0768E+04 -1.0674E+07 -5.7013E+07    2.1001E+08    0.0000E+00
      93-      1
       1          -2.7339E+07 -4.6902E+06 -1.9207E+08  1.3515E+06 -2.0170E+07 -1.2039E+06    1.8059E+08    8.4909E-04
      94-      1
       1          -2.3729E+07 -1.0115E+07 -2.1530E+08  2.7698E+05 -3.9929E+07 -4.1728E+06    2.1054E+08    1.6916E-04
      95-      1
       1          -2.4123E+07 -2.0646E+07 -2.0588E+08  2.2648E+05 -5.6622E+07 -8.9602E+06    2.0866E+08    1.4179E-06



 e l e m e n t   s t r a i n   c a l c u l a t i o n s   f o r   t i m e  s t e p       10   ( at time  1.29245E+00 )

 element  strain       eps-xx      eps-yy      eps-zz      eps-xy      eps-yz      eps-zx                            yield
 num/ipt   state
      13-      1
      1            1.2436E-03  1.2170E-03 -3.8793E-03  2.7866E-04 -3.6043E-04 -6.7316E-04
      14-      1
      1            1.0535E-03  1.0857E-03 -3.3937E-03  1.1192E-04 -5.7255E-04 -7.9120E-04
      15-      1
      1            7.7056E-04  8.1225E-04 -2.7590E-03  4.4143E-06 -6.5469E-04 -9.2157E-04
      21-      1
      1            1.1488E-03  1.4461E-03 -3.9112E-03  2.4220E-04 -9.1258E-04 -1.9579E-04
      22-      1
      1            1.0049E-03  1.1304E-03 -3.3490E-03  1.0043E-04 -9.4144E-04 -4.3124E-04
      23-      1
      1            7.7171E-04  7.9392E-04 -2.7435E-03  9.0736E-06 -9.7346E-04 -5.8487E-04
      53-      1
      1            1.4044E-03  9.9492E-04 -3.6896E-03  8.7643E-05 -2.1926E-04 -6.5389E-04
      54-      1
      1            1.1052E-03  9.1435E-04 -3.2773E-03  3.7940E-05 -1.7660E-04 -9.3208E-04
      55-      1
      1            7.8937E-04  7.7495E-04 -2.7373E-03  1.4944E-06 -2.0370E-04 -1.0880E-03
      93-      1
      1            9.9136E-04  1.7432E-03 -3.7946E-03  3.5553E-05 -8.0591E-04 -1.1268E-04
      94-      1
      1            8.6768E-04  1.1719E-03 -3.2232E-03  1.0028E-05 -9.9284E-04 -1.0570E-04
      95-      1
      1            7.3822E-04  8.0388E-04 -2.7327E-03  4.3801E-06 -1.0822E-03 -1.7140E-04



 e l e m e n t   s t r e s s   c a l c u l a t i o n s   f o r   t i m e  s t e p       66   ( at time 2.54839E+00 )

 element  materl
     ipt  stress       sig-xx      sig-yy      sig-zz      sig-xy      sig-yz      sig-zx                       yield
           state                                                                                  effsg      function
      13-      1
       1          -1.2818E+08 -1.1426E+08 -2.7370E+08 -5.2890E+06 -1.1093E+07 -1.6547E+07    1.5707E+08    1.7395E-02
      14-      1
       1          -3.3302E+07 -2.7349E+07 -2.5273E+08 -1.7250E+06 -3.2161E+07 -4.0099E+07    2.3964E+08    6.3730E-03
      15-      1
       1          -1.3393E+07 -1.8743E+07 -2.3394E+08  2.8755E+06 -4.3877E+07 -6.2061E+07    2.5465E+08    1.2684E-03
      21-      1
       1          -1.3744E+08 -1.3430E+08 -2.5121E+08 -6.4406E+06 -1.1952E+07 -1.0502E+06    1.1776E+08    2.6923E-02
      22-      1
       1          -2.6964E+07 -2.2123E+07 -2.1987E+08  1.1351E+06 -4.6240E+07 -1.6646E+07    2.1312E+08    9.2568E-03
      23-      1
       1          -1.4841E+07 -8.8637E+06 -2.2850E+08  8.7884E+06 -6.7684E+07 -3.3869E+07    2.5373E+08    1.5646E-03
      53-      1
       1          -7.0740E+07 -6.3942E+07 -2.6284E+08  5.1552E+05 -9.5657E+06 -1.9861E+07    1.9928E+08    1.1349E-02
      54-      1
       1          -4.1028E+07 -4.1915E+07 -2.7741E+08 -1.1266E+06 -9.0336E+06 -5.0043E+07    2.5185E+08    3.9142E-03
      55-      1
       1          -2.0751E+07 -3.2185E+07 -2.3033E+08  5.0872E+05 -1.0892E+07 -6.3074E+07    2.3227E+08    1.4578E-03
      93-      1
       1          -9.9558E+07 -8.8912E+07 -1.8809E+08 -4.9112E+06 -8.2284E+06  1.8461E+06    9.5814E+07    3.5345E-02
      94-      1
       1          -3.1756E+07 -1.7605E+07 -1.8075E+08 -1.0352E+06 -3.3807E+07 -9.3899E+05    1.6716E+08    1.4449E-02
      95-      1
       1          -1.3026E+07  4.9350E+06 -2.1019E+08  1.4882E+06 -7.5776E+07 -7.5627E+06    2.4524E+08    1.9591E-03



 e l e m e n t   s t r a i n   c a l c u l a t i o n s   f o r   t i m e  s t e p       66   ( at time  2.54839E+00 )

 element  strain       eps-xx      eps-yy      eps-zz      eps-xy      eps-yz      eps-zx                            yield
 num/ipt   state
      13-      1
      1            4.6274E-03  5.8322E-03 -1.2944E-02 -4.4915E-04 -2.4979E-03 -2.0891E-03
      14-      1
      1            4.2115E-03  4.7044E-03 -1.0417E-02 -1.0917E-04 -2.6489E-03 -2.7220E-03
      15-      1
      1            2.5395E-03  2.3216E-03 -6.1227E-03  1.2341E-04 -1.8149E-03 -2.5388E-03
      21-      1
      1            5.1941E-03  5.2782E-03 -1.3131E-02 -9.9856E-04 -5.5625E-03 -3.3957E-04
      22-      1
      1            4.4075E-03  4.8873E-03 -1.0584E-02  3.2460E-05 -5.0612E-03 -1.2265E-03
      23-      1
      1            2.2665E-03  2.5279E-03 -5.9837E-03  3.7674E-04 -2.7592E-03 -1.3562E-03
      53-      1
      1            4.6939E-03  5.0937E-03 -1.1633E-02  7.4662E-05 -1.2321E-03 -1.9922E-03
      54-      1
      1            3.7578E-03  3.7530E-03 -9.2287E-03 -6.5264E-05 -6.2660E-04 -2.8344E-03
      55-      1
      1            2.6543E-03  2.2031E-03 -6.2029E-03  2.7151E-06 -4.1183E-04 -2.7435E-03
      93-      1
      1            5.3252E-03  6.3913E-03 -1.3682E-02 -1.0781E-03 -4.0508E-03 -4.4071E-06
      94-      1
      1            4.1662E-03  5.4011E-03 -1.0600E-02 -1.5287E-04 -6.0778E-03 -2.1380E-04
      95-      1
      1            2.1715E-03  3.0414E-03 -6.2275E-03  6.8246E-05 -3.7297E-03 -3.8000E-04



 e l e m e n t   s t r e s s   c a l c u l a t i o n s   f o r   t i m e  s t e p      443   ( at time 3.13273E+00 )

 element  materl
     ipt  stress       sig-xx      sig-yy      sig-zz      sig-xy      sig-yz      sig-zx                       yield
           state                                                                                  effsg      function
      13-      1
       1           3.3427E+07  2.0826E+07 -1.6052E+08  1.4394E+07 -1.7521E+07 -3.3447E+07    2.0057E+08    2.7500E-02
      14-      1
       1          -1.1569E+08 -1.1366E+08 -2.6415E+08 -2.1152E+06 -1.0634E+07 -3.1248E+07    1.6009E+08    1.0735E-02
      15-      1
       1           9.8995E+06  2.0957E+06 -2.0940E+08 -1.0153E+07 -4.2438E+07 -6.3498E+07    2.5348E+08    4.2802E-03
      21-      1
       1          -4.3135E+06  1.6026E+07 -1.5833E+08  2.6598E+06 -2.8767E+07 -6.1073E+06    1.7287E+08    3.9311E-02
      22-      1
       1          -1.7601E+08 -1.9313E+08 -3.0594E+08 -2.3158E+06 -1.4464E+07 -2.0754E+07    1.2995E+08    1.2157E-02
      23-      1
       1           3.0305E+06 -9.5209E+06 -2.1605E+08 -1.7006E+06 -6.4886E+07 -3.9185E+07    2.5030E+08    3.7522E-03
      53-      1
       1          -6.5321E+07 -7.0650E+07 -1.9921E+08  6.7429E+06  6.8801E+06  1.3706E+04    1.3236E+08    1.7460E-02
      54-      1
       1           4.8767E+07  3.8943E+07 -1.7227E+08  5.8933E+06 -7.8955E+06 -6.7634E+07    2.4657E+08    8.5128E-03
      55-      1
       1           7.3452E+06  2.3558E+05 -1.7184E+08 -2.4229E+06 -1.1546E+07 -6.7723E+07    2.1227E+08    4.8307E-03
      93-      1
       1          -1.1179E+08 -1.0175E+08 -2.0390E+08  1.9874E+06  3.7915E+07  2.1681E+06    1.1768E+08    4.9129E-02
      94-      1
       1          -1.5326E+08 -1.5404E+08 -2.8077E+08 -2.9174E+06 -4.8594E+06 -3.9209E+06    1.2768E+08    1.6678E-02
      95-      1
       1          -8.3029E+07 -9.2893E+07 -2.2295E+08  5.6991E+05 -4.5244E+07 -4.6356E+06    1.5653E+08    2.9005E-03



 e l e m e n t   s t r a i n   c a l c u l a t i o n s   f o r   t i m e  s t e p      443   ( at time  3.13273E+00 )

 element  strain       eps-xx      eps-yy      eps-zz      eps-xy      eps-yz      eps-zx                            yield
 num/ipt   state
      13-      1
      1            8.8811E-03  9.2484E-03 -1.8672E-02  4.6457E-04 -4.4051E-03 -4.1579E-03
      14-      1
      1            6.7201E-03  7.7482E-03 -1.4320E-02  1.0699E-05 -4.8057E-03 -4.6871E-03
      15-      1
      1            3.9421E-03  3.5245E-03 -8.4040E-03 -2.2090E-04 -2.6182E-03 -3.5885E-03
      21-      1
      1            9.4210E-03  1.1748E-02 -1.9926E-02 -7.1864E-05 -1.0075E-02 -1.1099E-03
      22-      1
      1            7.1006E-03  7.9115E-03 -1.3180E-02  1.4569E-04 -9.5863E-03 -2.3776E-03
      23-      1
      1            3.3999E-03  3.1537E-03 -7.6025E-03  2.1146E-04 -3.6180E-03 -1.9123E-03
      53-      1
      1            9.1779E-03  9.2654E-03 -1.6311E-02  8.6461E-04 -2.4509E-03 -4.7413E-03
      54-      1
      1            6.0854E-03  5.7267E-03 -1.2220E-02  2.1744E-04 -1.0274E-03 -4.7873E-03
      55-      1
      1            3.8122E-03  3.2234E-03 -7.8177E-03 -7.1075E-05 -6.2447E-04 -4.0039E-03
      93-      1
      1            1.0198E-02  1.6422E-02 -1.9803E-02 -2.1891E-03 -1.1318E-02 -4.5276E-04
      94-      1
      1            6.7840E-03  8.7882E-03 -1.2002E-02  3.0244E-04 -1.1316E-02 -3.8624E-04
      95-      1
      1            3.0190E-03  3.7638E-03 -6.4547E-03  1.1782E-05 -5.1797E-03 -4.8138E-04



 e l e m e n t   s t r e s s   c a l c u l a t i o n s   f o r   t i m e  s t e p      457   ( at time 4.32969E+00 )

 element  materl
     ipt  stress       sig-xx      sig-yy      sig-zz      sig-xy      sig-yz      sig-zx                       yield
           state                                                                                  effsg      function
      13-      1
       1          -8.5208E+07 -7.5763E+07 -2.3110E+08  6.4947E+05  1.5542E+07 -8.7474E+06    1.5397E+08    3.6362E-02
      14-      1
       1          -2.1546E+08 -2.1428E+08 -3.4298E+08 -3.9516E+06 -1.6943E+07 -2.3336E+07    1.3767E+08    1.4082E-02
      15-      1
       1           1.3290E+07  1.0140E+07 -2.0384E+08 -5.4794E+06 -3.9156E+07 -6.8479E+07    2.5540E+08    9.0023E-03
      21-      1
       1          -4.9510E+07 -5.6144E+07 -2.0251E+08 -7.7011E+05 -5.3362E+05  7.9839E+05    1.4981E+08    4.8011E-02
      22-      1
       1          -2.3730E+08 -2.4899E+08 -3.6845E+08 -1.6989E+06 -2.5495E+07 -1.7821E+07    1.3680E+08    1.5559E-02
      23-      1
       1          -4.5486E+06 -8.2700E+06 -2.2485E+08  1.5037E+06 -6.7338E+07 -4.2132E+07    2.5819E+08    8.6261E-03
      53-      1
       1          -1.3386E+08 -1.3164E+08 -2.5103E+08  1.3341E+06  1.2107E+07  1.8015E+07    1.2414E+08    2.4101E-02
      54-      1
       1          -1.9665E+08 -1.9553E+08 -3.2185E+08 -3.5735E+06 -1.4403E+06 -1.7503E+07    1.2954E+08    1.2308E-02
      55-      1
       1           2.7536E+07  2.4932E+07 -1.6315E+08 -4.7581E+06 -9.1364E+06 -7.8703E+07    2.3403E+08    9.0285E-03
      93-      1
       1          -1.4982E+08 -1.5087E+08 -2.5769E+08 -6.4099E+05  2.9791E+07  2.8277E+06    1.1921E+08    5.6362E-02
      94-      1
       1          -2.1100E+08 -2.1451E+08 -3.4659E+08 -1.7720E+06 -4.3463E+06 -2.4565E+06    1.3418E+08    2.0030E-02
      95-      1
       1          -1.1821E+08 -1.2260E+08 -2.5540E+08  2.3520E+06 -5.5189E+07 -8.3744E+06    1.6614E+08    5.7977E-03



 e l e m e n t   s t r a i n   c a l c u l a t i o n s   f o r   t i m e  s t e p      457   ( at time  4.32969E+00 )

 element  strain       eps-xx      eps-yy      eps-zz      eps-xy      eps-yz      eps-zx                            yield
 num/ipt   state
      13-      1
      1            1.6239E-02  1.6392E-02 -2.9539E-02  1.0667E-03 -5.2671E-03 -7.2767E-03
      14-      1
      1            1.0872E-02  1.1897E-02 -2.0504E-02  2.8149E-05 -7.0396E-03 -8.6133E-03
      15-      1
      1            5.8325E-03  5.4730E-03 -1.2166E-02 -2.5119E-04 -3.6070E-03 -5.3928E-03
      21-      1
      1            1.5349E-02  1.9000E-02 -3.0017E-02  2.4471E-04 -1.3361E-02 -1.7141E-03
      22-      1
      1            1.1611E-02  1.1507E-02 -1.9608E-02  3.0168E-04 -1.3289E-02 -4.1815E-03
      23-      1
      1            5.3722E-03  5.1368E-03 -1.1632E-02  3.0455E-04 -5.4697E-03 -3.1063E-03
      53-      1
      1            1.7439E-02  1.5718E-02 -2.6295E-02  1.4256E-03 -3.3426E-03 -8.1588E-03
      54-      1
      1            1.0065E-02  9.9594E-03 -1.8140E-02  3.5059E-04 -1.9448E-03 -9.8790E-03
      55-      1
      1            5.4165E-03  4.8467E-03 -1.0792E-02 -2.1549E-04 -7.6734E-04 -5.9628E-03
      93-      1
      1            1.5618E-02  2.3681E-02 -2.8835E-02 -2.2783E-03 -1.4953E-02 -1.1200E-03
      94-      1
      1            1.0446E-02  1.2541E-02 -1.8131E-02  4.4523E-04 -1.5440E-02 -6.7543E-04
      95-      1
      1            5.0133E-03  5.9130E-03 -1.0435E-02  5.6441E-05 -7.7665E-03 -8.0088E-04



 e l e m e n t   s t r e s s   c a l c u l a t i o n s   f o r   t i m e  s t e p      472   ( at time 5.49284E+00 )

 element  materl
     ipt  stress       sig-xx      sig-yy      sig-zz      sig-xy      sig-yz      sig-zx                       yield
           state                                                                                  effsg      function
      13-      1
       1          -1.9679E+08 -1.9652E+08 -3.1302E+08 -9.0744E+06  2.9924E+07  2.2179E+06    1.2841E+08    4.4222E-02
      14-      1
       1          -2.9629E+08 -2.9324E+08 -4.2736E+08 -3.2483E+06 -1.5643E+07 -1.7535E+07    1.3884E+08    1.7268E-02
      15-      1
       1          -9.3425E+05 -8.2927E+05 -1.8300E+08  8.4426E+05 -3.4992E+07 -6.7484E+07    2.2473E+08    1.5574E-02
      21-      1
       1          -1.5190E+08 -1.7013E+08 -2.6487E+08 -5.0442E+06  8.4248E+06  4.3829E+06    1.0669E+08    5.7271E-02
      22-      1
       1          -3.1032E+08 -3.1287E+08 -4.3225E+08 -2.9857E+05 -2.1942E+07 -1.4741E+07    1.2907E+08    1.8743E-02
      23-      1
       1          -5.9537E+07 -5.5564E+07 -2.1339E+08  6.1619E+06 -6.7348E+07 -3.7386E+07    2.0546E+08    1.4189E-02
      53-      1
       1          -2.3222E+08 -2.2059E+08 -3.3439E+08 -6.5954E+06  1.5152E+07  2.4321E+07    1.1981E+08    3.1481E-02
      54-      1
       1          -2.9112E+08 -2.9505E+08 -4.1865E+08 -5.2246E+06 -1.4792E+06 -1.3216E+06    1.2598E+08    1.5881E-02
      55-      1
       1          -5.0276E+06 -5.3329E+06 -1.7209E+08 -4.7276E+05 -1.3487E+07 -6.9262E+07    2.0687E+08    1.3402E-02
      93-      1
       1          -1.5822E+08 -1.6064E+08 -2.5187E+08 -4.7867E+06  2.9609E+07 -3.3516E+06    1.0621E+08    6.7676E-02
      94-      1
       1          -2.4636E+08 -2.6917E+08 -3.8387E+08  5.8816E+06 -1.6303E+07 -5.4712E+06    1.3146E+08    2.2741E-02
      95-      1
       1          -1.7146E+08 -1.7168E+08 -2.3608E+08  2.5408E+06 -6.8706E+07 -8.6587E+06    1.3626E+08    7.6920E-03



 e l e m e n t   s t r a i n   c a l c u l a t i o n s   f o r   t i m e  s t e p      472   ( at time  5.49284E+00 )

 element  strain       eps-xx      eps-yy      eps-zz      eps-xy      eps-yz      eps-zx                            yield
 num/ipt   state
      13-      1
      1            2.3148E-02  2.4796E-02 -4.1008E-02  1.4924E-03 -8.4296E-03 -1.3150E-02
      14-      1
      1            1.4742E-02  1.5984E-02 -2.6196E-02 -1.1926E-04 -9.9741E-03 -1.3969E-02
      15-      1
      1            7.6482E-03  7.3842E-03 -1.5924E-02 -4.4487E-05 -5.0065E-03 -7.7202E-03
      21-      1
      1            2.4071E-02  2.6072E-02 -4.1314E-02  5.3324E-04 -2.1398E-02 -4.4132E-03
      22-      1
      1            1.5880E-02  1.4805E-02 -2.4538E-02  5.0830E-04 -1.8466E-02 -6.3837E-03
      23-      1
      1            6.9941E-03  7.1604E-03 -1.5119E-02  7.0424E-04 -7.8550E-03 -4.3810E-03
      53-      1
      1            2.5053E-02  2.2789E-02 -3.5563E-02  9.3348E-04 -4.8749E-03 -1.4267E-02
      54-      1
      1            1.3383E-02  1.3779E-02 -2.3471E-02 -6.6282E-05 -2.7975E-03 -1.7807E-02
      55-      1
      1            7.1458E-03  6.4787E-03 -1.3792E-02 -2.3597E-04 -8.3889E-04 -8.6671E-03
      93-      1
      1            2.4101E-02  3.7700E-02 -4.0577E-02 -4.8445E-03 -2.3946E-02 -2.3089E-03
      94-      1
      1            1.4854E-02  1.6861E-02 -2.1811E-02  1.9567E-04 -2.4791E-02 -9.8137E-04
      95-      1
      1            6.1390E-03  6.9051E-03 -1.2024E-02  3.0962E-04 -9.6112E-03 -1.2127E-03



 e l e m e n t   s t r e s s   c a l c u l a t i o n s   f o r   t i m e  s t e p      485   ( at time 6.65600E+00 )

 element  materl
     ipt  stress       sig-xx      sig-yy      sig-zz      sig-xy      sig-yz      sig-zx                       yield
           state                                                                                  effsg      function
      13-      1
       1          -1.8723E+08 -1.8143E+08 -2.9473E+08 -2.8046E+06  3.4568E+07  9.7204E+06    1.2690E+08    5.2482E-02
      14-      1
       1          -3.6977E+08 -3.7113E+08 -5.0120E+08 -4.4665E+06 -1.1016E+07 -2.1865E+07    1.3767E+08    2.1142E-02
      15-      1
       1          -3.8727E+06  4.2404E+06 -1.6170E+08  4.2418E+05 -3.2343E+07 -6.8079E+07    2.0808E+08    2.2971E-02
      21-      1
       1          -1.6412E+08 -1.8105E+08 -2.8320E+08 -6.3666E+06  1.5467E+07 -6.9365E+06    1.1591E+08    6.6143E-02
      22-      1
       1          -3.6276E+08 -3.7193E+08 -4.9371E+08 -6.4024E+05 -2.3046E+07 -1.7465E+07    1.3617E+08    2.2280E-02
      23-      1
       1          -5.5247E+07 -4.9829E+07 -1.9089E+08  6.2819E+06 -6.8120E+07 -3.2643E+07    1.9079E+08    2.0000E-02
      53-      1
       1          -1.5198E+08 -1.4315E+08 -2.7721E+08  1.8920E+06  1.5064E+07  1.5814E+07    1.3531E+08    3.9050E-02
      54-      1
       1          -3.5991E+08 -3.6525E+08 -4.8068E+08 -1.6474E+07  1.0048E+06 -4.5687E+06    1.2186E+08    2.0183E-02
      55-      1
       1          -4.9621E+07 -4.0025E+07 -1.9609E+08  8.3160E+06 -2.1497E+07 -5.9132E+07    1.8717E+08    1.7474E-02
      93-      1
       1          -1.8918E+08 -2.0037E+08 -2.6687E+08 -7.6368E+06  2.1880E+07  5.3952E+06    8.3605E+07    7.6523E-02
      94-      1
       1          -3.3336E+08 -3.4694E+08 -4.6608E+08  1.1594E+07 -1.4900E+07 -4.3042E+06    1.3085E+08    2.5134E-02
      95-      1
       1          -1.8023E+08 -1.8243E+08 -2.1355E+08  4.9220E+06 -7.7764E+07 -5.7363E+06    1.3912E+08    1.0536E-02



 e l e m e n t   s t r a i n   c a l c u l a t i o n s   f o r   t i m e  s t e p      485   ( at time  6.65600E+00 )

 element  strain       eps-xx      eps-yy      eps-zz      eps-xy      eps-yz      eps-zx                            yield
 num/ipt   state
      13-      1
      1            2.6464E-02  3.3939E-02 -5.0339E-02  2.2332E-03 -1.3236E-02 -1.8841E-02
      14-      1
      1            1.9452E-02  2.1797E-02 -3.2882E-02  7.7234E-04 -1.4365E-02 -2.0594E-02
      15-      1
      1            9.3921E-03  9.5586E-03 -1.9739E-02  3.6389E-05 -6.4359E-03 -1.0293E-02
      21-      1
      1            3.3909E-02  3.5112E-02 -5.3364E-02  1.1127E-03 -2.9361E-02 -7.3578E-03
      22-      1
      1            2.1327E-02  1.8961E-02 -3.0564E-02  9.5368E-04 -2.4568E-02 -1.0227E-02
      23-      1
      1            8.6604E-03  8.8876E-03 -1.8368E-02  1.0066E-03 -1.0275E-02 -5.5556E-03
      53-      1
      1            3.2249E-02  3.2599E-02 -4.7287E-02  1.9301E-03 -6.0190E-03 -1.9482E-02
      54-      1
      1            1.8982E-02  1.9069E-02 -2.9578E-02 -3.9125E-04 -3.9952E-03 -2.6842E-02
      55-      1
      1            8.9723E-03  8.4534E-03 -1.6385E-02 -4.1312E-04 -7.7448E-04 -1.3476E-02
      93-      1
      1            3.3094E-02  5.1090E-02 -5.2195E-02 -7.0133E-03 -3.3807E-02 -2.1832E-03
      94-      1
      1            1.8362E-02  2.1942E-02 -2.5960E-02 -8.3457E-05 -3.4501E-02 -1.7817E-03
      95-      1
      1            6.7312E-03  7.9431E-03 -1.3757E-02  4.7685E-04 -1.2278E-02 -1.1160E-03



 e l e m e n t   s t r e s s   c a l c u l a t i o n s   f o r   t i m e  s t e p      500   ( at time 7.81915E+00 )

 element  materl
     ipt  stress       sig-xx      sig-yy      sig-zz      sig-xy      sig-yz      sig-zx                       yield
           state                                                                                  effsg      function
      13-      1
       1           1.3343E+07 -2.8043E+07 -1.2965E+08 -1.4276E+06  4.6160E+07  6.6822E+06    1.5091E+08    6.3296E-02
      14-      1
       1          -2.3676E+08 -2.4904E+08 -3.4440E+08  5.6422E+06 -2.9636E+07 -3.5059E+07    1.2975E+08    2.7123E-02
      15-      1
       1          -2.6269E+07 -1.3794E+07 -1.4556E+08 -9.1699E+06 -2.7671E+07 -7.0673E+07    1.8278E+08    2.9182E-02
      21-      1
       1          -7.8683E+07 -8.5489E+07 -2.2005E+08  1.5667E+06  2.1394E+07 -1.1504E+07    1.4438E+08    7.5515E-02
      22-      1
       1          -3.4225E+08 -3.4535E+08 -4.4080E+08  1.5828E+07 -4.5949E+07 -3.1122E+07    1.3931E+08    2.6844E-02
      23-      1
       1          -8.2955E+07 -7.7021E+07 -1.9615E+08 -2.5160E+06 -5.5976E+07 -3.3661E+07    1.6229E+08    2.4404E-02
      53-      1
       1          -3.0750E+07 -4.9241E+07 -1.6376E+08  3.6277E+06  2.2433E+07  3.0100E+07    1.4086E+08    4.7902E-02
      54-      1
       1          -2.4661E+08 -2.7499E+08 -3.6380E+08 -1.3855E+07 -1.0305E+06 -2.2697E+07    1.1549E+08    2.5895E-02
      55-      1
       1          -9.0591E+07 -6.4007E+07 -1.6704E+08  7.7971E+06 -2.9379E+07 -6.6051E+07    1.5634E+08    2.0805E-02
      93-      1
       1           1.0218E+06  7.8352E+06 -9.2434E+07 -4.1893E+06  2.4699E+07  1.0838E+07    1.0795E+08    8.6838E-02
      94-      1
       1          -2.4702E+08 -2.6827E+08 -3.4820E+08  2.1774E+07 -5.2543E+07 -1.2798E+07    1.3688E+08    2.8367E-02
      95-      1
       1          -1.7257E+08 -1.7638E+08 -1.9173E+08  4.7643E+06 -7.7944E+07  1.1679E+06    1.3641E+08    1.2104E-02



 e l e m e n t   s t r a i n   c a l c u l a t i o n s   f o r   t i m e  s t e p      500   ( at time  7.81915E+00 )

 element  strain       eps-xx      eps-yy      eps-zz      eps-xy      eps-yz      eps-zx                            yield
 num/ipt   state
      13-      1
      1            3.6452E-02  4.4830E-02 -6.5395E-02  3.0217E-03 -1.8580E-02 -2.5379E-02
      14-      1
      1            3.2440E-02  2.7716E-02 -3.8469E-02  2.8975E-03 -2.0459E-02 -3.2421E-02
      15-      1
      1            1.0204E-02  1.0752E-02 -2.1850E-02 -3.3541E-04 -7.6874E-03 -1.2542E-02
      21-      1
      1            4.5679E-02  4.8668E-02 -7.1238E-02  1.9115E-03 -4.1080E-02 -1.1579E-02
      22-      1
      1            2.7882E-02  2.5344E-02 -3.5315E-02  4.0318E-03 -3.3158E-02 -1.5965E-02
      23-      1
      1            9.6364E-03  9.6014E-03 -2.0192E-02  9.5679E-04 -1.1935E-02 -6.6989E-03
      53-      1
      1            4.0997E-02  4.0895E-02 -5.8613E-02  2.5220E-03 -8.5193E-03 -2.5708E-02
      54-      1
      1            2.9642E-02  2.4290E-02 -3.5124E-02  3.1662E-05 -6.0037E-03 -3.9712E-02
      55-      1
      1            1.0511E-02  1.0476E-02 -1.7411E-02 -1.1498E-03 -5.9335E-04 -1.9444E-02
      93-      1
      1            4.3819E-02  7.2635E-02 -7.1002E-02 -7.1306E-03 -4.5500E-02 -1.1058E-04
      94-      1
      1            2.4534E-02  3.2326E-02 -2.9092E-02  8.2829E-04 -4.9766E-02 -2.5064E-03
      95-      1
      1            7.6206E-03  7.5517E-03 -1.4454E-02  7.2684E-04 -1.2626E-02 -1.1650E-03



 e l e m e n t   s t r e s s   c a l c u l a t i o n s   f o r   t i m e  s t e p      515   ( at time 8.98230E+00 )

 element  materl
     ipt  stress       sig-xx      sig-yy      sig-zz      sig-xy      sig-yz      sig-zx                       yield
           state                                                                                  effsg      function
      13-      1
       1          -4.6774E+07 -4.8569E+07 -1.2261E+08 -1.7120E+06  4.7895E+07  2.6141E+07    1.2066E+08    7.3599E-02
      14-      1
       1          -1.3756E+08 -1.1955E+08 -2.1456E+08  7.6501E+06 -4.4712E+07 -4.5321E+07    1.4133E+08    3.3738E-02
      15-      1
       1          -2.0827E+07 -6.2054E+06 -1.1233E+08 -1.3964E+07 -2.4859E+07 -7.3085E+07    1.6849E+08    3.3240E-02
      21-      1
       1           1.9118E+07  9.0775E+06 -7.1925E+07  7.3605E+05  4.2076E+07  5.6318E+06    1.1351E+08    8.5356E-02
      22-      1
       1          -1.7722E+08 -1.7500E+08 -2.3618E+08  1.3850E+07 -6.7721E+07 -3.5467E+07    1.4737E+08    3.7101E-02
      23-      1
       1          -9.1483E+07 -8.5683E+07 -1.6723E+08 -7.6155E+06 -4.7918E+07 -3.2035E+07    1.2787E+08    2.6646E-02
      53-      1
       1          -2.4485E+06 -2.3715E+06 -1.1639E+08  8.1757E+06  1.6296E+07  3.6249E+07    1.3390E+08    5.8312E-02
      54-      1
       1          -8.5446E+07 -1.4133E+08 -2.1721E+08 -2.0597E+07  1.0251E+07 -4.4143E+07    1.4337E+08    3.3652E-02
      55-      1
       1          -1.1749E+08 -5.3895E+07 -1.2544E+08  1.4960E+07 -3.3138E+07 -4.2621E+07    1.1844E+08    2.3260E-02
      93-      1
       1           8.1347E+07  5.9155E+07  1.6879E+07 -2.7208E+05  2.5642E+07 -1.1740E+07    7.4861E+07    9.0452E-02
      94-      1
       1          -1.4778E+08 -1.3147E+08 -1.9663E+08  2.0420E+07 -7.3344E+07 -6.9970E+06    1.4486E+08    3.6399E-02
      95-      1
       1          -1.5466E+08 -1.6242E+08 -1.5862E+08  4.0395E+06 -8.0399E+07  2.0123E+06    1.3964E+08    1.3900E-02



 e l e m e n t   s t r a i n   c a l c u l a t i o n s   f o r   t i m e  s t e p      515   ( at time  8.98230E+00 )

 element  strain       eps-xx      eps-yy      eps-zz      eps-xy      eps-yz      eps-zx                            yield
 num/ipt   state
      13-      1
      1            4.5164E-02  5.7972E-02 -8.2418E-02  3.5359E-03 -2.4458E-02 -2.8543E-02
      14-      1
      1            3.9603E-02  3.7601E-02 -4.4418E-02  5.3265E-03 -2.8887E-02 -4.3853E-02
      15-      1
      1            1.0606E-02  1.1493E-02 -2.2762E-02 -6.0116E-04 -8.4212E-03 -1.3983E-02
      21-      1
      1            5.6183E-02  6.3972E-02 -8.9767E-02  2.3119E-03 -4.9100E-02 -1.4226E-02
      22-      1
      1            3.8502E-02  3.6058E-02 -4.1311E-02  7.9036E-03 -4.5846E-02 -2.5886E-02
      23-      1
      1            9.8747E-03  9.4942E-03 -2.0058E-02  8.2754E-04 -1.3141E-02 -7.2458E-03
      53-      1
      1            4.7524E-02  5.2378E-02 -7.0706E-02  3.1030E-03 -1.2008E-02 -3.1374E-02
      54-      1
      1            4.2685E-02  2.9413E-02 -4.5432E-02 -7.6044E-04 -7.4747E-03 -5.0826E-02
      55-      1
      1            1.2138E-02  1.1748E-02 -1.5104E-02 -1.7957E-03  4.8453E-04 -2.7210E-02
      93-      1
      1            5.3144E-02  9.2073E-02 -9.2274E-02 -9.9458E-03 -5.5533E-02  1.0301E-04
      94-      1
      1            2.9337E-02  4.1797E-02 -3.4454E-02  3.1699E-03 -6.5650E-02 -4.5195E-03
      95-      1
      1            8.0330E-03  7.3202E-03 -1.4506E-02  8.9776E-04 -1.3863E-02 -1.4255E-03



 e l e m e n t   s t r e s s   c a l c u l a t i o n s   f o r   t i m e  s t e p      530   ( at time 1.01455E+01 )

 element  materl
     ipt  stress       sig-xx      sig-yy      sig-zz      sig-xy      sig-yz      sig-zx                       yield
           state                                                                                  effsg      function
      13-      1
       1          -3.2128E+07 -3.2656E+07 -9.8576E+07 -2.6835E+06  5.3099E+07  2.8408E+07    1.2362E+08    8.6688E-02
      14-      1
       1          -8.2916E+07 -8.0073E+07 -1.7047E+08 -4.8843E+06 -2.7321E+07 -5.4557E+07    1.3843E+08    3.6622E-02
      15-      1
       1          -7.4317E+07 -7.5273E+07 -1.4202E+08 -5.6435E+06 -3.7950E+07 -5.6895E+07    1.3655E+08    3.8092E-02
      21-      1
       1          -4.2922E+07 -5.0817E+07 -1.0149E+08 -2.0226E+06  3.2810E+07  8.5654E+06    8.0573E+07    9.3078E-02
      22-      1
       1          -1.4247E+08 -1.3839E+08 -2.0240E+08 -8.7854E+06 -7.2610E+07 -2.6027E+07    1.4810E+08    4.1993E-02
      23-      1
       1          -9.2033E+07 -8.3025E+07 -1.5001E+08 -1.4786E+06 -5.0770E+07 -3.5298E+07    1.2427E+08    3.0177E-02
      53-      1
       1          -2.9953E+07 -1.5568E+07 -1.3031E+08  1.1493E+07  1.9252E+07  3.6101E+07    1.3092E+08    6.8777E-02
      54-      1
       1          -1.0707E+08 -1.5071E+08 -1.9936E+08 -2.0747E+07  6.9777E+06 -3.8128E+07    1.1043E+08    3.8138E-02
      55-      1
       1          -1.8920E+08 -1.2163E+08 -1.8529E+08  1.3501E+07 -4.2696E+07 -1.3941E+07    1.0448E+08    2.4616E-02
      93-      1
       1          -1.9169E+07 -1.9169E+07 -1.9169E+07  0.0000E+00  0.0000E+00  0.0000E+00    0.0000E+00    9.0452E-02
      94-      1
       1          -1.7385E+08 -1.7991E+08 -1.9982E+08  1.3539E+07 -8.5362E+07 -5.5709E+06    1.5185E+08    4.4295E-02
      95-      1
       1          -1.4587E+08 -1.3927E+08 -1.5278E+08  6.5712E+06 -8.0060E+07  5.2514E+06    1.3992E+08    1.5190E-02



 e l e m e n t   s t r a i n   c a l c u l a t i o n s   f o r   t i m e  s t e p      530   ( at time  1.01455E+01 )

 element  strain       eps-xx      eps-yy      eps-zz      eps-xy      eps-yz      eps-zx                            yield
 num/ipt   state
      13-      1
      1            5.2460E-02  7.2151E-02 -1.0044E-01  3.7267E-03 -2.9429E-02 -3.2152E-02
      14-      1
      1            4.7328E-02  4.5273E-02 -5.0113E-02  6.9618E-03 -3.6735E-02 -5.4381E-02
      15-      1
      1            1.1552E-02  1.2182E-02 -2.4076E-02 -6.0845E-04 -8.8435E-03 -1.6067E-02
      21-      1
      1            6.6716E-02  7.9090E-02 -1.1240E-01  8.9578E-04 -5.4643E-02 -1.5239E-02
      22-      1
      1            4.7103E-02  4.3817E-02 -4.7744E-02  7.8391E-03 -5.6762E-02 -3.2738E-02
      23-      1
      1            1.0507E-02  1.0059E-02 -2.0987E-02  1.0188E-03 -1.3557E-02 -8.2547E-03
      53-      1
      1            5.3533E-02  6.4551E-02 -8.2651E-02  4.3042E-03 -1.5399E-02 -3.8992E-02
      54-      1
      1            5.1190E-02  3.4912E-02 -5.2888E-02 -9.1262E-04 -9.9778E-03 -6.0250E-02
      55-      1
      1            1.3347E-02  1.3033E-02 -1.4680E-02 -2.5468E-03  9.6865E-04 -3.4339E-02
      93-      1
      1            6.4552E-02  1.1064E-01 -1.2072E-01 -1.2454E-02 -6.2085E-02 -7.3874E-04
      94-      1
      1            3.4899E-02  4.5409E-02 -4.0160E-02  4.8101E-03 -7.7816E-02 -7.4906E-03
      95-      1
      1            8.5404E-03  8.0293E-03 -1.6038E-02  1.3786E-03 -1.3374E-02 -1.8243E-03



 e l e m e n t   s t r e s s   c a l c u l a t i o n s   f o r   t i m e  s t e p      545   ( at time 1.13086E+01 )

 element  materl
     ipt  stress       sig-xx      sig-yy      sig-zz      sig-xy      sig-yz      sig-zx                       yield
           state                                                                                  effsg      function
      13-      1
       1          -1.4109E+07 -1.0861E+07 -6.9247E+07 -2.1561E+06  6.0688E+07  2.1832E+07    1.2539E+08    9.8617E-02
      14-      1
       1          -3.8070E+07 -7.2990E+07 -1.4316E+08 -9.9556E+06  2.3343E+07 -3.1267E+07    1.1601E+08    3.9320E-02
      15-      1
       1          -9.9233E+07 -1.0044E+08 -1.3222E+08 -5.1966E+06 -1.0995E+07 -5.5472E+07    1.0356E+08    4.4577E-02
      21-      1
       1          -4.4220E+07 -6.5248E+07 -1.2037E+08 -4.0731E+06  1.6209E+07  5.2626E+06    7.4567E+07    1.0732E-01
      22-      1
       1          -1.0282E+08 -7.1887E+07 -1.4958E+08 -7.3254E+06 -5.7338E+07 -1.4704E+07    1.2354E+08    4.5264E-02
      23-      1
       1          -1.0110E+08 -8.3015E+07 -1.1823E+08 -4.1914E+05 -3.5404E+07 -2.8426E+07    8.4354E+07    3.7608E-02
      53-      1
       1          -6.3926E+07 -3.2633E+07 -1.4920E+08  6.9461E+06  2.1591E+07  3.3532E+07    1.2584E+08    7.9363E-02
      54-      1
       1          -1.3091E+08 -1.6004E+08 -2.1878E+08 -3.1755E+07  1.4179E+07 -2.9158E+07    1.1041E+08    4.2726E-02
      55-      1
       1          -1.6545E+08 -9.3141E+07 -1.3420E+08  9.2999E+06 -4.4716E+07 -1.5637E+07    1.0458E+08    2.7699E-02
      93-      1
       1          -6.1309E+06 -6.1309E+06 -6.1309E+06  0.0000E+00  0.0000E+00  0.0000E+00    0.0000E+00    9.0452E-02
      94-      1
       1          -1.1673E+08 -1.1587E+08 -1.2711E+08  1.4391E+07 -8.6054E+07 -7.2866E+06    1.5203E+08    5.0203E-02
      95-      1
       1          -1.2497E+08 -1.2933E+08 -1.0794E+08  5.0920E+06 -8.3032E+07  1.0805E+06    1.4542E+08    1.9589E-02



 e l e m e n t   s t r a i n   c a l c u l a t i o n s   f o r   t i m e  s t e p      545   ( at time  1.13086E+01 )

 element  strain       eps-xx      eps-yy      eps-zz      eps-xy      eps-yz      eps-zx                            yield
 num/ipt   state
      13-      1
      1            5.5786E-02  8.8120E-02 -1.1646E-01  5.0424E-03 -3.3981E-02 -3.7960E-02
      14-      1
      1            5.5265E-02  5.2213E-02 -5.7949E-02  9.0111E-03 -4.5648E-02 -6.6990E-02
      15-      1
      1            1.2151E-02  1.2571E-02 -2.4229E-02 -9.3099E-04 -9.9305E-03 -1.9183E-02
      21-      1
      1            7.6873E-02  9.4737E-02 -1.3475E-01  4.2590E-04 -6.0583E-02 -1.6364E-02
      22-      1
      1            5.5485E-02  5.0601E-02 -5.5166E-02  9.8925E-03 -7.0082E-02 -4.1407E-02
      23-      1
      1            1.0473E-02  1.0391E-02 -2.1487E-02  1.1619E-03 -1.4201E-02 -9.2607E-03
      53-      1
      1            5.8693E-02  7.7245E-02 -9.3254E-02  5.0994E-03 -1.8687E-02 -4.7121E-02
      54-      1
      1            5.7838E-02  4.1230E-02 -6.0802E-02 -3.0887E-03 -1.2740E-02 -6.8259E-02
      55-      1
      1            1.3275E-02  1.5925E-02 -1.3787E-02 -3.2610E-03  6.9002E-04 -4.2630E-02
      93-      1
      1            7.7623E-02  1.2925E-01 -1.5140E-01 -1.3963E-02 -6.8227E-02 -3.3677E-03
      94-      1
      1            4.0873E-02  5.1303E-02 -4.5993E-02  7.2744E-03 -9.1636E-02 -1.0822E-02
      95-      1
      1            8.8483E-03  8.4039E-03 -1.7291E-02  1.7686E-03 -1.3012E-02 -2.2618E-03



 e l e m e n t   s t r e s s   c a l c u l a t i o n s   f o r   t i m e  s t e p      560   ( at time 1.24718E+01 )

 element  materl
     ipt  stress       sig-xx      sig-yy      sig-zz      sig-xy      sig-yz      sig-zx                       yield
           state                                                                                  effsg      function
      13-      1
       1          -5.0537E+07 -5.0690E+07 -7.9295E+07 -2.0622E+06  4.6275E+07  1.2744E+07    8.8015E+07    1.0693E-01
      14-      1
       1          -9.3605E+07 -1.2189E+08 -1.7463E+08 -1.3519E+07  3.4287E+07 -1.9780E+07    1.0160E+08    4.2166E-02
      15-      1
       1          -9.8806E+07 -8.4472E+07 -1.1748E+08 -5.7139E+06 -1.5814E+07 -5.2503E+07    9.9697E+07    4.8898E-02
      21-      1
       1          -6.0971E+07 -9.0910E+07 -1.3787E+08 -6.8759E+06  1.5284E+07  6.9888E+06    7.4144E+07    1.2048E-01
      22-      1
       1          -5.3087E+07 -2.7478E+07 -1.0149E+08 -5.3723E+06 -5.5154E+07 -1.9091E+07    1.2060E+08    4.8586E-02
      23-      1
       1          -1.4777E+08 -1.4587E+08 -1.5480E+08  2.3032E+06 -9.7349E+06 -1.7001E+07    3.5123E+07    4.1002E-02
      53-      1
       1          -5.2911E+07 -4.0312E+07 -1.1821E+08  5.9231E+06  2.9633E+07  2.6780E+07    1.0068E+08    9.0112E-02
      54-      1
       1          -1.3746E+08 -1.5670E+08 -2.1413E+08 -3.3418E+07  1.0984E+07 -3.5403E+07    1.1066E+08    4.7368E-02
      55-      1
       1          -1.0428E+08 -2.8803E+07 -5.4183E+07  1.3874E+07 -5.2740E+07 -2.9926E+07    1.2663E+08    2.9679E-02
      93-      1
       1           0.0000E+00  0.0000E+00  0.0000E+00  0.0000E+00  0.0000E+00  0.0000E+00    0.0000E+00    9.0452E-02
      94-      1
       1          -3.8339E+07 -2.3415E+07 -5.1578E+07  3.3373E+07 -7.9562E+07 -1.0417E+07    1.5249E+08    5.4059E-02
      95-      1
       1          -9.0677E+07 -1.0406E+08 -4.9392E+07  5.9222E+06 -7.9814E+07  4.5707E+06    1.4736E+08    2.3183E-02



 e l e m e n t   s t r a i n   c a l c u l a t i o n s   f o r   t i m e  s t e p      560   ( at time  1.24718E+01 )

 element  strain       eps-xx      eps-yy      eps-zz      eps-xy      eps-yz      eps-zx                            yield
 num/ipt   state
      13-      1
      1            5.7023E-02  1.0249E-01 -1.2891E-01  5.6425E-03 -3.7414E-02 -4.3811E-02
      14-      1
      1            6.2408E-02  6.0904E-02 -6.8750E-02  1.1688E-02 -5.5719E-02 -7.8567E-02
      15-      1
      1            1.2665E-02  1.3025E-02 -2.4330E-02 -1.4261E-03 -1.0428E-02 -2.1335E-02
      21-      1
      1            8.6437E-02  1.0748E-01 -1.5432E-01 -7.2266E-04 -6.7697E-02 -1.7738E-02
      22-      1
      1            6.4288E-02  5.4852E-02 -6.5059E-02  1.1705E-02 -8.5060E-02 -4.9015E-02
      23-      1
      1            1.0618E-02  1.0223E-02 -2.1115E-02  1.2815E-03 -1.4420E-02 -9.3360E-03
      53-      1
      1            6.0470E-02  8.9377E-02 -1.0231E-01  5.4919E-03 -2.0738E-02 -5.2588E-02
      54-      1
      1            6.4769E-02  4.8546E-02 -6.8481E-02 -5.0904E-03 -1.6407E-02 -7.3095E-02
      55-      1
      1            1.5525E-02  1.8177E-02 -1.2562E-02 -3.9827E-03 -3.3743E-04 -5.4553E-02
      93-      1
      1            8.7661E-02  1.4681E-01 -1.7885E-01 -1.7774E-02 -7.3555E-02 -7.4847E-03
      94-      1
      1            4.5496E-02  5.9458E-02 -5.6122E-02  9.4182E-03 -1.0782E-01 -1.3784E-02
      95-      1
      1            8.8440E-03  8.1676E-03 -1.6460E-02  2.4017E-03 -1.2637E-02 -2.3881E-03



 e l e m e n t   s t r e s s   c a l c u l a t i o n s   f o r   t i m e  s t e p      575   ( at time 1.36349E+01 )

 element  materl
     ipt  stress       sig-xx      sig-yy      sig-zz      sig-xy      sig-yz      sig-zx                       yield
           state                                                                                  effsg      function
      13-      1
       1          -1.6632E+08 -1.5258E+08 -1.9168E+08 -1.8993E+06  2.4727E+07 -1.6085E+07    6.1655E+07    1.1401E-01
      14-      1
       1          -5.5721E+07 -7.0115E+07 -1.3285E+08 -1.0934E+07  1.8053E+07 -3.1748E+07    9.6982E+07    4.5600E-02
      15-      1
       1          -8.4740E+07 -7.6954E+07 -1.0550E+08 -6.5814E+06 -2.9568E+07 -6.7234E+07    1.3026E+08    5.4191E-02
      21-      1
       1          -8.8425E+07 -1.1886E+08 -1.5863E+08 -8.1067E+06  1.4532E+07  1.5843E+07    7.2816E+07    1.3095E-01
      22-      1
       1          -3.9848E+07 -1.0722E+07 -9.3439E+07 -2.0707E+06 -3.8109E+07 -8.3562E+06    9.9300E+07    4.9830E-02
      23-      1
       1          -1.4365E+08 -1.4745E+08 -1.3905E+08  6.1562E+06 -3.6000E+06 -1.1498E+07    2.4543E+07    4.3303E-02
      53-      1
       1          -3.6407E+07 -1.8788E+07 -9.8952E+07  7.3630E+06  3.5116E+07  3.2587E+07    1.1123E+08    9.7841E-02
      54-      1
       1          -4.7910E+07 -7.5753E+07 -1.2751E+08 -3.0012E+07  4.0545E+06 -4.1097E+07    1.1276E+08    5.5058E-02
      55-      1
       1          -3.1058E+07  3.9474E+07  1.9632E+07  2.2466E+07 -5.0885E+07 -2.7064E+07    1.2429E+08    3.2878E-02
      93-      1
       1          -2.5281E+07 -2.5281E+07 -2.5281E+07  0.0000E+00  0.0000E+00  0.0000E+00    0.0000E+00    9.0452E-02
      94-      1
       1          -3.5801E+07  2.3782E+06 -1.3647E+07  2.4441E+07 -8.0337E+07 -6.7688E+06    1.4965E+08    5.5931E-02
      95-      1
       1          -9.1109E+07 -8.8397E+07 -3.0941E+07  2.6620E+06 -6.0945E+07  6.9299E+06    1.2154E+08    2.4629E-02



 e l e m e n t   s t r a i n   c a l c u l a t i o n s   f o r   t i m e  s t e p      575   ( at time  1.36349E+01 )

 element  strain       eps-xx      eps-yy      eps-zz      eps-xy      eps-yz      eps-zx                            yield
 num/ipt   state
      13-      1
      1            6.1609E-02  1.1033E-01 -1.3922E-01  3.7859E-03 -3.8371E-02 -4.8758E-02
      14-      1
      1            6.8890E-02  7.0285E-02 -8.2491E-02  1.3709E-02 -6.6057E-02 -8.9729E-02
      15-      1
      1            1.3801E-02  1.3410E-02 -2.5022E-02 -2.1037E-03 -1.2039E-02 -2.4734E-02
      21-      1
      1            9.6405E-02  1.1658E-01 -1.7100E-01 -3.0218E-03 -7.5292E-02 -1.9039E-02
      22-      1
      1            7.1717E-02  5.8578E-02 -7.7283E-02  1.4131E-02 -9.9290E-02 -5.5850E-02
      23-      1
      1            1.0673E-02  9.9046E-03 -2.0745E-02  1.5602E-03 -1.4217E-02 -9.1687E-03
      53-      1
      1            6.2869E-02  9.7506E-02 -1.0829E-01  6.2573E-03 -2.0204E-02 -5.8049E-02
      54-      1
      1            7.1452E-02  5.6044E-02 -7.9746E-02 -8.3451E-03 -1.9308E-02 -7.6408E-02
      55-      1
      1            2.0396E-02  2.1738E-02 -1.3798E-02 -3.9702E-03 -2.0857E-03 -7.3058E-02
      93-      1
      1            9.8473E-02  1.5938E-01 -2.0385E-01 -1.9375E-02 -7.9821E-02 -1.1308E-02
      94-      1
      1            4.9810E-02  6.5711E-02 -6.6355E-02  1.0724E-02 -1.2238E-01 -1.7750E-02
      95-      1
      1            8.2604E-03  8.1336E-03 -1.6084E-02  2.4886E-03 -1.1721E-02 -2.3325E-03



 e l e m e n t   s t r e s s   c a l c u l a t i o n s   f o r   t i m e  s t e p      590   ( at time 1.47981E+01 )

 element  materl
     ipt  stress       sig-xx      sig-yy      sig-zz      sig-xy      sig-yz      sig-zx                       yield
           state                                                                                  effsg      function
      13-      1
       1          -1.9656E+08 -1.8026E+08 -2.4224E+08 -5.5481E+05  6.8776E+06 -2.0798E+07    6.7362E+07    1.2355E-01
      14-      1
       1          -8.1331E+07 -7.4264E+07 -1.3433E+08 -7.7534E+06  2.2665E+07 -5.6258E+06    7.1064E+07    4.8825E-02
      15-      1
       1          -7.3694E+07 -6.4904E+07 -1.0558E+08 -1.3141E+07 -2.5374E+07 -5.9377E+07    1.2000E+08    6.0489E-02
      21-      1
       1          -4.9002E+07 -1.0772E+08 -1.3538E+08 -1.6691E+07  2.6388E+07  8.7664E+06    9.4827E+07    1.4014E-01
      22-      1
       1           2.5496E+07  8.9377E+07 -4.8870E+07  5.7258E+06 -4.8496E+05 -9.8945E+06    1.2147E+08    5.2816E-02
      23-      1
       1          -1.1547E+08 -9.7216E+07 -1.0372E+08  6.4874E+06 -5.1879E+06 -7.9841E+06    2.5594E+07    4.6976E-02
      53-      1
       1          -9.7924E+07 -8.2460E+07 -1.3866E+08  4.9879E+06  1.1574E+07  2.8422E+07    7.3679E+07    1.0382E-01
      54-      1
       1          -7.9162E+07 -1.0705E+08 -1.2852E+08 -2.2121E+07  9.8018E+06 -3.0358E+07    7.9739E+07    5.9046E-02
      55-      1
       1          -1.6187E+07  2.6929E+07 -6.4562E+06  1.5474E+07 -4.2503E+07 -1.9567E+07    9.3918E+07    3.5605E-02
      93-      1
       1          -1.3517E+07 -2.1566E+07 -4.2312E+07  7.8724E+05 -1.7771E+07  7.7471E+05    4.0165E+07    9.5355E-02
      94-      1
       1           3.2486E+06  8.1836E+07  4.9774E+07  3.3832E+07 -6.0323E+07  2.1274E+06    1.3802E+08    5.7261E-02
      95-      1
       1          -6.7653E+07 -7.2967E+07 -1.3596E+07  2.2149E+06 -5.9546E+07  4.1003E+06    1.1807E+08    2.7882E-02



 e l e m e n t   s t r a i n   c a l c u l a t i o n s   f o r   t i m e  s t e p      590   ( at time  1.47981E+01 )

 element  strain       eps-xx      eps-yy      eps-zz      eps-xy      eps-yz      eps-zx                            yield
 num/ipt   state
      13-      1
      1            6.6177E-02  1.1799E-01 -1.4729E-01  3.7118E-03 -3.9425E-02 -5.2828E-02
      14-      1
      1            7.5752E-02  7.9572E-02 -9.9242E-02  1.6837E-02 -7.6525E-02 -9.7745E-02
      15-      1
      1            1.4523E-02  1.4856E-02 -2.6249E-02 -2.8863E-03 -1.4029E-02 -2.7965E-02
      21-      1
      1            1.0247E-01  1.2448E-01 -1.8176E-01 -5.0256E-03 -8.3448E-02 -2.2295E-02
      22-      1
      1            7.7912E-02  6.5687E-02 -9.4715E-02  1.6770E-02 -1.1348E-01 -6.3151E-02
      23-      1
      1            1.0579E-02  1.0519E-02 -2.0013E-02  1.6489E-03 -1.5871E-02 -9.3039E-03
      53-      1
      1            6.4465E-02  1.0501E-01 -1.1279E-01  5.4834E-03 -1.8556E-02 -6.1238E-02
      54-      1
      1            7.8658E-02  6.4317E-02 -8.9534E-02 -1.1405E-02 -2.3618E-02 -7.5102E-02
      55-      1
      1            2.6602E-02  2.4839E-02 -2.0038E-02 -5.3976E-03 -4.1770E-03 -8.9290E-02
      93-      1
      1            1.1168E-01  1.6786E-01 -2.2710E-01 -1.8483E-02 -8.7219E-02 -1.3538E-02
      94-      1
      1            5.4495E-02  7.0901E-02 -7.6237E-02  1.3568E-02 -1.3534E-01 -1.9813E-02
      95-      1
      1            7.8717E-03  7.9027E-03 -1.5343E-02  2.7075E-03 -1.1952E-02 -2.2410E-03



 e l e m e n t   s t r e s s   c a l c u l a t i o n s   f o r   t i m e  s t e p      605   ( at time 1.59612E+01 )

 element  materl
     ipt  stress       sig-xx      sig-yy      sig-zz      sig-xy      sig-yz      sig-zx                       yield
           state                                                                                  effsg      function
      13-      1
       1          -1.1252E+08 -9.9276E+07 -1.6050E+08  2.1014E+06  1.5163E+07 -2.9907E+07    8.0621E+07    1.3448E-01
      14-      1
       1          -4.9141E+07 -4.1690E+07 -9.6128E+07 -1.1497E+07  2.8523E+07 -7.6442E+06    7.5007E+07    5.1457E-02
      15-      1
       1          -9.1413E+07 -7.9871E+07 -1.0324E+08 -6.2758E+06 -2.2669E+07 -4.6061E+07    9.1837E+07    6.7123E-02
      21-      1
       1          -4.1486E+07 -7.5660E+07 -1.2296E+08 -4.9817E+06  1.3546E+07  1.2730E+07    7.8309E+07    1.5081E-01
      22-      1
       1          -3.2356E+07 -1.0509E+07 -4.5970E+07 -3.6709E+06  9.3475E+06  9.5374E+06    3.9185E+07    5.3569E-02
      23-      1
       1          -1.2506E+08 -8.6131E+07 -1.2256E+08  1.3766E+06  1.5005E+07 -4.5472E+06    4.6557E+07    5.1618E-02
      53-      1
       1          -2.5226E+07  4.0521E+06 -7.4859E+07 -1.0945E+06 -1.1791E+07  1.1711E+07    7.4873E+07    1.1290E-01
      54-      1
       1          -5.6226E+07 -8.8149E+07 -9.9496E+07 -2.6161E+07  5.5696E+06 -2.9897E+07    7.9610E+07    6.3526E-02
      55-      1
       1           1.9370E+07  5.6114E+07  1.8544E+07  1.4127E+07 -4.3401E+07 -1.1844E+07    8.9731E+07    3.8101E-02
      93-      1
       1          -1.5722E+07 -3.1033E+07 -4.8003E+07  3.7515E+06 -1.6962E+07  2.7038E+06    4.1347E+07    9.9335E-02
      94-      1
       1           2.0518E+07  6.3221E+07  1.5426E+07  9.9445E+06 -2.4858E+07 -2.4410E+06    6.5079E+07    5.8448E-02
      95-      1
       1          -3.2797E+07 -2.1789E+07 -7.3178E+05  3.7652E+06 -4.6590E+07  1.3778E+06    8.5769E+07    3.1069E-02



 e l e m e n t   s t r a i n   c a l c u l a t i o n s   f o r   t i m e  s t e p      605   ( at time  1.59612E+01 )

 element  strain       eps-xx      eps-yy      eps-zz      eps-xy      eps-yz      eps-zx                            yield
 num/ipt   state
      13-      1
      1            7.4000E-02  1.2564E-01 -1.5977E-01  4.5338E-03 -3.9439E-02 -5.9311E-02
      14-      1
      1            8.1645E-02  8.8987E-02 -1.1836E-01  2.0560E-02 -8.7784E-02 -1.0903E-01
      15-      1
      1            1.4905E-02  1.5563E-02 -2.6576E-02 -3.4647E-03 -1.4280E-02 -3.0568E-02
      21-      1
      1            1.1194E-01  1.3216E-01 -1.9519E-01 -6.6295E-03 -8.6741E-02 -2.5007E-02
      22-      1
      1            8.5930E-02  7.8736E-02 -1.1902E-01  2.0865E-02 -1.2860E-01 -7.0269E-02
      23-      1
      1            1.0120E-02  1.2058E-02 -1.9710E-02  1.7702E-03 -1.5772E-02 -9.6929E-03
      53-      1
      1            6.5782E-02  1.1680E-01 -1.2091E-01  6.9100E-03 -1.9328E-02 -6.7853E-02
      54-      1
      1            8.1312E-02  7.3084E-02 -9.5111E-02 -1.6048E-02 -3.1420E-02 -7.6604E-02
      55-      1
      1            3.4898E-02  2.7365E-02 -2.7874E-02 -7.1562E-03 -6.5003E-03 -1.0647E-01
      93-      1
      1            1.2356E-01  1.7162E-01 -2.4560E-01 -1.5212E-02 -9.3449E-02 -1.2550E-02
      94-      1
      1            5.9334E-02  7.8133E-02 -9.2132E-02  1.8177E-02 -1.4953E-01 -1.9772E-02
      95-      1
      1            7.7443E-03  8.6977E-03 -1.5373E-02  2.9794E-03 -1.2341E-02 -2.5912E-03



 e l e m e n t   s t r e s s   c a l c u l a t i o n s   f o r   t i m e  s t e p      614   ( at time 1.71244E+01 )

 element  materl
     ipt  stress       sig-xx      sig-yy      sig-zz      sig-xy      sig-yz      sig-zx                       yield
           state                                                                                  effsg      function
      13-      1
       1          -1.3340E+08 -1.3058E+08 -1.8479E+08 -4.1969E+06  8.5606E+06 -3.4749E+06    5.5704E+07    1.3764E-01
      14-      1
       1          -1.3564E+08 -1.3276E+08 -2.0821E+08 -6.0049E+06  8.4551E+06 -1.2170E+07    7.9057E+07    5.3797E-02
      15-      1
       1          -1.7711E+07 -1.2889E+07 -5.5387E+07 -1.1727E+07 -4.2555E+07 -8.0239E+07    1.6366E+08    7.0606E-02
      21-      1
       1          -3.8008E+07 -6.0593E+07 -1.3590E+08 -3.4345E+06  2.1785E+06  1.6929E+07    9.3760E+07    1.5592E-01
      22-      1
       1          -1.1644E+08 -1.0595E+08 -1.4937E+08 -1.4509E+06  2.1196E+06  1.5654E+06    3.9587E+07    5.4702E-02
      23-      1
       1          -6.1294E+07 -5.6877E+07 -1.0901E+08 -8.7409E+06 -2.0225E+07 -2.4440E+07    7.5865E+07    5.2137E-02
      53-      1
       1          -4.0851E+07 -1.9416E+07 -1.0725E+08 -2.8295E+06 -1.3726E+07  5.3052E+06    8.3458E+07    1.1667E-01
      54-      1
       1          -8.7989E+07 -1.1439E+08 -1.6770E+08 -1.7409E+07 -1.2802E+06 -1.7325E+07    8.2228E+07    6.5065E-02
      55-      1
       1          -3.2024E+07 -2.2226E+07 -7.1877E+07  6.8338E+06 -2.1062E+07 -2.0198E+07    6.9062E+07    3.9535E-02
      93-      1
       1          -2.5068E+07 -3.3554E+07 -5.9754E+07  4.6002E+06  2.9468E+06 -1.0239E+07    3.7213E+07    9.9813E-02
      94-      1
       1          -1.4992E+08 -1.4095E+08 -1.8350E+08  2.1818E+06 -2.3270E+06  3.6042E+06    3.9734E+07    5.9246E-02
      95-      1
       1          -4.5102E+07 -4.2954E+07 -4.2528E+07 -1.7981E+06 -3.9649E+07  4.1639E+06    6.9163E+07    3.2019E-02



 e l e m e n t   s t r a i n   c a l c u l a t i o n s   f o r   t i m e  s t e p      614   ( at time  1.71244E+01 )

 element  strain       eps-xx      eps-yy      eps-zz      eps-xy      eps-yz      eps-zx                            yield
 num/ipt   state
      13-      1
      1            7.6706E-02  1.3103E-01 -1.6611E-01  4.4899E-03 -4.0011E-02 -6.1612E-02
      14-      1
      1            8.6373E-02  9.3667E-02 -1.3441E-01  2.1434E-02 -9.0059E-02 -1.1265E-01
      15-      1
      1            1.6404E-02  1.6391E-02 -2.7844E-02 -3.6653E-03 -1.6396E-02 -3.2911E-02
      21-      1
      1            1.1702E-01  1.3712E-01 -2.0471E-01 -6.6625E-03 -8.9157E-02 -2.5440E-02
      22-      1
      1            9.1421E-02  8.3433E-02 -1.3594E-01  2.2302E-02 -1.3169E-01 -7.1200E-02
      23-      1
      1            1.1076E-02  1.2325E-02 -2.0430E-02  1.5008E-03 -1.6873E-02 -9.8605E-03
      53-      1
      1            6.7612E-02  1.2042E-01 -1.2554E-01  6.9588E-03 -2.0060E-02 -7.0386E-02
      54-      1
      1            8.4098E-02  7.5894E-02 -1.0219E-01 -1.6776E-02 -3.4364E-02 -7.7666E-02
      55-      1
      1            4.0147E-02  2.9910E-02 -3.6399E-02 -7.1423E-03 -8.8492E-03 -1.1094E-01
      93-      1
      1            1.2951E-01  1.7571E-01 -2.5500E-01 -1.5477E-02 -9.4795E-02 -1.3881E-02
      94-      1
      1            6.2655E-02  8.3789E-02 -1.0885E-01  1.8974E-02 -1.5211E-01 -2.0608E-02
      95-      1
      1            8.1712E-03  9.4473E-03 -1.5559E-02  2.8984E-03 -1.4030E-02 -2.2669E-03



 e l e m e n t   s t r e s s   c a l c u l a t i o n s   f o r   t i m e  s t e p      629   ( at time 1.82875E+01 )

 element  materl
     ipt  stress       sig-xx      sig-yy      sig-zz      sig-xy      sig-yz      sig-zx                       yield
           state                                                                                  effsg      function
      13-      1
       1          -1.1783E+08 -1.1558E+08 -1.7123E+08  1.2703E+06  9.4943E+06 -5.9847E+06    5.7960E+07    1.4533E-01
      14-      1
       1          -8.2193E+06 -1.9648E+07 -7.0073E+07 -1.6469E+07  1.7685E+07 -1.5079E+07    7.5390E+07    5.6579E-02
      15-      1
       1          -6.9468E+07 -7.3211E+07 -7.6446E+07 -4.7033E+05 -3.3363E+07 -5.5021E+07    1.1162E+08    7.5947E-02
      21-      1
       1          -2.0527E+07 -3.7226E+07 -9.6030E+07 -5.8779E+06 -6.8426E+06 -2.4122E+06    7.0571E+07    1.6264E-01
      22-      1
       1          -4.5696E+07 -1.4136E+07 -4.8817E+07  5.8545E+06 -1.4751E+06 -5.2546E+06    3.6006E+07    5.4741E-02
      23-      1
       1          -2.7906E+07 -2.9254E+07 -5.2692E+07  6.7877E+06 -1.3209E+07 -3.1000E+07    6.4244E+07    5.4950E-02
      53-      1
       1          -4.6625E+07 -2.3201E+07 -1.1112E+08 -1.0709E+06 -1.3357E+07  1.2505E+07    8.5011E+07    1.2702E-01
      54-      1
       1          -2.6726E+07 -5.2713E+07 -9.9942E+07 -1.9784E+07  4.6786E+06 -1.8623E+07    8.0085E+07    6.7414E-02
      55-      1
       1           2.2824E+07  3.1005E+07 -1.4621E+06  1.2563E+07 -2.1901E+07 -8.1349E+06    5.4464E+07    4.1102E-02
      93-      1
       1           1.5354E+07  9.7935E+06 -2.5148E+07  2.5846E+06 -9.4461E+06  3.9168E+06    4.2189E+07    1.0299E-01
      94-      1
       1          -2.9863E+07  3.7991E+06 -1.8204E+07  1.1341E+07 -3.6071E+07 -1.0841E+07    7.4286E+07    6.0186E-02
      95-      1
       1          -4.5480E+07 -4.3623E+07 -3.7714E+07  2.7459E+06 -2.5000E+07 -3.3156E+06    4.4496E+07    3.2993E-02



 e l e m e n t   s t r a i n   c a l c u l a t i o n s   f o r   t i m e  s t e p      629   ( at time  1.82875E+01 )

 element  strain       eps-xx      eps-yy      eps-zz      eps-xy      eps-yz      eps-zx                            yield
 num/ipt   state
      13-      1
      1            8.1679E-02  1.3937E-01 -1.7967E-01  5.9220E-03 -3.8781E-02 -6.6695E-02
      14-      1
      1            9.5378E-02  1.0290E-01 -1.5769E-01  2.4844E-02 -9.6068E-02 -1.2211E-01
      15-      1
      1            1.8432E-02  1.7328E-02 -2.7437E-02 -3.9035E-03 -1.9072E-02 -3.8260E-02
      21-      1
      1            1.3145E-01  1.4905E-01 -2.2729E-01 -8.7976E-03 -9.5560E-02 -2.5842E-02
      22-      1
      1            1.0311E-01  9.3819E-02 -1.5690E-01  2.6637E-02 -1.4560E-01 -7.6028E-02
      23-      1
      1            1.1264E-02  1.2577E-02 -2.0498E-02  2.1936E-03 -1.7728E-02 -1.1007E-02
      53-      1
      1            7.1172E-02  1.3309E-01 -1.3744E-01  7.9083E-03 -2.2702E-02 -7.5574E-02
      54-      1
      1            8.5984E-02  8.5741E-02 -1.0984E-01 -1.8875E-02 -3.9607E-02 -8.0279E-02
      55-      1
      1            4.9854E-02  3.4324E-02 -4.5194E-02 -6.1251E-03 -1.2047E-02 -1.2740E-01
      93-      1
      1            1.4075E-01  1.9287E-01 -2.8130E-01 -1.3034E-02 -9.7472E-02 -1.4563E-02
      94-      1
      1            6.6889E-02  9.9535E-02 -1.2384E-01  2.2640E-02 -1.6440E-01 -2.2021E-02
      95-      1
      1            7.8837E-03  1.0347E-02 -1.5973E-02  3.3142E-03 -1.3279E-02 -2.6195E-03



 e l e m e n t   s t r e s s   c a l c u l a t i o n s   f o r   t i m e  s t e p      638   ( at time 1.94507E+01 )

 element  materl
     ipt  stress       sig-xx      sig-yy      sig-zz      sig-xy      sig-yz      sig-zx                       yield
           state                                                                                  effsg      function
      13-      1
       1          -1.1097E+08 -1.1516E+08 -1.8009E+08 -7.1995E+05  1.8731E+07 -1.3621E+06    7.4596E+07    1.4889E-01
      14-      1
       1          -7.0405E+07 -7.7638E+07 -1.1122E+08 -4.1403E+06 -4.3970E+06 -6.6253E+06    4.0797E+07    5.7991E-02
      15-      1
       1           8.4511E+06 -9.0574E+05 -3.9136E+07 -1.9045E+06 -4.2264E+07 -6.7702E+07    1.4501E+08    7.9091E-02
      21-      1
       1          -2.7477E+07 -3.1650E+07 -6.2563E+07 -2.2927E+06 -1.7802E+07 -5.5586E+06    4.6488E+07    1.6448E-01
      22-      1
       1          -9.5671E+07 -9.7515E+07 -1.3601E+08  3.7582E+06  2.9733E+05  4.5974E+05    3.9995E+07    5.5917E-02
      23-      1
       1          -2.3236E+07 -4.4304E+07 -7.0824E+07  2.2334E+06 -3.4164E+07 -2.6154E+07    8.5291E+07    5.6401E-02
      53-      1
       1          -5.2323E+07 -3.2626E+07 -1.1107E+08  9.1128E+05  2.9051E+06  1.1864E+07    7.3799E+07    1.2920E-01
      54-      1
       1          -7.1134E+07 -9.0771E+07 -1.5129E+08 -1.4777E+07 -5.7431E+06 -1.8056E+07    8.3478E+07    6.9214E-02
      55-      1
       1           1.3341E+05  1.2318E+06 -4.6311E+07  6.6064E+06 -1.8176E+07 -2.1182E+07    6.8391E+07    4.2307E-02
      93-      1
       1          -1.4211E+07 -1.4211E+07 -1.4211E+07  0.0000E+00  0.0000E+00  0.0000E+00    0.0000E+00    1.0299E-01
      94-      1
       1          -1.3171E+08 -1.2688E+08 -1.6416E+08  1.1981E+06 -1.1031E+07 -6.8988E+05    4.0048E+07    6.0889E-02
      95-      1
       1          -2.3144E+07 -2.3023E+07 -2.3488E+07 -3.3634E+06 -3.1603E+07 -1.0536E+06    5.5079E+07    3.4182E-02



 e l e m e n t   s t r a i n   c a l c u l a t i o n s   f o r   t i m e  s t e p      638   ( at time  1.94507E+01 )

 element  strain       eps-xx      eps-yy      eps-zz      eps-xy      eps-yz      eps-zx                            yield
 num/ipt   state
      13-      1
      1            8.3556E-02  1.4482E-01 -1.8507E-01  5.8128E-03 -4.0172E-02 -7.0111E-02
      14-      1
      1            1.0178E-01  1.0843E-01 -1.7460E-01  2.6195E-02 -9.8074E-02 -1.2576E-01
      15-      1
      1            2.1466E-02  1.8812E-02 -2.9935E-02 -3.9824E-03 -2.0876E-02 -4.2143E-02
      21-      1
      1            1.3667E-01  1.5493E-01 -2.3790E-01 -9.0017E-03 -9.7954E-02 -2.5527E-02
      22-      1
      1            1.0990E-01  9.8861E-02 -1.7456E-01  2.8701E-02 -1.4927E-01 -7.5894E-02
      23-      1
      1            1.2944E-02  1.2677E-02 -2.1368E-02  2.3378E-03 -1.9729E-02 -1.2086E-02
      53-      1
      1            7.4778E-02  1.3819E-01 -1.4464E-01  7.6361E-03 -2.3915E-02 -7.8991E-02
      54-      1
      1            8.8812E-02  8.8852E-02 -1.1660E-01 -1.9251E-02 -4.2081E-02 -8.1912E-02
      55-      1
      1            5.5732E-02  3.5820E-02 -5.4843E-02 -6.2280E-03 -1.3249E-02 -1.3181E-01
      93-      1
      1            1.4702E-01  1.9788E-01 -2.9428E-01 -1.3222E-02 -9.8123E-02 -1.4999E-02
      94-      1
      1            7.0723E-02  1.0664E-01 -1.4080E-01  2.3271E-02 -1.6557E-01 -2.2064E-02
      95-      1
      1            8.5701E-03  1.0913E-02 -1.6154E-02  3.2452E-03 -1.4832E-02 -2.6770E-03



 e l e m e n t   s t r e s s   c a l c u l a t i o n s   f o r   t i m e  s t e p      653   ( at time 2.06138E+01 )

 element  materl
     ipt  stress       sig-xx      sig-yy      sig-zz      sig-xy      sig-yz      sig-zx                       yield
           state                                                                                  effsg      function
      13-      1
       1          -4.7518E+07 -4.6973E+07 -1.1591E+08  8.4459E+05  6.3493E+06 -7.8841E+06    7.0888E+07    1.5673E-01
      14-      1
       1          -5.5514E+07 -6.1558E+07 -9.1110E+07 -1.1180E+07 -8.4331E+06 -1.5756E+06    4.1039E+07    5.8821E-02
      15-      1
       1          -7.3847E+07 -6.7126E+07 -7.5919E+07 -1.2875E+06 -2.8216E+07 -2.8820E+07    7.0346E+07    8.2542E-02
      21-      1
       1           2.2092E+07 -5.7734E+06 -1.8060E+07  2.8641E+06 -1.7292E+07 -1.1807E+06    4.6858E+07    1.6664E-01
      22-      1
       1          -1.1453E+06 -1.1148E+07 -2.1667E+07 -3.3993E+06 -1.1571E+07 -1.8901E+07    4.2708E+07    5.6617E-02
      23-      1
       1          -2.1155E+07 -2.1570E+07 -4.1700E+07  7.5451E+06 -9.4168E+06 -2.2299E+07    4.8397E+07    5.9123E-02
      53-      1
       1          -1.7833E+07  1.3060E+07 -1.0266E+08  1.8282E+06 -1.0700E+07  8.1110E+06    1.0640E+08    1.3773E-01
      54-      1
       1          -2.8154E+06 -1.5367E+07 -8.2667E+07 -9.1761E+06 -6.9232E+06 -1.5725E+07    8.1669E+07    7.0669E-02
      55-      1
       1           7.3953E+06  2.8909E+07 -1.5797E+07  7.9109E+06 -2.3160E+07 -2.6173E+06    5.7594E+07    4.3550E-02
      93-      1
       1           0.0000E+00  0.0000E+00  0.0000E+00  0.0000E+00  0.0000E+00  0.0000E+00    0.0000E+00    1.0299E-01
      94-      1
       1          -3.3830E+07 -1.6977E+07  4.4923E+07  3.9402E+06 -3.3974E+07  9.9224E+06    9.4676E+07    6.1494E-02
      95-      1
       1          -7.8233E+07 -6.4423E+07 -6.7182E+07  2.4212E+06 -1.9009E+07  7.3794E+06    3.7752E+07    3.4182E-02



 e l e m e n t   s t r a i n   c a l c u l a t i o n s   f o r   t i m e  s t e p      653   ( at time  2.06138E+01 )

 element  strain       eps-xx      eps-yy      eps-zz      eps-xy      eps-yz      eps-zx                            yield
 num/ipt   state
      13-      1
      1            9.0177E-02  1.5644E-01 -1.9862E-01  5.9246E-03 -3.8064E-02 -7.8367E-02
      14-      1
      1            1.0793E-01  1.1931E-01 -1.9707E-01  2.9496E-02 -1.0217E-01 -1.3347E-01
      15-      1
      1            2.2848E-02  1.9357E-02 -2.9465E-02 -3.7662E-03 -2.3407E-02 -4.8324E-02
      21-      1
      1            1.5137E-01  1.6486E-01 -2.6034E-01 -4.7422E-03 -1.0023E-01 -2.0254E-02
      22-      1
      1            1.2107E-01  1.1030E-01 -1.9724E-01  3.3974E-02 -1.5946E-01 -7.4535E-02
      23-      1
      1            1.3550E-02  1.3258E-02 -2.0700E-02  2.6220E-03 -2.1276E-02 -1.4618E-02
      53-      1
      1            7.9501E-02  1.5042E-01 -1.5849E-01  7.0645E-03 -2.9953E-02 -8.3699E-02
      54-      1
      1            9.1203E-02  9.9250E-02 -1.2559E-01 -1.9598E-02 -4.9644E-02 -8.4942E-02
      55-      1
      1            6.4355E-02  4.0386E-02 -6.5757E-02 -4.9002E-03 -1.7004E-02 -1.4520E-01
      93-      1
      1            1.5726E-01  2.1151E-01 -3.1859E-01 -1.1466E-02 -1.0405E-01 -1.7132E-02
      94-      1
      1            7.3682E-02  1.1667E-01 -1.5359E-01  2.5694E-02 -1.7651E-01 -2.3387E-02
      95-      1
      1            8.3704E-03  1.1101E-02 -1.6638E-02  3.2209E-03 -1.4856E-02 -2.9922E-03



 e l e m e n t   s t r e s s   c a l c u l a t i o n s   f o r   t i m e  s t e p      662   ( at time 2.17770E+01 )

 element  materl
     ipt  stress       sig-xx      sig-yy      sig-zz      sig-xy      sig-yz      sig-zx                       yield
           state                                                                                  effsg      function
      13-      1
       1          -1.7569E+07 -1.3143E+07 -1.3077E+08 -5.1927E+06  1.1862E+07 -1.3294E+06    1.1766E+08    1.6101E-01
      14-      1
       1          -4.6180E+07 -5.8726E+07 -8.8495E+07 -5.8915E+06 -7.3079E+06 -3.3134E+06    4.1404E+07    6.0121E-02
      15-      1
       1          -3.8283E+07 -4.7715E+07 -7.4200E+07 -2.9457E+06 -3.4862E+07 -4.1811E+07    9.9784E+07    8.4827E-02
      21-      1
       1          -1.4494E+07 -1.4494E+07 -1.4494E+07  0.0000E+00  0.0000E+00  0.0000E+00    0.0000E+00    1.6664E-01
      22-      1
       1          -5.9515E+07 -5.8937E+07 -9.6153E+07  5.7405E+05 -6.8983E+06 -6.7708E+06    4.0560E+07    5.7713E-02
      23-      1
       1          -1.1903E+07 -9.4671E+06 -5.5070E+07  4.6005E+05 -7.4015E+06 -3.3545E+07    7.4266E+07    6.0267E-02
      53-      1
       1          -4.7889E+07 -3.0538E+07 -1.1706E+08  4.8936E+04  2.1210E+06  8.7569E+06    8.0807E+07    1.4022E-01
      54-      1
       1          -3.8947E+07 -4.4652E+07 -1.1949E+08 -9.5963E+06 -7.9193E+06 -1.4620E+07    8.4650E+07    7.2424E-02
      55-      1
       1           9.6077E+06  1.1700E+07 -4.4632E+07  4.1962E+06 -2.0010E+07 -9.8628E+06    6.7864E+07    4.4454E-02
      93-      1
       1          -1.7211E+06 -1.7211E+06 -1.7211E+06  0.0000E+00  0.0000E+00  0.0000E+00    0.0000E+00    1.0299E-01
      94-      1
       1          -1.1807E+08 -1.1970E+08 -1.5835E+08  6.0069E+05 -3.9460E+06 -1.7072E+06    4.0200E+07    6.1965E-02
      95-      1
       1          -3.1996E+07 -2.8895E+07 -6.0517E+07  2.9760E+06 -5.4331E+07 -1.1825E+07    1.0106E+08    3.5561E-02



 e l e m e n t   s t r a i n   c a l c u l a t i o n s   f o r   t i m e  s t e p      662   ( at time  2.17770E+01 )

 element  strain       eps-xx      eps-yy      eps-zz      eps-xy      eps-yz      eps-zx                            yield
 num/ipt   state
      13-      1
      1            9.3479E-02  1.6432E-01 -2.0833E-01  5.4807E-03 -4.0018E-02 -8.1578E-02
      14-      1
      1            1.1519E-01  1.2517E-01 -2.1327E-01  2.9964E-02 -1.0403E-01 -1.3577E-01
      15-      1
      1            2.6646E-02  2.0588E-02 -3.2127E-02 -3.9264E-03 -2.5787E-02 -5.2921E-02
      21-      1
      1            1.5753E-01  1.7095E-01 -2.7286E-01 -4.7045E-03 -1.0074E-01 -2.0538E-02
      22-      1
      1            1.2703E-01  1.1803E-01 -2.1563E-01  3.6497E-02 -1.6061E-01 -7.4337E-02
      23-      1
      1            1.5377E-02  1.4390E-02 -2.2204E-02  2.9982E-03 -2.4032E-02 -1.6613E-02
      53-      1
      1            8.3665E-02  1.5604E-01 -1.6678E-01  6.4601E-03 -3.0865E-02 -8.7552E-02
      54-      1
      1            9.3654E-02  1.0295E-01 -1.3288E-01 -1.9755E-02 -5.1912E-02 -8.6899E-02
      55-      1
      1            7.1731E-02  4.2423E-02 -7.5981E-02 -4.2306E-03 -1.8417E-02 -1.4975E-01
      93-      1
      1            1.6325E-01  2.1855E-01 -3.3234E-01 -1.1255E-02 -1.0309E-01 -1.6741E-02
      94-      1
      1            7.8397E-02  1.2475E-01 -1.7226E-01  2.6458E-02 -1.7731E-01 -2.2767E-02
      95-      1
      1            9.5450E-03  1.1757E-02 -1.7407E-02  3.5861E-03 -1.7181E-02 -3.7438E-03



 e l e m e n t   s t r e s s   c a l c u l a t i o n s   f o r   t i m e  s t e p      675   ( at time 2.29401E+01 )

 element  materl
     ipt  stress       sig-xx      sig-yy      sig-zz      sig-xy      sig-yz      sig-zx                       yield
           state                                                                                  effsg      function
      13-      1
       1           2.5166E+07  3.3841E+07 -4.8704E+07 -2.0253E+06  7.4274E+05 -4.1583E+06    7.8985E+07    1.6722E-01
      14-      1
       1          -1.1083E+07 -1.8238E+07 -4.8182E+07 -9.3776E+06 -8.2136E+06 -6.2518E+06    4.1779E+07    6.1511E-02
      15-      1
       1          -3.9468E+07 -3.3648E+07 -4.7294E+07 -5.4274E+06 -2.6969E+07 -2.5099E+07    6.5580E+07    8.8985E-02
      21-      1
       1          -1.4160E+07 -1.4160E+07 -1.4160E+07  0.0000E+00  0.0000E+00  0.0000E+00    0.0000E+00    1.6664E-01
      22-      1
       1           2.5380E+07  2.9970E+06 -1.1525E+07  1.1608E+06 -8.9043E+06 -2.3034E+07    5.3577E+07    5.8938E-02
      23-      1
       1          -7.9876E+07 -8.3935E+07 -1.1860E+08 -3.7716E+06  2.7359E+07 -1.6323E+07    6.6683E+07    6.1417E-02
      53-      1
       1           1.5121E+07  4.1045E+07 -7.7178E+07 -5.0465E+06 -1.7361E+07  1.4047E+06    1.1212E+08    1.4686E-01
      54-      1
       1           3.2509E+06 -7.9329E+06 -7.5808E+07 -1.7019E+06 -1.6387E+07 -1.4268E+07    8.3164E+07    7.4619E-02
      55-      1
       1           1.1398E+07  3.1038E+07 -1.0359E+07  7.5954E+06 -2.4477E+07 -1.6122E+07    6.3534E+07    4.5765E-02
      93-      1
       1          -3.5478E+06 -3.5478E+06 -3.5478E+06  0.0000E+00  0.0000E+00  0.0000E+00    0.0000E+00    1.0299E-01
      94-      1
       1          -6.1081E+07 -6.9443E+07  8.1056E+06  5.1793E+05 -1.3212E+07 -1.6344E+06    7.7251E+07    6.2090E-02
      95-      1
       1          -9.7825E+07 -9.5278E+07 -8.9444E+07  1.6020E+06 -2.1932E+07  2.5727E+06    3.9063E+07    3.6380E-02



 e l e m e n t   s t r a i n   c a l c u l a t i o n s   f o r   t i m e  s t e p      675   ( at time  2.29401E+01 )

 element  strain       eps-xx      eps-yy      eps-zz      eps-xy      eps-yz      eps-zx                            yield
 num/ipt   state
      13-      1
      1            1.0225E-01  1.7793E-01 -2.2595E-01  5.0022E-03 -4.0314E-02 -8.4839E-02
      14-      1
      1            1.2564E-01  1.3754E-01 -2.3846E-01  3.1643E-02 -1.0592E-01 -1.3894E-01
      15-      1
      1            2.9336E-02  2.2910E-02 -3.2717E-02 -4.4294E-03 -2.8483E-02 -5.9309E-02
      21-      1
      1            1.7107E-01  1.7966E-01 -2.9360E-01 -1.9570E-03 -1.0450E-01 -1.7945E-02
      22-      1
      1            1.3693E-01  1.2912E-01 -2.3743E-01  4.1816E-02 -1.6738E-01 -7.2368E-02
      23-      1
      1            1.6038E-02  1.5092E-02 -2.2362E-02  2.9322E-03 -2.6696E-02 -1.7876E-02
      53-      1
      1            8.7925E-02  1.6726E-01 -1.7767E-01  5.6770E-03 -3.3543E-02 -9.2224E-02
      54-      1
      1            9.8020E-02  1.1128E-01 -1.4478E-01 -1.9603E-02 -5.8759E-02 -9.0555E-02
      55-      1
      1            8.1716E-02  4.6496E-02 -8.8716E-02 -2.4137E-03 -2.2505E-02 -1.6267E-01
      93-      1
      1            1.7231E-01  2.3317E-01 -3.5721E-01 -8.9158E-03 -1.0805E-01 -1.8502E-02
      94-      1
      1            8.1722E-02  1.3390E-01 -1.8707E-01  2.9098E-02 -1.8582E-01 -2.3653E-02
      95-      1
      1            9.1197E-03  1.1106E-02 -1.7652E-02  3.4972E-03 -1.8643E-02 -3.6827E-03



 e l e m e n t   s t r e s s   c a l c u l a t i o n s   f o r   t i m e  s t e p      685   ( at time 2.41033E+01 )

 element  materl
     ipt  stress       sig-xx      sig-yy      sig-zz      sig-xy      sig-yz      sig-zx                       yield
           state                                                                                  effsg      function
      13-      1
       1          -2.1694E+07 -2.2490E+07 -6.7414E+07 -3.0678E+06  8.9870E+06  4.3899E+06    4.8815E+07    1.6877E-01
      14-      1
       1          -4.8688E+07 -6.1519E+07 -8.9334E+07 -8.3625E+06 -6.8166E+06 -6.4464E+06    4.2061E+07    6.2591E-02
      15-      1
       1          -5.9256E+07 -6.0836E+07 -8.8869E+07 -4.0756E+05 -1.7583E+07 -3.0657E+07    6.7678E+07    9.0434E-02
      21-      1
       1          -1.5310E+07 -1.5310E+07 -1.5310E+07  0.0000E+00  0.0000E+00  0.0000E+00    0.0000E+00    1.6664E-01
      22-      1
       1          -4.4302E+07 -5.1779E+07 -7.9704E+07  2.0537E+06 -1.0141E+07 -1.0606E+07    4.1270E+07    6.0148E-02
      23-      1
       1          -1.3414E+06 -6.6769E+06 -5.3819E+07  2.9379E+05 -5.1351E+06 -3.4025E+07    7.7813E+07    6.2659E-02
      53-      1
       1          -2.1487E+07  4.7850E+06 -8.5979E+07 -4.3236E+06 -5.7521E+06  2.1530E+05    8.1849E+07    1.4916E-01
      54-      1
       1          -1.5599E+07 -2.1281E+07 -9.5149E+07 -8.3456E+06 -1.1995E+07 -1.5873E+07    8.5469E+07    7.6416E-02
      55-      1
       1           1.2103E+07  2.0158E+07 -3.3058E+07  7.2971E+06 -2.1248E+07 -1.8320E+07    7.0635E+07    4.6716E-02
      93-      1
       1          -4.0448E+06 -4.0448E+06 -4.0448E+06  0.0000E+00  0.0000E+00  0.0000E+00    0.0000E+00    1.0299E-01
      94-      1
       1          -5.0287E+07 -5.7096E+07 -1.1331E+08  2.5706E+06 -1.6143E+07 -1.8251E+07    7.3416E+07    6.2809E-02
      95-      1
       1          -5.2732E+07 -4.6325E+07 -8.9345E+07  3.6124E+06 -5.4165E+07 -1.1626E+07    1.0422E+08    3.7531E-02



 e l e m e n t   s t r a i n   c a l c u l a t i o n s   f o r   t i m e  s t e p      685   ( at time  2.41033E+01 )

 element  strain       eps-xx      eps-yy      eps-zz      eps-xy      eps-yz      eps-zx                            yield
 num/ipt   state
      13-      1
      1            1.0525E-01  1.8473E-01 -2.3609E-01  4.8105E-03 -4.0422E-02 -8.8842E-02
      14-      1
      1            1.3169E-01  1.4254E-01 -2.5342E-01  3.2323E-02 -1.0602E-01 -1.4124E-01
      15-      1
      1            3.2621E-02  2.3759E-02 -3.6687E-02 -4.3399E-03 -3.0327E-02 -6.3409E-02
      21-      1
      1            1.7749E-01  1.8552E-01 -3.0636E-01 -1.0987E-03 -1.0498E-01 -1.7129E-02
      22-      1
      1            1.4348E-01  1.3568E-01 -2.5536E-01  4.4686E-02 -1.6850E-01 -7.1158E-02
      23-      1
      1            1.8254E-02  1.6152E-02 -2.5013E-02  3.4839E-03 -2.9152E-02 -2.0153E-02
      53-      1
      1            9.1436E-02  1.7284E-01 -1.8548E-01  4.3850E-03 -3.5166E-02 -9.5994E-02
      54-      1
      1            1.0059E-01  1.1515E-01 -1.5203E-01 -2.0379E-02 -6.0974E-02 -9.2647E-02
      55-      1
      1            8.9248E-02  4.8762E-02 -9.9597E-02 -1.8527E-03 -2.3576E-02 -1.6668E-01
      93-      1
      1            1.7941E-01  2.4115E-01 -3.7258E-01 -8.8151E-03 -1.0767E-01 -1.7799E-02
      94-      1
      1            8.7146E-02  1.4284E-01 -2.0302E-01  3.0458E-02 -1.8660E-01 -2.2439E-02
      95-      1
      1            1.0563E-02  1.2332E-02 -1.9434E-02  4.1419E-03 -2.0887E-02 -4.4869E-03



 e l e m e n t   s t r e s s   c a l c u l a t i o n s   f o r   t i m e  s t e p      698   ( at time 2.52664E+01 )

 element  materl
     ipt  stress       sig-xx      sig-yy      sig-zz      sig-xy      sig-yz      sig-zx                       yield
           state                                                                                  effsg      function
      13-      1
       1           1.9364E+07  3.4977E+07 -5.7417E+07  4.5218E+06 -7.4064E+06 -3.6544E+06    8.7200E+07    1.7267E-01
      14-      1
       1          -2.5822E+07 -2.8007E+07 -6.2301E+07 -8.6890E+06 -8.1113E+06 -6.4268E+06    4.2468E+07    6.4215E-02
      15-      1
       1          -8.1610E+07 -7.3861E+07 -1.0343E+08 -6.0331E+06 -7.1213E+06 -2.1387E+07    4.8363E+07    9.2722E-02
      21-      1
       1          -1.6299E+06 -1.6299E+06 -1.6299E+06  0.0000E+00  0.0000E+00  0.0000E+00    0.0000E+00    1.6664E-01
      22-      1
       1          -1.3886E+07 -3.6694E+07 -5.0654E+07 -1.0103E+07 -3.1593E+07 -2.6916E+07    8.0669E+07    6.1259E-02
      23-      1
       1          -6.6440E+07 -7.8443E+07 -1.1602E+08 -4.4742E+06  2.6522E+07 -1.9489E+07    7.2920E+07    6.3684E-02
      53-      1
       1           2.9585E+07  6.1952E+07 -2.8883E+07 -7.0642E+06 -6.4774E+06  4.3705E+06    8.1801E+07    1.5264E-01
      54-      1
       1           1.0557E+05 -1.0733E+07 -7.7217E+07 -1.0593E+07 -1.1293E+07 -2.0568E+07    8.5126E+07    7.8844E-02
      55-      1
       1           9.8374E+06  2.6009E+07 -6.7222E+06  7.4139E+06 -2.1971E+07 -2.9018E+07    7.0305E+07    4.7793E-02
      93-      1
       1           0.0000E+00  0.0000E+00  0.0000E+00  0.0000E+00  0.0000E+00  0.0000E+00    0.0000E+00    1.0299E-01
      94-      1
       1          -2.4266E+07 -4.5654E+07 -4.1430E+07  8.7409E+06 -2.1841E+07  7.0016E+06    4.6823E+07    6.2830E-02
      95-      1
[...]



 e l e m e n t   s t r a i n   c a l c u l a t i o n s   f o r   t i m e  s t e p      847   ( at time  5.75750E+01 )

 element  strain       eps-xx      eps-yy      eps-zz      eps-xy      eps-yz      eps-zx                            yield
 num/ipt   state
      14-      1
      1            3.7577E-01  3.0041E-01 -6.4971E-01  5.4767E-02 -8.4914E-02 -2.9992E-03
      15-      1
      1            2.2738E-01  1.3880E-01 -3.4560E-01  4.3464E-02 -9.0131E-02 -1.0648E-01
      23-      1
      1            1.0344E-01  8.2616E-02 -1.6468E-01  7.3866E-03 -1.1806E-01 -6.1499E-02
      53-      1
      1            1.6854E-01  3.3915E-01 -3.6350E-01 -6.5613E-03 -9.0762E-02 -2.0554E-01
      54-      1
      1            2.3701E-01  2.9102E-01 -4.4551E-01 -2.1468E-02 -7.1345E-02 -1.1336E-01
      94-      1
      1            2.3356E-01  3.0390E-01 -4.9831E-01  4.6024E-02 -1.4905E-01  3.4638E-02
      95-      1
      1            7.3232E-02  7.0466E-02 -1.2134E-01  7.7320E-03 -1.0684E-01 -1.4522E-02



 e l e m e n t   s t r e s s   c a l c u l a t i o n s   f o r   t i m e  s t e p      858   ( at time 6.04968E+01 )

 element  materl
     ipt  stress       sig-xx      sig-yy      sig-zz      sig-xy      sig-yz      sig-zx                       yield
           state                                                                                  effsg      function
      15-      1
       1           2.0616E+07 -1.0897E+06 -3.4873E+07  6.1013E+05 -2.3421E+07 -3.2741E+07    8.4901E+07    1.5571E-01
      23-      1
       1          -3.4200E+07 -5.4003E+07 -4.9716E+07 -1.3010E+07 -3.5910E+07 -1.7602E+07    7.5044E+07    1.3865E-01
      53-      1
       1          -1.7058E+07  1.7523E+07 -4.6468E+05 -5.0622E+06 -2.3728E+07 -3.8343E+05    5.1611E+07    2.1663E-01
      54-      1
       1           0.0000E+00  0.0000E+00  0.0000E+00  0.0000E+00  0.0000E+00  0.0000E+00    0.0000E+00    1.3549E-01
      94-      1
       1           2.8188E+07 -9.4080E+06  1.3163E+07 -1.5277E+07 -3.3371E+05  1.0855E+07    4.6133E+07    1.1007E-01
      95-      1
       1          -2.2709E+07 -1.9087E+07 -3.4683E+07 -6.5515E+06 -2.4135E+07  5.0309E+06    4.6390E+07    1.0306E-01



 e l e m e n t   s t r a i n   c a l c u l a t i o n s   f o r   t i m e  s t e p      858   ( at time  6.04968E+01 )

 element  strain       eps-xx      eps-yy      eps-zz      eps-xy      eps-yz      eps-zx                            yield
 num/ipt   state
      15-      1
      1            2.4669E-01  1.4436E-01 -3.6618E-01  4.7366E-02 -9.5731E-02 -9.4769E-02
      23-      1
      1            1.0840E-01  8.4516E-02 -1.7072E-01  5.5322E-03 -1.2601E-01 -6.4279E-02
      53-      1
      1            1.6660E-01  3.4610E-01 -3.6213E-01 -1.0319E-02 -1.0017E-01 -2.1310E-01
      54-      1
      1            2.4229E-01  3.0422E-01 -4.6231E-01 -2.4238E-02 -8.5416E-02 -1.0570E-01
      94-      1
      1            2.3774E-01  3.0490E-01 -5.0215E-01  4.5956E-02 -1.4314E-01  4.6325E-02
      95-      1
      1            7.7425E-02  7.2122E-02 -1.2623E-01  6.9176E-03 -1.1257E-01 -1.4150E-02



 e l e m e n t   s t r e s s   c a l c u l a t i o n s   f o r   t i m e  s t e p      864   ( at time 6.34185E+01 )

 element  materl
     ipt  stress       sig-xx      sig-yy      sig-zz      sig-xy      sig-yz      sig-zx                       yield
           state                                                                                  effsg      function
      15-      1
       1          -4.3717E+07 -4.7220E+07 -8.1215E+07  1.6839E+06 -1.6989E+07 -5.3608E+06    4.7409E+07    1.5695E-01
      23-      1
       1          -5.4795E+07 -7.2470E+07 -6.7517E+07 -1.1726E+07 -8.6503E+06 -1.9997E+07    4.5674E+07    1.3893E-01
      53-      1
       1          -9.1211E+07 -9.1211E+07 -9.1211E+07  0.0000E+00  0.0000E+00  0.0000E+00    0.0000E+00    2.1663E-01
      54-      1
       1          -1.2544E+06 -1.2544E+06 -1.2544E+06  0.0000E+00  0.0000E+00  0.0000E+00    0.0000E+00    1.3549E-01
      94-      1
       1          -1.3156E+07 -1.3156E+07 -1.3156E+07  0.0000E+00  0.0000E+00  0.0000E+00    0.0000E+00    1.1007E-01
      95-      1
       1          -1.3536E+07 -1.1373E+07 -4.1228E+07 -7.3048E+05 -2.3555E+07  4.4371E+06    5.0563E+07    1.0330E-01



 e l e m e n t   s t r a i n   c a l c u l a t i o n s   f o r   t i m e  s t e p      864   ( at time  6.34185E+01 )

 element  strain       eps-xx      eps-yy      eps-zz      eps-xy      eps-yz      eps-zx                            yield
 num/ipt   state
      15-      1
      1            2.5568E-01  1.4573E-01 -3.7524E-01  4.6964E-02 -1.0515E-01 -8.8449E-02
      23-      1
      1            1.1047E-01  8.4426E-02 -1.7362E-01  4.9119E-03 -1.2978E-01 -6.3305E-02
      53-      1
      1            1.6564E-01  3.4778E-01 -3.6618E-01 -1.0953E-02 -1.0187E-01 -2.1643E-01
      54-      1
      1            2.4821E-01  3.0642E-01 -4.7196E-01 -2.3399E-02 -9.5620E-02 -9.5916E-02
      94-      1
      1            2.3883E-01  3.0406E-01 -5.0226E-01  4.5734E-02 -1.4677E-01  4.7292E-02
      95-      1
      1            7.8346E-02  7.2382E-02 -1.2836E-01  6.9176E-03 -1.1467E-01 -1.3840E-02



 e l e m e n t   s t r e s s   c a l c u l a t i o n s   f o r   t i m e  s t e p      876   ( at time 6.80491E+01 )

 element  materl
     ipt  stress       sig-xx      sig-yy      sig-zz      sig-xy      sig-yz      sig-zx                       yield
           state                                                                                  effsg      function
      15-      1
       1           3.0661E+07  6.6934E+06 -2.8631E+07  1.7844E+06 -2.9905E+07 -2.4749E+07    8.4846E+07    1.6778E-01
      23-      1
       1           2.7533E+06  5.1960E+06  1.2504E+07 -1.0763E+07 -7.6838E+06 -1.2051E+07    3.2211E+07    1.4147E-01
      54-      1
       1          -1.4875E+07 -1.4875E+07 -1.4875E+07  0.0000E+00  0.0000E+00  0.0000E+00    0.0000E+00    1.3549E-01
      94-      1
       1          -3.9283E+06 -3.9283E+06 -3.9283E+06  0.0000E+00  0.0000E+00  0.0000E+00    0.0000E+00    1.1007E-01
      95-      1
       1          -2.3271E+07 -1.8785E+07 -1.7897E+07  1.7133E+06 -2.5298E+07  8.5699E+06    4.6626E+07    1.0442E-01



 e l e m e n t   s t r a i n   c a l c u l a t i o n s   f o r   t i m e  s t e p      876   ( at time  6.80491E+01 )

 element  strain       eps-xx      eps-yy      eps-zz      eps-xy      eps-yz      eps-zx                            yield
 num/ipt   state
      15-      1
      1            2.8691E-01  1.4676E-01 -3.8665E-01  4.8387E-02 -1.2166E-01 -6.5590E-02
      23-      1
      1            1.1192E-01  8.7317E-02 -1.7211E-01  6.3558E-03 -1.2808E-01 -6.1888E-02
      54-      1
      1            2.6249E-01  3.2309E-01 -5.0233E-01 -2.0714E-02 -1.0314E-01 -8.1553E-02
      94-      1
      1            2.3886E-01  3.0911E-01 -5.0479E-01  4.4366E-02 -1.3304E-01  5.0599E-02
      95-      1
      1            7.7685E-02  7.3711E-02 -1.2642E-01  6.1099E-03 -1.1458E-01 -1.3423E-02



 e l e m e n t   s t r e s s   c a l c u l a t i o n s   f o r   t i m e  s t e p      882   ( at time 7.26797E+01 )

 element  materl
     ipt  stress       sig-xx      sig-yy      sig-zz      sig-xy      sig-yz      sig-zx                       yield
           state                                                                                  effsg      function
      15-      1
       1           5.4637E+07  4.9649E+07  2.7002E+07  8.7044E+06 -1.8666E+07 -1.1349E+07    4.8059E+07    1.6881E-01
      23-      1
       1          -2.2988E+07 -8.4174E+06 -4.6735E+06 -5.8751E+06  1.4837E+07 -1.8689E+07    4.5745E+07    1.4165E-01
      54-      1
       1          -1.4662E+06 -1.4662E+06 -1.4662E+06  0.0000E+00  0.0000E+00  0.0000E+00    0.0000E+00    1.3549E-01
      94-      1
       1          -9.7805E+05 -9.7805E+05 -9.7805E+05  0.0000E+00  0.0000E+00  0.0000E+00    0.0000E+00    1.1007E-01
      95-      1
       1          -2.8855E+07 -1.8559E+07 -8.6357E+06  5.2651E+06 -3.0101E+07  5.2961E+06    5.6499E+07    1.0468E-01



 e l e m e n t   s t r a i n   c a l c u l a t i o n s   f o r   t i m e  s t e p      882   ( at time  7.26797E+01 )

 element  strain       eps-xx      eps-yy      eps-zz      eps-xy      eps-yz      eps-zx                            yield
 num/ipt   state
      15-      1
      1            2.9774E-01  1.4937E-01 -3.9273E-01  4.9879E-02 -1.2731E-01 -5.4673E-02
      23-      1
      1            1.1078E-01  8.7984E-02 -1.7313E-01  7.0757E-03 -1.2860E-01 -6.0846E-02
      54-      1
      1            2.7025E-01  3.1857E-01 -5.0563E-01 -1.8572E-02 -1.3293E-01 -6.3540E-02
      94-      1
      1            2.3869E-01  3.0905E-01 -5.0423E-01  4.4507E-02 -1.3243E-01  5.1948E-02
      95-      1
      1            7.7062E-02  7.4324E-02 -1.2604E-01  6.1768E-03 -1.1467E-01 -1.3378E-02



 e l e m e n t   s t r e s s   c a l c u l a t i o n s   f o r   t i m e  s t e p      888   ( at time 7.76797E+01 )

 element  materl
     ipt  stress       sig-xx      sig-yy      sig-zz      sig-xy      sig-yz      sig-zx                       yield
           state                                                                                  effsg      function
      15-      1
       1           0.0000E+00  0.0000E+00  0.0000E+00  0.0000E+00  0.0000E+00  0.0000E+00    0.0000E+00    1.6881E-01
      23-      1
       1          -2.0493E+07 -8.6115E+05  1.7753E+06 -2.5243E+06  1.2847E+07 -1.9505E+07    4.5822E+07    1.4207E-01
      54-      1
       1           0.0000E+00  0.0000E+00  0.0000E+00  0.0000E+00  0.0000E+00  0.0000E+00    0.0000E+00    1.3549E-01
      94-      1
       1           0.0000E+00  0.0000E+00  0.0000E+00  0.0000E+00  0.0000E+00  0.0000E+00    0.0000E+00    1.1007E-01
      95-      1
       1          -4.1048E+07 -2.7122E+07 -1.9637E+07  1.1823E+07 -2.4104E+07  1.7698E+07    5.8790E+07    1.0501E-01



 e l e m e n t   s t r a i n   c a l c u l a t i o n s   f o r   t i m e  s t e p      888   ( at time  7.76797E+01 )

 element  strain       eps-xx      eps-yy      eps-zz      eps-xy      eps-yz      eps-zx                            yield
 num/ipt   state
      15-      1
      1            3.0989E-01  1.5064E-01 -3.9844E-01  5.2028E-02 -1.3552E-01 -4.2202E-02
      23-      1
      1            1.1011E-01  8.8143E-02 -1.7195E-01  7.0782E-03 -1.2917E-01 -6.0366E-02
      54-      1
      1            2.7999E-01  3.1255E-01 -5.0733E-01 -1.1493E-02 -1.6049E-01 -3.0287E-02
      94-      1
      1            2.3842E-01  3.0867E-01 -5.0336E-01  4.4682E-02 -1.3274E-01  5.3314E-02
      95-      1
      1            7.6163E-02  7.4479E-02 -1.2546E-01  6.3157E-03 -1.1459E-01 -1.3030E-02



 e l e m e n t   s t r e s s   c a l c u l a t i o n s   f o r   t i m e  s t e p      892   ( at time 8.26797E+01 )

 element  materl
     ipt  stress       sig-xx      sig-yy      sig-zz      sig-xy      sig-yz      sig-zx                       yield
           state                                                                                  effsg      function
      15-      1
       1           0.0000E+00  0.0000E+00  0.0000E+00  0.0000E+00  0.0000E+00  0.0000E+00    0.0000E+00    1.6881E-01
      23-      1
       1          -7.7700E+06  5.6148E+06  1.3646E+07 -3.7415E+05  9.0495E+06 -1.6872E+07    3.8095E+07    1.4207E-01
      54-      1
       1           0.0000E+00  0.0000E+00  0.0000E+00  0.0000E+00  0.0000E+00  0.0000E+00    0.0000E+00    1.3549E-01
      94-      1
       1           0.0000E+00  0.0000E+00  0.0000E+00  0.0000E+00  0.0000E+00  0.0000E+00    0.0000E+00    1.1007E-01
      95-      1
       1          -3.7731E+07 -2.6860E+07 -1.1913E+07  1.0760E+07 -2.7734E+07  1.9289E+07    6.5385E+07    1.0507E-01



 e l e m e n t   s t r a i n   c a l c u l a t i o n s   f o r   t i m e  s t e p      892   ( at time  8.26797E+01 )

 element  strain       eps-xx      eps-yy      eps-zz      eps-xy      eps-yz      eps-zx                            yield
 num/ipt   state
      15-      1
      1            3.0948E-01  1.5157E-01 -3.9785E-01  5.1849E-02 -1.3281E-01 -4.4556E-02
      23-      1
      1            1.1024E-01  8.8390E-02 -1.7172E-01  7.2493E-03 -1.2904E-01 -6.0551E-02
      54-      1
      1            2.8008E-01  3.1313E-01 -5.0779E-01 -1.1260E-02 -1.5891E-01 -2.9564E-02
      94-      1
      1            2.3844E-01  3.0845E-01 -5.0310E-01  4.4661E-02 -1.3320E-01  5.3314E-02
      95-      1
      1            7.6082E-02  7.4242E-02 -1.2508E-01  6.2616E-03 -1.1479E-01 -1.3019E-02



 e l e m e n t   s t r e s s   c a l c u l a t i o n s   f o r   t i m e  s t e p      896   ( at time 8.76797E+01 )

 element  materl
     ipt  stress       sig-xx      sig-yy      sig-zz      sig-xy      sig-yz      sig-zx                       yield
           state                                                                                  effsg      function
      15-      1
       1           0.0000E+00  0.0000E+00  0.0000E+00  0.0000E+00  0.0000E+00  0.0000E+00    0.0000E+00    1.6881E-01
      23-      1
       1          -2.8262E+06  9.0429E+06  1.5351E+07 -1.7383E+05  1.2469E+07 -1.4328E+07    3.6577E+07    1.4207E-01
      54-      1
       1           0.0000E+00  0.0000E+00  0.0000E+00  0.0000E+00  0.0000E+00  0.0000E+00    0.0000E+00    1.3549E-01
      94-      1
       1           0.0000E+00  0.0000E+00  0.0000E+00  0.0000E+00  0.0000E+00  0.0000E+00    0.0000E+00    1.1007E-01
      95-      1
       1          -2.7213E+07 -2.3388E+07 -1.5270E+07  3.8539E+06 -3.0187E+07  1.2742E+07    5.8112E+07    1.0510E-01



 e l e m e n t   s t r a i n   c a l c u l a t i o n s   f o r   t i m e  s t e p      896   ( at time  8.76797E+01 )

 element  strain       eps-xx      eps-yy      eps-zz      eps-xy      eps-yz      eps-zx                            yield
 num/ipt   state
      15-      1
      1            3.0939E-01  1.5207E-01 -3.9783E-01  5.1928E-02 -1.3135E-01 -4.5057E-02
      23-      1
      1            1.1038E-01  8.8704E-02 -1.7169E-01  7.2858E-03 -1.2888E-01 -6.0625E-02
      54-      1
      1            2.8012E-01  3.1361E-01 -5.0827E-01 -1.1154E-02 -1.5767E-01 -2.9349E-02
      94-      1
      1            2.3841E-01  3.0830E-01 -5.0290E-01  4.4648E-02 -1.3350E-01  5.3444E-02
      95-      1
      1            7.5997E-02  7.4041E-02 -1.2469E-01  6.1960E-03 -1.1488E-01 -1.2972E-02



 e l e m e n t   s t r e s s   c a l c u l a t i o n s   f o r   t i m e  s t e p      900   ( at time 9.26797E+01 )

 element  materl
     ipt  stress       sig-xx      sig-yy      sig-zz      sig-xy      sig-yz      sig-zx                       yield
           state                                                                                  effsg      function
      15-      1
       1           0.0000E+00  0.0000E+00  0.0000E+00  0.0000E+00  0.0000E+00  0.0000E+00    0.0000E+00    1.6881E-01
      23-      1
       1           7.6770E+05  9.8122E+06  1.6601E+07  3.5141E+05  1.2892E+07 -1.1714E+07    3.3166E+07    1.4207E-01
      54-      1
       1           0.0000E+00  0.0000E+00  0.0000E+00  0.0000E+00  0.0000E+00  0.0000E+00    0.0000E+00    1.3549E-01
      94-      1
       1          -4.1292E+05 -4.1292E+05 -4.1292E+05  0.0000E+00  0.0000E+00  0.0000E+00    0.0000E+00    1.1007E-01
      95-      1
       1          -2.6183E+07 -2.3563E+07 -8.8997E+06  1.8144E+06 -3.0483E+07  1.2549E+07    5.9417E+07    1.0510E-01



 e l e m e n t   s t r a i n   c a l c u l a t i o n s   f o r   t i m e  s t e p      900   ( at time  9.26797E+01 )

 element  strain       eps-xx      eps-yy      eps-zz      eps-xy      eps-yz      eps-zx                            yield
 num/ipt   state
      15-      1
      1            3.0919E-01  1.5243E-01 -3.9763E-01  5.2030E-02 -1.3015E-01 -4.5351E-02
      23-      1
      1            1.1051E-01  8.8953E-02 -1.7172E-01  7.2876E-03 -1.2872E-01 -6.0686E-02
      54-      1
      1            2.8016E-01  3.1390E-01 -5.0856E-01 -1.1016E-02 -1.5679E-01 -2.8946E-02
      94-      1
      1            2.3841E-01  3.0818E-01 -5.0277E-01  4.4627E-02 -1.3371E-01  5.3544E-02
      95-      1
      1            7.5960E-02  7.3837E-02 -1.2437E-01  6.1234E-03 -1.1490E-01 -1.2956E-02



 e l e m e n t   s t r e s s   c a l c u l a t i o n s   f o r   t i m e  s t e p      906   ( at time 9.76797E+01 )

 element  materl
     ipt  stress       sig-xx      sig-yy      sig-zz      sig-xy      sig-yz      sig-zx                       yield
           state                                                                                  effsg      function
      15-      1
       1           0.0000E+00  0.0000E+00  0.0000E+00  0.0000E+00  0.0000E+00  0.0000E+00    0.0000E+00    1.6881E-01
      23-      1
       1           2.2649E+06  1.0015E+07  1.6778E+07  6.4633E+05  1.3157E+07 -1.0126E+07    3.1407E+07    1.4207E-01
      54-      1
       1           0.0000E+00  0.0000E+00  0.0000E+00  0.0000E+00  0.0000E+00  0.0000E+00    0.0000E+00    1.3549E-01
      94-      1
       1          -4.5642E+05 -4.5642E+05 -4.5642E+05  0.0000E+00  0.0000E+00  0.0000E+00    0.0000E+00    1.1007E-01
      95-      1
       1          -2.5916E+07 -1.9460E+07 -1.0645E+07  8.7075E+05 -2.2134E+07  8.7476E+06    4.3335E+07    1.0510E-01



 e l e m e n t   s t r a i n   c a l c u l a t i o n s   f o r   t i m e  s t e p      906   ( at time  9.76797E+01 )

 element  strain       eps-xx      eps-yy      eps-zz      eps-xy      eps-yz      eps-zx                            yield
 num/ipt   state
      15-      1
      1            3.0909E-01  1.5259E-01 -3.9756E-01  5.2105E-02 -1.2954E-01 -4.5370E-02
      23-      1
      1            1.1059E-01  8.9097E-02 -1.7178E-01  7.2919E-03 -1.2863E-01 -6.0699E-02
      54-      1
      1            2.8019E-01  3.1407E-01 -5.0874E-01 -1.0925E-02 -1.5628E-01 -2.8628E-02
      94-      1
      1            2.3842E-01  3.0813E-01 -5.0271E-01  4.4616E-02 -1.3381E-01  5.3612E-02
      95-      1
      1            7.5952E-02  7.3715E-02 -1.2419E-01  6.0901E-03 -1.1491E-01 -1.2942E-02



 e l e m e n t   s t r e s s   c a l c u l a t i o n s   f o r   t i m e  s t e p      912   ( at time 1.00000E+02 )

 element  materl
     ipt  stress       sig-xx      sig-yy      sig-zz      sig-xy      sig-yz      sig-zx                       yield
           state                                                                                  effsg      function
      15-      1
       1           0.0000E+00  0.0000E+00  0.0000E+00  0.0000E+00  0.0000E+00  0.0000E+00    0.0000E+00    1.6881E-01
      23-      1
       1           3.2354E+06  9.8512E+06  1.6438E+07  8.4341E+05  1.3322E+07 -8.7714E+06    2.9935E+07    1.4207E-01
      54-      1
       1           0.0000E+00  0.0000E+00  0.0000E+00  0.0000E+00  0.0000E+00  0.0000E+00    0.0000E+00    1.3549E-01
      94-      1
       1          -2.9481E+05 -2.9481E+05 -2.9481E+05  0.0000E+00  0.0000E+00  0.0000E+00    0.0000E+00    1.1007E-01
      95-      1
       1          -2.6089E+07 -2.1524E+07 -8.6426E+06  4.2133E+05 -2.2950E+07  8.6446E+06    4.5282E+07    1.0510E-01



 e l e m e n t   s t r a i n   c a l c u l a t i o n s   f o r   t i m e  s t e p      912   ( at time  1.00000E+02 )

 element  strain       eps-xx      eps-yy      eps-zz      eps-xy      eps-yz      eps-zx                            yield
 num/ipt   state
      15-      1
      1            3.0900E-01  1.5272E-01 -3.9753E-01  5.2181E-02 -1.2904E-01 -4.5305E-02
      23-      1
      1            1.1065E-01  8.9242E-02 -1.7186E-01  7.2989E-03 -1.2855E-01 -6.0693E-02
      54-      1
      1            2.8021E-01  3.1424E-01 -5.0891E-01 -1.0838E-02 -1.5579E-01 -2.8329E-02
      94-      1
      1            2.3843E-01  3.0807E-01 -5.0266E-01  4.4613E-02 -1.3391E-01  5.3713E-02
      95-      1
      1            7.5949E-02  7.3611E-02 -1.2405E-01  6.0709E-03 -1.1494E-01 -1.2910E-02
