 LS-DYNA keyword deck by LS-PrePost                                      
                    ls-dyna smp d R14 R14.1.1s_1_ef50e1 date 06/16/2024



 n o d a l  s t r e s s  c a l c u l a t i o n s   f o r   t i m e  s t e p        1   ( at time 0.00000E+00 )

 node (global)
          stress       sig-xx      sig-yy      sig-zz      sig-xy      sig-yz      sig-zx       plastic
                                                                                                 strain 
       1-
 mid.  surface     5.3602E-05  5.3602E-05  5.3602E-05  0.0000E+00  0.0000E+00  0.0000E+00  0.0000E+00
       2-
 mid.  surface     9.5276E-05  9.5276E-05  9.5276E-05  0.0000E+00  0.0000E+00  0.0000E+00  0.0000E+00
       8-
 mid.  surface     3.1932E-05  3.1932E-05  3.1932E-05  0.0000E+00  0.0000E+00  0.0000E+00  0.0000E+00
       9-
 mid.  surface    -2.9208E-05 -2.9208E-05 -2.9208E-05  0.0000E+00  0.0000E+00  0.0000E+00  0.0000E+00
      10-
 mid.  surface     4.4959E-05  4.4959E-05  4.4959E-05  0.0000E+00  0.0000E+00  0.0000E+00  0.0000E+00
      11-
 mid.  surface     2.9827E-05  2.9827E-05  2.9827E-05  0.0000E+00  0.0000E+00  0.0000E+00  0.0000E+00
      12-
 mid.  surface     5.5756E-05  5.5756E-05  5.5756E-05  0.0000E+00  0.0000E+00  0.0000E+00  0.0000E+00
      17-
 mid.  surface    -2.1580E-05 -2.1580E-05 -2.1580E-05  0.0000E+00  0.0000E+00  0.0000E+00  0.0000E+00
      18-
 mid.  surface     2.1147E-05  2.1147E-05  2.1147E-05  0.0000E+00  0.0000E+00  0.0000E+00  0.0000E+00
      19-
 mid.  surface     7.9568E-05  7.9568E-05  7.9568E-05  0.0000E+00  0.0000E+00  0.0000E+00  0.0000E+00
      20-
 mid.  surface    -2.1451E-05 -2.1451E-05 -2.1451E-05  0.0000E+00  0.0000E+00  0.0000E+00  0.0000E+00
      21-
 mid.  surface    -2.6336E-05 -2.6336E-05 -2.6336E-05  0.0000E+00  0.0000E+00  0.0000E+00  0.0000E+00
      22-
 mid.  surface    -2.2547E-05 -2.2547E-05 -2.2547E-05  0.0000E+00  0.0000E+00  0.0000E+00  0.0000E+00
      23-
 mid.  surface     3.9965E-05  3.9965E-05  3.9965E-05  0.0000E+00  0.0000E+00  0.0000E+00  0.0000E+00
      24-
 mid.  surface    -3.6755E-05 -3.6755E-05 -3.6755E-05  0.0000E+00  0.0000E+00  0.0000E+00  0.0000E+00
      25-
 mid.  surface    -1.1793E-04 -1.1793E-04 -1.1793E-04  0.0000E+00  0.0000E+00  0.0000E+00  0.0000E+00
      26-
 mid.  surface    -2.6337E-05 -2.6337E-05 -2.6337E-05  0.0000E+00  0.0000E+00  0.0000E+00  0.0000E+00
      27-
 mid.  surface     1.7217E-05  1.7217E-05  1.7217E-05  0.0000E+00  0.0000E+00  0.0000E+00  0.0000E+00
      28-
 mid.  surface    -7.0051E-05 -7.0051E-05 -7.0051E-05  0.0000E+00  0.0000E+00  0.0000E+00  0.0000E+00
      29-
 mid.  surface     2.3031E-05  2.3031E-05  2.3031E-05  0.0000E+00  0.0000E+00  0.0000E+00  0.0000E+00
      30-
 mid.  surface     1.0553E-04  1.0553E-04  1.0553E-04  0.0000E+00  0.0000E+00  0.0000E+00  0.0000E+00
      31-
 mid.  surface     2.1940E-06  2.1940E-06  2.1940E-06  0.0000E+00  0.0000E+00  0.0000E+00  0.0000E+00
      52-
 mid.  surface     2.4654E-05  2.4654E-05  2.4654E-05  0.0000E+00  0.0000E+00  0.0000E+00  0.0000E+00
      53-
 mid.  surface     1.0593E-05  1.0593E-05  1.0593E-05  0.0000E+00  0.0000E+00  0.0000E+00  0.0000E+00
      54-
 mid.  surface    -2.6127E-07 -2.6127E-07 -2.6127E-07  0.0000E+00  0.0000E+00  0.0000E+00  0.0000E+00
      55-
 mid.  surface     1.9499E-05  1.9499E-05  1.9499E-05  0.0000E+00  0.0000E+00  0.0000E+00  0.0000E+00
      56-
 mid.  surface     3.6803E-05  3.6803E-05  3.6803E-05  0.0000E+00  0.0000E+00  0.0000E+00  0.0000E+00
      57-
 mid.  surface     6.2769E-05  6.2769E-05  6.2769E-05  0.0000E+00  0.0000E+00  0.0000E+00  0.0000E+00
     124-
 mid.  surface     1.8158E-05  1.8158E-05  1.8158E-05  0.0000E+00  0.0000E+00  0.0000E+00  0.0000E+00
     125-
 mid.  surface     1.3029E-05  1.3029E-05  1.3029E-05  0.0000E+00  0.0000E+00  0.0000E+00  0.0000E+00
     126-
 mid.  surface    -9.8736E-05 -9.8736E-05 -9.8736E-05  0.0000E+00  0.0000E+00  0.0000E+00  0.0000E+00
     127-
 mid.  surface    -8.0053E-05 -8.0053E-05 -8.0053E-05  0.0000E+00  0.0000E+00  0.0000E+00  0.0000E+00
     128-
 mid.  surface     5.3601E-05  5.3601E-05  5.3601E-05  0.0000E+00  0.0000E+00  0.0000E+00  0.0000E+00
     129-
 mid.  surface     9.5276E-05  9.5276E-05  9.5276E-05  0.0000E+00  0.0000E+00  0.0000E+00  0.0000E+00
     148-
 mid.  surface    -1.7321E-05 -1.7321E-05 -1.7321E-05  0.0000E+00  0.0000E+00  0.0000E+00  0.0000E+00
     149-
 mid.  surface    -3.8993E-05 -3.8993E-05 -3.8993E-05  0.0000E+00  0.0000E+00  0.0000E+00  0.0000E+00
     150-
 mid.  surface     3.0263E-05  3.0263E-05  3.0263E-05  0.0000E+00  0.0000E+00  0.0000E+00  0.0000E+00
     164-
 mid.  surface    -6.5754E-05 -6.5754E-05 -6.5754E-05  0.0000E+00  0.0000E+00  0.0000E+00  0.0000E+00
     165-
 mid.  surface    -4.6276E-05 -4.6276E-05 -4.6276E-05  0.0000E+00  0.0000E+00  0.0000E+00  0.0000E+00
     166-
 mid.  surface     2.0005E-05  2.0005E-05  2.0005E-05  0.0000E+00  0.0000E+00  0.0000E+00  0.0000E+00



 n o d a l  s t r a i n  c a l c u l a t i o n s   f o r   t i m e  s t e p        1   ( at time 0.00000E+00 )

 node (global)
          strain       eps-xx      eps-yy      eps-zz      eps-xy      eps-yz      eps-zx       
       1-
 mid.  surface     0.0000E+00  0.0000E+00  0.0000E+00  0.0000E+00  0.0000E+00  0.0000E+00
       2-
 mid.  surface     0.0000E+00  0.0000E+00  0.0000E+00  0.0000E+00  0.0000E+00  0.0000E+00
       8-
 mid.  surface     0.0000E+00  0.0000E+00  0.0000E+00  0.0000E+00  0.0000E+00  0.0000E+00
       9-
 mid.  surface     0.0000E+00  0.0000E+00  0.0000E+00  0.0000E+00  0.0000E+00  0.0000E+00
      10-
 mid.  surface     0.0000E+00  0.0000E+00  0.0000E+00  0.0000E+00  0.0000E+00  0.0000E+00
      11-
 mid.  surface     0.0000E+00  0.0000E+00  0.0000E+00  0.0000E+00  0.0000E+00  0.0000E+00
      12-
 mid.  surface     0.0000E+00  0.0000E+00  0.0000E+00  0.0000E+00  0.0000E+00  0.0000E+00
      17-
 mid.  surface     0.0000E+00  0.0000E+00  0.0000E+00  0.0000E+00  0.0000E+00  0.0000E+00
      18-
 mid.  surface     0.0000E+00  0.0000E+00  0.0000E+00  0.0000E+00  0.0000E+00  0.0000E+00
      19-
 mid.  surface     0.0000E+00  0.0000E+00  0.0000E+00  0.0000E+00  0.0000E+00  0.0000E+00
      20-
 mid.  surface     0.0000E+00  0.0000E+00  0.0000E+00  0.0000E+00  0.0000E+00  0.0000E+00
      21-
 mid.  surface     0.0000E+00  0.0000E+00  0.0000E+00  0.0000E+00  0.0000E+00  0.0000E+00
      22-
 mid.  surface     0.0000E+00  0.0000E+00  0.0000E+00  0.0000E+00  0.0000E+00  0.0000E+00
      23-
 mid.  surface     0.0000E+00  0.0000E+00  0.0000E+00  0.0000E+00  0.0000E+00  0.0000E+00
      24-
 mid.  surface     0.0000E+00  0.0000E+00  0.0000E+00  0.0000E+00  0.0000E+00  0.0000E+00
      25-
 mid.  surface     0.0000E+00  0.0000E+00  0.0000E+00  0.0000E+00  0.0000E+00  0.0000E+00
      26-
 mid.  surface     0.0000E+00  0.0000E+00  0.0000E+00  0.0000E+00  0.0000E+00  0.0000E+00
      27-
 mid.  surface     0.0000E+00  0.0000E+00  0.0000E+00  0.0000E+00  0.0000E+00  0.0000E+00
      28-
 mid.  surface     0.0000E+00  0.0000E+00  0.0000E+00  0.0000E+00  0.0000E+00  0.0000E+00
      29-
 mid.  surface     0.0000E+00  0.0000E+00  0.0000E+00  0.0000E+00  0.0000E+00  0.0000E+00
      30-
 mid.  surface     0.0000E+00  0.0000E+00  0.0000E+00  0.0000E+00  0.0000E+00  0.0000E+00
      31-
 mid.  surface     0.0000E+00  0.0000E+00  0.0000E+00  0.0000E+00  0.0000E+00  0.0000E+00
      52-
 mid.  surface     0.0000E+00  0.0000E+00  0.0000E+00  0.0000E+00  0.0000E+00  0.0000E+00
      53-
 mid.  surface     0.0000E+00  0.0000E+00  0.0000E+00  0.0000E+00  0.0000E+00  0.0000E+00
      54-
 mid.  surface     0.0000E+00  0.0000E+00  0.0000E+00  0.0000E+00  0.0000E+00  0.0000E+00
      55-
 mid.  surface     0.0000E+00  0.0000E+00  0.0000E+00  0.0000E+00  0.0000E+00  0.0000E+00
      56-
 mid.  surface     0.0000E+00  0.0000E+00  0.0000E+00  0.0000E+00  0.0000E+00  0.0000E+00
      57-
 mid.  surface     0.0000E+00  0.0000E+00  0.0000E+00  0.0000E+00  0.0000E+00  0.0000E+00
     124-
 mid.  surface     0.0000E+00  0.0000E+00  0.0000E+00  0.0000E+00  0.0000E+00  0.0000E+00
     125-
 mid.  surface     0.0000E+00  0.0000E+00  0.0000E+00  0.0000E+00  0.0000E+00  0.0000E+00
     126-
 mid.  surface     0.0000E+00  0.0000E+00  0.0000E+00  0.0000E+00  0.0000E+00  0.0000E+00
     127-
 mid.  surface     0.0000E+00  0.0000E+00  0.0000E+00  0.0000E+00  0.0000E+00  0.0000E+00
     128-
 mid.  surface     0.0000E+00  0.0000E+00  0.0000E+00  0.0000E+00  0.0000E+00  0.0000E+00
     129-
 mid.  surface     0.0000E+00  0.0000E+00  0.0000E+00  0.0000E+00  0.0000E+00  0.0000E+00
     148-
 mid.  surface     0.0000E+00  0.0000E+00  0.0000E+00  0.0000E+00  0.0000E+00  0.0000E+00
     149-
 mid.  surface     0.0000E+00  0.0000E+00  0.0000E+00  0.0000E+00  0.0000E+00  0.0000E+00
     150-
 mid.  surface     0.0000E+00  0.0000E+00  0.0000E+00  0.0000E+00  0.0000E+00  0.0000E+00
     164-
 mid.  surface     0.0000E+00  0.0000E+00  0.0000E+00  0.0000E+00  0.0000E+00  0.0000E+00
     165-
 mid.  surface     0.0000E+00  0.0000E+00  0.0000E+00  0.0000E+00  0.0000E+00  0.0000E+00
     166-
 mid.  surface     0.0000E+00  0.0000E+00  0.0000E+00  0.0000E+00  0.0000E+00  0.0000E+00



 n o d a l  s t r e s s  c a l c u l a t i o n s   f o r   t i m e  s t e p       10   ( at time 1.29245E+00 )

 node (global)
          stress       sig-xx      sig-yy      sig-zz      sig-xy      sig-yz      sig-zx       plastic
                                                                                                 strain 
       1-
 mid.  surface     2.7386E+08  1.2621E+08 -1.8020E+08  2.7765E+07 -3.7098E+08 -2.6374E+07 -2.8868E-04
       2-
 mid.  surface     8.6419E+07 -1.5325E+07 -3.1783E+08  6.0472E+07 -4.6510E+08 -5.3980E+08  6.5331E-04
       8-
 mid.  surface    -4.4428E+07  1.5979E+08  2.8031E+08  2.2298E+07 -9.8530E+08 -2.8596E+08  4.3465E-03
       9-
 mid.  surface     2.5293E+08  3.4029E+08 -2.3772E+08 -4.9879E+06 -6.7580E+06 -1.5720E+08 -9.6111E-04
      10-
 mid.  surface     2.0375E+08  1.0276E+08 -1.3315E+08  6.1054E+06  8.8970E+07  6.8108E+07  1.6702E-04
      11-
 mid.  surface     2.2621E+08  1.9644E+08 -2.0095E+08  8.3751E+07 -6.5636E+07  5.4085E+07  5.9941E-04
      12-
 mid.  surface     4.7735E+07  9.5323E+07 -5.7992E+06 -3.3283E+05 -7.6699E+07  8.4961E+07  5.0092E-04
      17-
 mid.  surface    -1.0677E+08 -6.7174E+07 -1.3867E+08  3.0034E+07 -4.8269E+08 -2.9026E+08  4.0964E-03
      18-
 mid.  surface    -1.6639E+08 -1.1028E+08  2.9505E+08 -8.6148E+06 -7.2547E+08 -1.9777E+08  5.4152E-03
      19-
 mid.  surface    -1.2363E+08 -9.0325E+07 -7.4943E+07 -1.8999E+07 -2.9941E+08 -3.9183E+08  2.0977E-03
      20-
 mid.  surface    -3.7654E+07 -7.4853E+06 -3.4848E+08  1.9726E+07 -1.1646E+07 -3.7804E+07  7.7111E-04
      21-
 mid.  surface    -1.3260E+08 -7.7734E+07 -2.8325E+08 -2.2576E+07  2.4308E+07 -4.0268E+07  7.0114E-04
      22-
 mid.  surface    -5.2753E+07  1.2338E+07 -1.4916E+08 -4.4100E+06  1.1756E+08  2.0631E+08  3.4462E-04
      23-
 mid.  surface     1.0205E+08  1.0747E+08 -3.3656E+08  5.1591E+07  1.9602E+08  1.3367E+08 -5.5293E-04
      24-
 mid.  surface    -5.3760E+07 -5.3413E+07 -2.9007E+08 -4.0809E+05 -3.8119E+06 -6.2008E+06  1.4389E-04
      25-
 mid.  surface    -6.7460E+07 -5.7701E+07 -2.7202E+08 -1.1052E+07  3.8407E+06 -9.2733E+06  2.9464E-04
      26-
 mid.  surface    -1.8524E+07 -1.1641E+07 -1.9390E+08  3.0389E+06 -2.4926E+07 -4.5712E+07  6.4874E-05
      27-
 mid.  surface    -1.1106E+07 -5.2793E+06 -2.6005E+08  1.1827E+07 -3.2579E+07 -2.8676E+07 -1.8233E-04
      28-
 mid.  surface    -8.4024E+07 -9.3292E+07 -3.0058E+08 -2.9850E+06 -1.4363E+06 -7.6215E+06  4.9352E-05
      29-
 mid.  surface    -6.9340E+07 -6.7003E+07 -2.8680E+08 -8.1823E+06 -5.6491E+06 -2.0342E+07  0.0000E+00
      30-
 mid.  surface    -4.6573E+07 -4.7616E+07 -2.3336E+08 -5.8509E+05 -3.1658E+07 -6.4597E+07  0.0000E+00
      31-
 mid.  surface    -5.1033E+07 -5.5417E+07 -2.6521E+08  3.1107E+06 -2.9548E+07 -4.4047E+07 -4.5561E-05
      52-
 mid.  surface     3.0410E+07 -3.6357E+07 -2.8003E+08 -2.7209E+06  4.2427E+08  9.9801E+07  3.0978E-05
      53-
 mid.  surface    -9.4701E+07 -6.0548E+07 -1.2982E+08 -2.6853E+06 -7.1503E+07 -4.2266E+07  9.0831E-04
      54-
 mid.  surface    -3.3603E+07 -2.8570E+07 -2.4436E+08  1.7579E+06  3.3043E+07 -9.0842E+06  1.8382E-04
      55-
 mid.  surface    -5.2106E+07 -3.1337E+07 -2.0176E+08  2.8731E+04 -1.8943E+07 -1.8746E+07  2.9689E-04
      56-
 mid.  surface    -7.0507E+07 -6.7315E+07 -2.8568E+08 -4.3077E+06 -7.4564E+05 -2.0771E+07  5.5764E-05
      57-
 mid.  surface    -8.0159E+07 -6.8340E+07 -2.5401E+08 -1.3275E+06 -4.8942E+05 -9.7624E+06  1.5459E-04
     124-
 mid.  surface    -4.5531E+07 -3.9740E+07 -3.9116E+08  3.5908E+07 -1.2421E+08 -6.5895E+07  1.9017E-04
     125-
 mid.  surface     5.7782E+07  2.3536E+07 -1.8583E+08  2.3726E+07 -3.6239E+07  2.1454E+08  3.8620E-04
     126-
 mid.  surface    -6.5905E+07 -4.3796E+07 -2.9157E+08  3.1221E+06 -1.1596E+07 -2.7221E+07  1.0874E-04
     127-
 mid.  surface    -2.3332E+07 -2.5247E+07 -1.8317E+08  1.4528E+07  2.4156E+07 -4.8695E+07  7.9275E-05
     128-
 mid.  surface    -6.9216E+07 -5.8083E+07 -2.6794E+08 -5.9792E+06  1.7908E+06 -2.8048E+07  0.0000E+00
     129-
 mid.  surface    -6.5828E+07 -7.2082E+07 -2.3013E+08  3.1673E+06  4.9760E+07 -7.6676E+07  0.0000E+00
     148-
 mid.  surface    -3.3021E+07  9.4273E+07 -1.2213E+08 -1.1018E+07 -1.4951E+08 -1.1566E+08 -9.1394E-05
     149-
 mid.  surface    -2.1287E+07  1.5526E+07 -1.8886E+08 -1.2482E+07 -5.3176E+07 -2.1130E+07 -1.5316E-04
     150-
 mid.  surface    -6.2105E+07 -4.2853E+07 -2.4334E+08 -6.5132E+06  6.9449E+06 -6.8016E+05  1.8371E-05
     164-
 mid.  surface     6.3583E+07  9.6159E+07 -3.2067E+08 -2.7746E+07  4.5097E+08 -1.3609E+07 -1.9063E-04
     165-
 mid.  surface    -1.1170E+07 -5.7931E+06 -2.4077E+08 -1.5380E+07  4.0282E+07 -3.3584E+07  8.6203E-05
     166-
 mid.  surface    -5.3270E+07 -6.5941E+07 -2.8496E+08 -1.2062E+07  6.4248E+06 -4.2662E+07 -1.1614E-05



 n o d a l  s t r a i n  c a l c u l a t i o n s   f o r   t i m e  s t e p       10   ( at time 1.29245E+00 )

 node (global)
          strain       eps-xx      eps-yy      eps-zz      eps-xy      eps-yz      eps-zx       
       1-
 mid.  surface     3.7070E-03  9.8654E-04 -3.6999E-03  5.3867E-04 -3.5523E-03 -1.1017E-03
       2-
 mid.  surface     3.7091E-03  2.2055E-03 -7.1019E-03  1.0577E-03 -3.8370E-03 -4.7762E-03
       8-
 mid.  surface     1.2171E-03  5.0156E-03 -4.4005E-03  4.4745E-04 -8.9963E-03 -2.4964E-03
       9-
 mid.  surface     1.1798E-03  4.6265E-03 -4.2214E-03  3.0274E-04 -1.8692E-03 -6.4162E-04
      10-
 mid.  surface     1.3551E-03  1.3031E-03 -1.9374E-03  4.2386E-04 -7.6840E-04  8.1569E-04
      11-
 mid.  surface     2.5344E-03  2.7142E-03 -4.2673E-03  2.1528E-03 -3.2584E-03 -3.9361E-04
      12-
 mid.  surface     3.1352E-04  1.3226E-03 -1.0380E-03  2.2962E-04 -1.3936E-03  9.5980E-05
      17-
 mid.  surface     3.3874E-03  4.0031E-03 -8.8863E-03  3.5240E-04 -5.5624E-03 -3.9170E-03
      18-
 mid.  surface     1.3776E-03  2.5974E-03 -3.9245E-03 -4.0313E-04 -7.6653E-03 -2.2796E-03
      19-
 mid.  surface     1.2482E-03  2.2137E-03 -4.8499E-03 -4.1889E-04 -2.4861E-03 -4.2863E-03
      20-
 mid.  surface     2.3638E-03  2.6787E-03 -6.8615E-03  1.4786E-04 -2.8498E-04 -4.2184E-04
      21-
 mid.  surface     7.3266E-04  1.7545E-03 -4.7983E-03 -4.4667E-04 -1.0575E-05 -8.7226E-04
      22-
 mid.  surface     8.3257E-05  1.0631E-03 -2.0486E-03  7.9784E-05  4.0453E-04  1.1015E-03
      23-
 mid.  surface     1.6251E-03  1.8818E-03 -4.1118E-03  1.2507E-03  1.1217E-03  8.9468E-04
      24-
 mid.  surface     1.0447E-03  1.0862E-03 -4.0133E-03 -1.2158E-05 -2.4654E-04 -1.5104E-04
      25-
 mid.  surface     9.2221E-04  1.1425E-03 -3.9483E-03 -1.7909E-04 -1.2122E-04 -4.4441E-04
      26-
 mid.  surface     7.9229E-04  9.1047E-04 -2.7676E-03  7.1511E-05 -5.0585E-04 -1.0024E-03
      27-
 mid.  surface     9.7278E-04  1.0515E-03 -3.3398E-03  2.0645E-04 -4.1992E-04 -5.4836E-04
      28-
 mid.  surface     7.2086E-04  5.4705E-04 -3.5346E-03 -5.2165E-05 -1.0452E-04 -1.6878E-04
      29-
 mid.  surface     6.9870E-04  7.4328E-04 -3.4508E-03 -1.5618E-04 -1.0797E-04 -3.8837E-04
      30-
 mid.  surface     6.7641E-04  6.5599E-04 -2.8876E-03 -1.1414E-05 -6.0550E-04 -1.2329E-03
      31-
 mid.  surface     7.6581E-04  6.7914E-04 -3.2083E-03  5.4896E-05 -4.9272E-04 -8.1899E-04
      52-
 mid.  surface     1.0902E-03  4.6677E-04 -2.9359E-03  1.2769E-04  2.8150E-03  3.9376E-04
      53-
 mid.  surface     1.1571E-03  1.2335E-03 -3.6696E-03 -2.4542E-04 -1.3844E-03 -7.0184E-04
      54-
 mid.  surface     9.2128E-04  1.0248E-03 -3.4071E-03  3.6236E-05 -4.6414E-05 -3.1817E-04
      55-
 mid.  surface     6.8642E-04  1.0873E-03 -3.1197E-03  8.5855E-06 -7.6090E-04 -3.1344E-04
      56-
 mid.  surface     7.2277E-04  7.8610E-04 -3.5181E-03 -7.7426E-05 -1.0181E-04 -4.2254E-04
      57-
 mid.  surface     5.1662E-04  7.4984E-04 -3.1737E-03 -1.1567E-05 -2.4789E-04 -2.5639E-04
     124-
 mid.  surface     1.8620E-03  1.8809E-03 -5.9631E-03  7.3597E-04 -1.0305E-03 -9.1466E-04
     125-
 mid.  surface     1.9177E-03  8.5626E-04 -3.2628E-03  5.5567E-04 -7.6044E-04  9.2439E-04
     126-
 mid.  surface     7.9271E-04  1.1951E-03 -3.8904E-03  6.7069E-05 -2.4298E-04 -6.1084E-04
     127-
 mid.  surface     7.4890E-04  6.9221E-04 -2.5406E-03  2.7782E-04  4.3241E-04 -1.0190E-03
     128-
 mid.  surface     5.6759E-04  7.7984E-04 -3.2248E-03 -1.1428E-04  3.3616E-05 -5.3494E-04
     129-
 mid.  surface     5.0291E-04  3.8274E-04 -2.6329E-03  6.0003E-05  9.4817E-04 -1.4626E-03
     148-
 mid.  surface     9.2738E-04  2.4093E-03 -3.5286E-03 -4.3288E-06 -1.5949E-03 -7.6141E-04
     149-
 mid.  surface     5.1961E-04  1.1942E-03 -2.6267E-03 -1.5651E-04 -7.4148E-04 -1.5223E-04
     150-
 mid.  surface     4.9202E-04  8.5875E-04 -3.0001E-03 -1.2345E-04  1.0936E-04 -1.7170E-05
     164-
 mid.  surface     1.0082E-03  2.3704E-03 -4.1727E-03 -2.8845E-04  2.7149E-03 -3.4690E-04
     165-
 mid.  surface     1.0141E-03  1.1605E-03 -3.4067E-03 -2.3293E-04  1.0351E-04 -6.5517E-04
     166-
 mid.  surface     9.0715E-04  6.6516E-04 -3.4897E-03 -2.3098E-04  1.3773E-04 -8.1048E-04



 n o d a l  s t r e s s  c a l c u l a t i o n s   f o r   t i m e  s t e p       66   ( at time 2.54839E+00 )

 node (global)
          stress       sig-xx      sig-yy      sig-zz      sig-xy      sig-yz      sig-zx       plastic
                                                                                                 strain 
       1-
 mid.  surface    -3.9166E+08 -4.0573E+08 -4.8877E+08 -9.4309E+07 -8.8520E+08  3.6737E+08  5.8344E-02
       2-
 mid.  surface    -1.6015E+09 -1.6064E+09 -1.6323E+09  5.6610E+07 -1.0517E+09 -4.9778E+08  6.5530E-02
       8-
 mid.  surface     1.8629E+08  4.1601E+08  5.1785E+08 -1.7153E+07 -1.0870E+09 -5.4267E+08  1.0232E-01
       9-
 mid.  surface     7.3651E+08  8.2548E+08  1.6977E+08  1.7063E+07  8.4832E+08 -2.8033E+08 -9.1048E-02
      10-
 mid.  surface     4.1115E+08  7.1768E+07 -2.5331E+08  6.6717E+06  5.8882E+08  1.9057E+08 -4.5200E-02
      11-
 mid.  surface     6.3773E+08  6.0416E+08  2.8835E+08  1.2611E+08  1.2066E+08  3.1080E+08  4.5309E-02
      12-
 mid.  surface    -1.2321E+08  3.4230E+06 -2.2019E+08 -7.6911E+07 -4.4000E+08  3.9173E+08 -3.1113E-03
      17-
 mid.  surface    -7.6007E+08 -5.0599E+08 -4.7657E+08  2.4917E+06 -3.2837E+08 -7.6284E+07  1.2445E-01
      18-
 mid.  surface    -7.4828E+08 -6.5889E+08 -3.5320E+08 -1.2186E+08 -7.5108E+08 -2.0042E+08  1.2254E-01
      19-
 mid.  surface    -1.2406E+09 -1.2098E+09 -1.1901E+09 -1.3455E+07 -6.1230E+08 -2.6796E+08  2.7480E-02
      20-
 mid.  surface    -4.9602E+08 -3.2544E+08 -2.8917E+08  1.9061E+06 -4.3297E+06 -3.6164E+07  7.3041E-02
      21-
 mid.  surface    -2.8366E+08 -2.4548E+08 -3.0932E+08 -1.4166E+07  3.3026E+07 -1.4679E+08  7.2617E-03
      22-
 mid.  surface     4.5455E+08  5.2769E+08  3.6730E+08 -5.7707E+07  1.2459E+08  1.9633E+08 -4.3974E-03
      23-
 mid.  surface     4.2309E+08  4.0946E+08  1.8641E+08  8.4860E+07  2.6907E+08  1.7068E+08  2.0298E-02
      24-
 mid.  surface    -2.4846E+08 -1.9629E+08 -3.8982E+08 -9.6345E+05  1.4748E+07 -1.6541E+07  4.1948E-03
      25-
 mid.  surface    -1.5090E+08 -1.5618E+08 -3.4739E+08  9.5130E+06 -4.5209E+07 -2.4347E+07  9.4324E-03
      26-
 mid.  surface     1.1185E+08  1.0231E+08 -1.2062E+08  8.1509E+06 -5.1648E+07 -7.2968E+07  6.0733E-03
      27-
 mid.  surface     4.0785E+07  5.1743E+07 -2.1275E+08  2.7928E+07  6.3384E+07 -2.0223E+07 -1.4250E-03
      28-
 mid.  surface    -3.7284E+08 -3.6373E+08 -6.4725E+08 -2.7268E+07 -2.4065E+07 -3.1498E+06  2.8514E-03
      29-
 mid.  surface    -1.9349E+08 -1.9917E+08 -4.3863E+08  1.7966E+07 -5.3033E+07  4.1514E+07  2.1288E-03
      30-
 mid.  surface    -1.1272E+08 -1.2389E+08 -3.7498E+08  2.2542E+07 -9.9461E+07 -7.9889E+07  1.1471E-03
      31-
 mid.  surface    -2.7802E+08 -2.9169E+08 -5.1495E+08 -2.3817E+05 -3.7425E+07 -3.9048E+07 -1.1110E-03
      52-
 mid.  surface    -6.7671E+07 -2.7899E+08 -5.9206E+08  2.1987E+07  5.3493E+08  1.1629E+08  1.1236E-02
      53-
 mid.  surface    -5.3614E+08 -4.3299E+08 -1.9524E+08 -9.1121E+07 -3.4787E+08 -9.2089E+07  6.9733E-02
      54-
 mid.  surface     1.2320E+08  1.1525E+08 -2.6482E+08  2.7440E+07  2.3427E+08  1.2210E+07 -1.0265E-03
      55-
 mid.  surface    -4.4031E+06  6.8943E+07 -1.5714E+07 -2.2846E+07 -4.2962E+07 -7.4328E+06  9.4275E-03
      56-
 mid.  surface    -3.6560E+08 -3.4456E+08 -7.1133E+08  1.5367E+07  4.5375E+07 -3.9063E+07  4.0927E-03
      57-
 mid.  surface    -2.8106E+08 -2.7097E+08 -5.7797E+08 -7.2778E+06 -3.4637E+07 -2.3161E+07  1.0998E-02
     124-
 mid.  surface     5.6399E+07  1.1398E+08 -1.2256E+08  3.0736E+07 -1.6579E+07 -2.7040E+08  6.0645E-03
     125-
 mid.  surface     8.9977E+08  9.1087E+08  6.3196E+08 -5.9221E+07  1.4068E+08  2.1346E+08  5.5093E-03
     126-
 mid.  surface    -1.6568E+08 -2.1212E+08 -3.7324E+08 -2.5337E+05  7.8439E+07 -4.6322E+07  1.0637E-02
     127-
 mid.  surface     2.1598E+07 -2.5803E+07 -2.6441E+08 -1.6020E+06  1.7270E+08 -9.1066E+07  9.8748E-03
     128-
 mid.  surface    -7.2339E+07 -1.9801E+08 -2.7229E+08 -4.0633E+07  1.3533E+08  1.7381E+07  2.3514E-03
     129-
 mid.  surface    -2.1921E+08 -2.6321E+08 -5.0626E+08 -3.0003E+07  1.8890E+08 -1.2267E+08  8.9636E-04
     148-
 mid.  surface     1.7599E+08  3.7396E+08  5.0705E+08 -4.5083E+07 -6.5169E+08 -3.2959E+08  5.8030E-02
     149-
 mid.  surface     4.5984E+08  5.3300E+08  5.4796E+08 -4.4825E+07 -1.9353E+08 -9.0878E+07 -1.3802E-02
     150-
 mid.  surface    -1.8797E+08 -2.0794E+08 -4.9172E+08 -2.6522E+06 -9.7999E+07 -7.7959E+07  4.6486E-03
     164-
 mid.  surface     1.8534E+08  2.3604E+08 -4.2565E+08  8.7833E+06  6.2768E+08 -1.7693E+08 -4.0625E-04
     165-
 mid.  surface     4.9288E+08  4.9008E+08  3.6847E+07  4.6988E+05  1.9057E+08 -8.5262E+07 -1.7270E-02
     166-
 mid.  surface    -3.5624E+08 -4.1143E+08 -7.5913E+08  5.0210E+06  1.2176E+07 -1.2194E+08 -2.6856E-03



 n o d a l  s t r a i n  c a l c u l a t i o n s   f o r   t i m e  s t e p       66   ( at time 2.54839E+00 )

 node (global)
          strain       eps-xx      eps-yy      eps-zz      eps-xy      eps-yz      eps-zx       
       1-
 mid.  surface     1.3147E-02  1.0731E-02 -1.5921E-02 -3.4731E-03 -1.7459E-02  9.7053E-04
       2-
 mid.  surface     1.1538E-02  4.3607E-03 -2.4953E-02  1.2637E-03 -2.1944E-02 -3.1935E-03
       8-
 mid.  surface     6.6670E-03  1.5238E-02 -1.8885E-02  2.5565E-03 -7.5552E-02 -9.3486E-03
       9-
 mid.  surface     4.9659E-03  1.3320E-02 -9.5705E-03  7.3131E-05 -4.0168E-02 -5.5095E-03
      10-
 mid.  surface     4.1644E-03 -3.6986E-03 -3.9677E-04 -3.6163E-03 -2.4147E-02  5.3875E-03
      11-
 mid.  surface     1.0294E-02  1.3548E-02 -1.8791E-02  6.7947E-03 -2.8819E-02  6.0578E-03
      12-
 mid.  surface    -7.7060E-04  1.0832E-02 -4.7907E-03 -4.2542E-03 -1.1873E-02  5.4852E-03
      17-
 mid.  surface     9.6709E-03  1.6986E-02 -3.6135E-02  1.2953E-03 -3.2589E-02 -2.3820E-03
      18-
 mid.  surface     1.7681E-03  3.5304E-03 -1.6154E-02 -7.3178E-03 -5.6993E-02 -6.4615E-03
      19-
 mid.  surface     1.4263E-03  3.1554E-03 -1.5168E-02 -3.1370E-03 -1.4765E-02 -3.6502E-03
      20-
 mid.  surface     8.8768E-03  1.3578E-02 -2.6854E-02  8.6556E-04  2.4303E-03 -3.1153E-03
      21-
 mid.  surface     1.7453E-03  3.3888E-03 -1.2593E-02 -1.9483E-03  2.1069E-03 -4.2500E-03
      22-
 mid.  surface     7.8023E-04  7.8315E-03 -5.6505E-03 -2.9481E-03  1.1725E-03  4.6804E-04
      23-
 mid.  surface     8.8410E-03  1.1786E-02 -1.5001E-02  4.5747E-03  6.1755E-03  1.6842E-03
      24-
 mid.  surface     3.3198E-03  5.8720E-03 -1.3631E-02  1.8442E-04 -5.5205E-04 -2.8056E-03
      25-
 mid.  surface     3.7975E-03  3.0171E-03 -9.9049E-03  3.2707E-04 -1.0116E-03 -2.0637E-03
      26-
 mid.  surface     4.0808E-03  3.8959E-03 -7.5393E-03  3.0340E-04 -3.0084E-03 -3.6998E-03
      27-
 mid.  surface     3.1276E-03  5.0044E-03 -9.3056E-03  1.3541E-03  6.3078E-04 -1.9241E-03
      28-
 mid.  surface     8.1990E-04  1.4938E-03 -8.8274E-03 -9.3823E-04 -5.7973E-04 -2.6662E-04
      29-
 mid.  surface     2.2164E-03  2.4000E-03 -8.5778E-03  9.1271E-04 -1.4267E-03 -1.9121E-04
      30-
 mid.  surface     2.5305E-03  2.3748E-03 -7.8459E-03  1.1371E-03 -4.1570E-03 -3.0268E-03
      31-
 mid.  surface     6.8061E-04  2.9396E-04 -6.1072E-03 -1.0955E-04 -1.0370E-03 -1.1479E-03
      52-
 mid.  surface     5.0255E-03 -1.1633E-03 -5.8595E-03 -2.2927E-03  2.2586E-02  1.5561E-03
      53-
 mid.  surface     3.6993E-03  7.9496E-03 -1.2193E-02 -4.6733E-03 -7.2408E-05 -3.8582E-03
      54-
 mid.  surface     3.0364E-03  3.0020E-03 -1.0054E-02 -1.6608E-04  5.7641E-03 -7.9740E-04
      55-
 mid.  surface     3.4548E-03  5.4540E-03 -1.1646E-02 -1.3123E-03 -1.0365E-03 -1.6513E-03
      56-
 mid.  surface     1.2030E-03  1.6085E-03 -9.5592E-03  4.2455E-04  1.2577E-04 -1.3330E-03
      57-
 mid.  surface     1.4918E-03  2.0465E-03 -8.8007E-03 -2.7830E-04 -1.6036E-03 -5.6185E-04
     124-
 mid.  surface     5.9563E-03  5.1387E-03 -1.7718E-02  6.2035E-04 -3.5592E-03 -4.7209E-03
     125-
 mid.  surface     7.2563E-03  7.8819E-03 -1.0386E-02 -2.0460E-03 -6.9046E-04 -2.5885E-03
     126-
 mid.  surface     4.1352E-03  1.8568E-03 -9.5166E-03 -4.1020E-04  1.9930E-03 -2.8775E-03
     127-
 mid.  surface     4.3220E-03  2.4518E-03 -8.0099E-03 -3.0398E-04  5.6860E-03 -4.5245E-03
     128-
 mid.  surface     2.7789E-03 -4.8860E-04 -4.8976E-03 -1.2102E-03  2.6137E-03 -1.7645E-03
     129-
 mid.  surface     2.3978E-03  6.8636E-04 -7.8174E-03 -1.1025E-03  5.6539E-03 -5.2364E-03
     148-
 mid.  surface     5.6858E-03  1.6943E-02 -9.9324E-03  5.1129E-04 -1.4162E-03 -3.8013E-03
     149-
 mid.  surface     4.0363E-03  6.6624E-03 -8.6484E-03 -3.4340E-04  1.9008E-03 -1.5611E-03
     150-
 mid.  surface     1.5017E-03  6.8853E-04 -6.2756E-03 -1.6578E-04  5.6861E-04 -1.1223E-03
     164-
 mid.  surface     5.0626E-03  1.0670E-02 -1.2240E-02 -1.8276E-03  2.3939E-02 -3.2131E-03
     165-
 mid.  surface     3.8569E-03  4.8219E-03 -1.0893E-02 -7.8100E-04  1.0553E-02 -3.1070E-03
     166-
 mid.  surface     2.1118E-03 -3.7405E-04 -9.0568E-03  2.9517E-04  2.2824E-03 -3.4875E-03



 n o d a l  s t r e s s  c a l c u l a t i o n s   f o r   t i m e  s t e p      443   ( at time 3.13273E+00 )

 node (global)
          stress       sig-xx      sig-yy      sig-zz      sig-xy      sig-yz      sig-zx       plastic
                                                                                                 strain 
       1-
 mid.  surface    -1.0396E+09 -1.3351E+09 -2.3483E+09  3.1302E+06  4.5450E+07  8.0546E+08  4.1284E-02
       2-
 mid.  surface    -3.6227E+09 -3.7109E+09 -3.7025E+09  6.2476E+07 -6.0288E+07 -2.0116E+08  1.1316E-01
       8-
 mid.  surface    -2.1748E+09 -1.9368E+09 -2.2674E+09 -2.0202E+07 -3.9535E+08 -7.0485E+08  1.8101E-01
       9-
 mid.  surface     1.4136E+09  1.5852E+09 -3.9793E+08  1.4923E+08  1.1624E+09 -2.2487E+08 -1.8066E-01
      10-
 mid.  surface     1.0740E+08 -1.1471E+08 -1.1886E+09  3.7283E+07  7.8835E+08  3.0766E+08 -1.0150E-01
      11-
 mid.  surface    -1.8909E+09 -2.0569E+09 -2.2261E+09  7.9966E+07  4.7644E+08  3.6823E+08  3.0568E-02
      12-
 mid.  surface    -1.2800E+09 -1.2365E+09 -1.8978E+09 -4.8136E+06  4.2230E+08  4.9543E+08 -5.1593E-02
      17-
 mid.  surface    -5.5427E+09 -5.2799E+09 -4.2494E+09 -3.8863E+07  3.5465E+08  5.7806E+07  1.5095E-01
      18-
 mid.  surface    -3.6525E+09 -3.5063E+09 -3.1849E+09 -1.0672E+08 -7.5248E+07 -6.2771E+07  1.7502E-01
      19-
 mid.  surface    -2.9550E+09 -2.7136E+09 -2.6134E+09 -1.9529E+07  1.4147E+08 -2.6730E+08  4.1479E-02
      20-
 mid.  surface    -5.8141E+08 -4.7361E+08 -4.5976E+08  8.6646E+06  3.2247E+07 -4.4252E+07  1.0642E-01
      21-
 mid.  surface    -1.3981E+08 -1.7407E+08  1.4166E+08 -3.1893E+07 -1.6039E+08 -1.9381E+08  3.0179E-02
      22-
 mid.  surface     1.5360E+09  1.5334E+09  1.3744E+09  1.6296E+07 -1.2441E+08  1.9920E+08 -5.7416E-03
      23-
 mid.  surface     1.5070E+09  1.5303E+09  1.0339E+09  1.2481E+08  5.9471E+07  1.2850E+08  3.3340E-02
      24-
 mid.  surface    -5.2168E+08 -5.0552E+08 -7.6963E+08 -3.2208E+07  1.0929E+08  3.0812E+07  1.0882E-02
      25-
 mid.  surface     6.7279E+08  5.7029E+08  8.2271E+07  1.5274E+06 -7.7097E+07 -1.4344E+08  2.1674E-02
      26-
 mid.  surface     1.5702E+09  1.5603E+09  8.8845E+08  6.0166E+07 -2.0174E+08 -2.7143E+08  1.8278E-02
      27-
 mid.  surface     4.5410E+08  5.1612E+08  2.4693E+08  6.2105E+07 -7.2360E+07 -1.0006E+07  5.2252E-03
      28-
 mid.  surface    -4.5602E+08 -3.9971E+08 -6.5778E+08  6.5468E+06 -5.4799E+07 -7.1881E+07  6.6689E-03
      29-
 mid.  surface    -2.6511E+08 -3.4173E+08 -4.4041E+08 -3.1884E+07 -6.5083E+07  1.7258E+07  5.5678E-03
      30-
 mid.  surface    -6.4039E+07 -7.4848E+07 -3.3321E+08  1.8951E+07 -1.2220E+08 -8.9777E+07  2.0967E-03
      31-
 mid.  surface    -2.3296E+08 -2.1628E+08 -3.1881E+08  4.6670E+07 -7.8382E+07 -5.4156E+07  5.3755E-03
      52-
 mid.  surface     1.5008E+09  1.3840E+09  9.5429E+08  1.0001E+08  1.6235E+08  1.8129E+08  6.0261E-03
      53-
 mid.  surface    -6.2846E+08 -4.8341E+08 -1.2476E+08 -1.0773E+08 -3.2520E+08 -5.5591E+07  1.0414E-01
      54-
 mid.  surface     2.9322E+08  2.3419E+08  4.5340E+06  4.1359E+07  2.1213E+08  4.1437E+05 -1.1906E-02
      55-
 mid.  surface     3.8137E+07  6.9850E+07 -5.8157E+07 -7.7914E+07  1.5697E+08 -1.0290E+07  1.9320E-02
      56-
 mid.  surface    -5.8844E+08 -7.1230E+08 -7.6528E+08  1.5703E+07  1.0441E+08 -2.6305E+07  6.8614E-04
      57-
 mid.  surface    -9.5354E+07 -2.1971E+08 -5.7497E+08  1.0298E+07 -6.3950E+07 -5.6325E+07  1.0018E-02
     124-
 mid.  surface    -1.6271E+09 -1.5529E+09 -5.6033E+08 -5.7428E+07 -3.4987E+08 -9.5538E+07  3.1073E-02
     125-
 mid.  surface    -3.5167E+08 -4.4839E+08  1.7976E+08 -5.9098E+07 -1.4710E+08  5.6117E+08 -1.3307E-02
     126-
 mid.  surface     1.0228E+09  1.0537E+09  5.2123E+08 -4.9507E+06  2.5805E+07 -2.4208E+08  2.5801E-02
     127-
 mid.  surface     1.4981E+09  1.4630E+09  7.6014E+08  3.2103E+07  1.3479E+08 -3.3223E+08  1.6091E-02
     128-
 mid.  surface    -1.3464E+08 -2.4665E+08 -1.2309E+08 -5.4100E+07  1.5378E+08 -3.3537E+07  1.1354E-02
     129-
 mid.  surface    -1.3490E+08 -2.3382E+08 -4.8859E+08 -4.1070E+07  2.6894E+08 -1.9528E+08  9.2555E-04
     148-
 mid.  surface    -7.5262E+08 -7.2707E+08  1.6366E+08 -1.2225E+08 -6.1113E+08 -4.6406E+08  1.0055E-01
     149-
 mid.  surface     8.2753E+08  9.8071E+08  9.6603E+08 -1.0864E+08 -4.1895E+07 -8.7049E+07  3.6459E-03
     150-
 mid.  surface     1.6194E+09  1.7279E+09  1.0749E+09  6.4249E+06 -6.2637E+08  2.7495E+07  2.0444E-02
     164-
 mid.  surface     1.0122E+09  8.3386E+08  6.7080E+08  1.0501E+08  2.5475E+08 -1.6786E+08 -1.7382E-02
     165-
 mid.  surface     5.1438E+08  5.5757E+08  4.4584E+08 -2.2513E+07  1.8222E+08 -7.8984E+07 -2.7835E-02
     166-
 mid.  surface     7.3761E+08  9.2710E+08  7.8814E+08 -1.0210E+08 -4.0920E+08 -7.3298E+07  8.4602E-03



 n o d a l  s t r a i n  c a l c u l a t i o n s   f o r   t i m e  s t e p      443   ( at time 3.13273E+00 )

 node (global)
          strain       eps-xx      eps-yy      eps-zz      eps-xy      eps-yz      eps-zx       
       1-
 mid.  surface     2.5823E-02  1.7751E-02 -2.4544E-02 -2.4314E-03 -2.8028E-02 -1.5213E-03
       2-
 mid.  surface     2.3043E-02  1.6615E-02 -4.8140E-02  6.5064E-03 -3.0546E-02 -1.7732E-02
       8-
 mid.  surface     1.3969E-02  4.6541E-02 -4.3794E-02  3.2838E-03 -1.2918E-01 -1.9773E-02
       9-
 mid.  surface     1.2792E-02  2.6868E-02 -1.3575E-02  1.6697E-04 -5.7748E-02 -8.4530E-03
      10-
 mid.  surface     1.1524E-02  2.8136E-03 -8.1966E-03 -3.7196E-03 -2.5432E-02  1.1594E-02
      11-
 mid.  surface     2.1093E-02  2.0231E-02 -3.1371E-02  1.5409E-02 -4.1783E-02  8.8938E-03
      12-
 mid.  surface    -7.7862E-05  1.4156E-02  7.6952E-04 -6.1017E-03 -1.8265E-02  3.5506E-03
      17-
 mid.  surface     1.7333E-02  3.9972E-02 -6.5787E-02  5.3462E-03 -5.0581E-02 -9.3948E-03
      18-
 mid.  surface     5.2731E-03  3.4683E-02 -4.1481E-02 -1.0247E-02 -8.5220E-02 -1.3992E-02
      19-
 mid.  surface     2.4537E-03  1.3141E-02 -2.5388E-02 -4.7069E-03 -2.4068E-02 -1.9421E-02
      20-
 mid.  surface     1.5422E-02  2.5945E-02 -4.3268E-02  1.3751E-03 -2.2910E-04 -3.7663E-03
      21-
 mid.  surface     4.7979E-03  7.9196E-03 -2.0374E-02 -1.7646E-03  2.3238E-03 -5.9951E-03
      22-
 mid.  surface     2.2697E-03  1.0339E-02 -2.8004E-03 -1.7900E-03  2.2307E-03  3.2959E-03
      23-
 mid.  surface     1.3875E-02  1.7193E-02 -1.9878E-02  8.4405E-03  7.1501E-03  3.7512E-03
      24-
 mid.  surface     4.7522E-03  8.3467E-03 -2.0674E-02  3.0781E-04 -1.1789E-03 -2.0718E-03
      25-
 mid.  surface     6.4555E-03  4.0514E-03 -1.5264E-02 -5.9122E-04 -1.5072E-03 -1.3295E-03
      26-
 mid.  surface     6.6771E-03  5.4436E-03 -1.0513E-02  1.1644E-03 -4.4928E-03 -5.0314E-03
      27-
 mid.  surface     5.0733E-03  7.3457E-03 -1.3391E-02  2.5532E-03  4.0172E-04 -2.5861E-03
      28-
 mid.  surface     1.3396E-03  3.3254E-03 -1.1775E-02 -3.2583E-04 -2.4693E-03 -2.4539E-03
      29-
 mid.  surface     3.7682E-03  1.1010E-03 -9.8502E-03 -4.0627E-04 -2.3260E-03  5.8162E-05
      30-
 mid.  surface     4.2587E-03  3.7320E-03 -1.0264E-02  1.5162E-03 -7.6178E-03 -3.8130E-03
      31-
 mid.  surface     2.2385E-03  2.8867E-03 -8.7556E-03  1.2761E-03 -3.8182E-03 -3.4298E-03
      52-
 mid.  surface     8.7020E-03 -4.3678E-03 -5.1756E-03 -4.1058E-03  3.1682E-02  1.5919E-03
      53-
 mid.  surface     6.8211E-03  2.4440E-02 -2.0960E-02 -8.3988E-03 -6.4645E-03 -6.7006E-03
      54-
 mid.  surface     3.9769E-03  2.9541E-03 -1.0304E-02 -2.8606E-04  7.3710E-03 -8.5049E-04
      55-
 mid.  surface     4.4312E-03  7.1706E-03 -1.4977E-02 -2.2014E-03 -3.1056E-03 -1.9082E-03
      56-
 mid.  surface     8.2828E-04  5.1955E-04 -8.2669E-03  3.1708E-04  1.7947E-03 -1.1688E-03
      57-
 mid.  surface     1.5979E-03  1.0741E-03 -9.6665E-03 -9.6172E-04 -1.5078E-03 -1.5512E-03
     124-
 mid.  surface     1.2143E-02  1.1208E-02 -3.0219E-02  4.0203E-03 -2.0768E-03 -8.1649E-03
     125-
 mid.  surface     1.4080E-02  9.3912E-03 -1.1453E-02 -1.8533E-04  1.6005E-03  4.9393E-06
     126-
 mid.  surface     3.5421E-03  3.6053E-03 -1.3352E-02 -1.3266E-03  3.3375E-03 -3.7542E-03
     127-
 mid.  surface     4.6769E-03  2.5864E-03 -8.1427E-03 -4.3340E-04  9.8255E-03 -5.2356E-03
     128-
 mid.  surface     2.7791E-03 -9.8679E-04 -4.2299E-03 -1.9235E-03  4.1820E-03 -5.3116E-03
     129-
 mid.  surface     4.1759E-03  9.8134E-05 -8.3538E-03 -2.0923E-03  1.0272E-02 -9.3440E-03
     148-
 mid.  surface     8.3018E-03  3.5508E-02 -9.5862E-03  1.6323E-03 -6.9087E-03 -4.5571E-03
     149-
 mid.  surface     5.6021E-03  9.9701E-03 -9.2138E-03 -1.0343E-03 -7.5585E-04 -2.2337E-03
     150-
 mid.  surface     2.7425E-03  8.5301E-04 -1.1085E-02 -4.0499E-04  7.2198E-04 -4.3149E-04
     164-
 mid.  surface     9.4664E-03  3.9664E-03 -6.3467E-03 -1.6508E-03  3.6955E-02 -5.5158E-03
     165-
 mid.  surface     5.1387E-03  5.5484E-03 -9.7106E-03 -2.2194E-03  1.1389E-02 -5.3010E-03
     166-
 mid.  surface     1.4931E-03  9.2366E-04 -9.0305E-03 -6.6462E-04  2.9395E-03 -3.5681E-03



 n o d a l  s t r e s s  c a l c u l a t i o n s   f o r   t i m e  s t e p      457   ( at time 4.32969E+00 )

 node (global)
          stress       sig-xx      sig-yy      sig-zz      sig-xy      sig-yz      sig-zx       plastic
                                                                                                 strain 
       1-
 mid.  surface     5.1830E+08  1.9321E+08 -1.3101E+09 -9.1961E+07 -7.5834E+07  8.0055E+08  6.7339E-02
       2-
 mid.  surface    -3.9236E+09 -4.0397E+09 -4.4447E+09  6.6126E+07 -2.7928E+08 -3.0273E+08  2.3296E-01
       8-
 mid.  surface    -3.6195E+09 -3.5578E+09 -4.0528E+09 -1.0223E+07 -3.8717E+08 -6.2355E+08  3.0765E-01
       9-
 mid.  surface     1.4902E+09  1.5386E+09 -2.4088E+08  1.1428E+08  1.0393E+09 -2.3418E+08 -1.7730E-01
      10-
 mid.  surface     2.3788E+09  2.1801E+09  5.7858E+08 -3.0059E+07  7.0359E+08  3.5649E+08 -8.2440E-02
      11-
 mid.  surface    -2.7773E+08 -6.0995E+08 -1.7652E+09  5.9724E+07  6.3750E+08  6.4907E+08  4.2240E-02
      12-
 mid.  surface     1.3015E+09  1.4093E+09 -4.1807E+08 -5.3114E+07  2.9422E+08  5.0972E+08 -3.8828E-02
      17-
 mid.  surface    -5.1748E+09 -5.0897E+09 -5.4174E+09  3.1546E+07  3.4513E+08  7.0290E+07  2.2217E-01
      18-
 mid.  surface    -3.2945E+09 -3.2318E+09 -3.6009E+09 -1.5310E+08 -5.6070E+07 -9.9600E+07  2.6536E-01
      19-
 mid.  surface    -3.2962E+09 -2.9985E+09 -3.5919E+09  3.8503E+07  1.5364E+08 -1.8140E+08  1.1382E-01
      20-
 mid.  surface    -3.2157E+09 -3.0641E+09 -2.3771E+09  2.2765E+07  2.5486E+07 -1.5467E+07  1.0182E-01
      21-
 mid.  surface    -1.3586E+09 -1.1944E+09 -5.7652E+08  4.0449E+07 -1.5866E+08 -3.1077E+08  3.2596E-02
      22-
 mid.  surface     1.6963E+09  1.7285E+09  1.8234E+09 -1.1764E+07 -6.8277E+07  1.8293E+08 -3.7206E-02
      23-
 mid.  surface     3.2190E+08  2.4785E+08  3.8913E+08  8.5352E+07  9.4881E+07  2.8404E+08  1.4275E-02
      24-
 mid.  surface    -5.2152E+08 -4.7952E+08 -8.1590E+08 -2.6653E+07  2.6277E+07  2.1991E+07  1.3590E-02
      25-
 mid.  surface     9.8961E+07  8.3985E+07 -6.1320E+07 -2.2320E+07 -3.8299E+07 -3.0515E+06  2.9769E-02
      26-
 mid.  surface     1.0918E+09  1.0864E+09  8.7107E+08  1.7273E+06 -8.1934E+07 -3.5165E+07  1.8260E-02
      27-
 mid.  surface     3.9507E+08  3.9581E+08  1.4550E+08  3.3946E+07 -5.2975E+07  3.0520E+07  5.1168E-03
      28-
 mid.  surface    -5.0207E+08 -4.8008E+08 -7.1962E+08  9.9975E+06 -1.0075E+08 -9.0820E+07  1.0774E-02
      29-
 mid.  surface    -2.8310E+08 -3.3506E+08 -4.1436E+08 -2.4092E+07 -1.1626E+08 -2.3505E+07  1.1375E-02
      30-
 mid.  surface    -1.2468E+08 -1.0735E+08 -3.1888E+08  1.1537E+07 -1.7335E+08 -8.2592E+07  7.2246E-03
      31-
 mid.  surface    -2.2135E+08 -1.8226E+08 -2.9303E+08  4.2789E+07 -1.3395E+08 -8.0583E+07  1.1679E-02
      52-
 mid.  surface     1.4196E+09  1.3696E+09  1.3682E+09  4.3333E+07  2.3927E+08  1.7643E+08 -2.8989E-02
      53-
 mid.  surface    -1.4675E+09 -1.2978E+09 -6.7529E+08 -1.0277E+08 -3.1753E+08 -1.5056E+08  1.0658E-01
      54-
 mid.  surface     4.4651E+08  4.0850E+08  2.8148E+08  2.4243E+07  1.5360E+08  8.5097E+06 -1.7899E-02
      55-
 mid.  surface     5.3126E+07  1.0913E+08 -8.9870E+06 -6.7750E+07  1.0215E+08 -1.5087E+07  1.9555E-02
      56-
 mid.  surface    -8.6133E+08 -9.3179E+08 -8.7105E+08  1.5708E+07  4.7778E+07 -3.2945E+07  1.7546E-03
      57-
 mid.  surface    -2.9885E+08 -3.5460E+08 -7.2695E+08 -3.8333E+06 -5.3254E+07 -4.5700E+07  1.5640E-02
     124-
 mid.  surface    -2.0853E+09 -2.1866E+09 -1.3023E+09  2.3997E+07 -2.1101E+08 -3.5640E+08  3.5820E-02
     125-
 mid.  surface     8.8382E+08  6.4708E+08  1.0085E+09 -6.6789E+07 -1.0185E+08  2.7666E+08 -5.7429E-02
     126-
 mid.  surface    -6.7591E+07 -9.1273E+07 -1.2689E+08 -3.4935E+07  1.7659E+08 -4.7235E+07  3.4236E-02
     127-
 mid.  surface     7.1444E+08  6.3989E+08  4.7764E+08 -3.6589E+07  2.6599E+08 -1.1182E+08  1.2235E-02
     128-
 mid.  surface    -9.3665E+07 -1.7849E+08 -2.2857E+08 -3.2667E+07  5.9950E+07 -4.2666E+07  1.5065E-02
     129-
 mid.  surface    -2.2863E+08 -3.1233E+08 -6.2538E+08 -3.1911E+07  1.6206E+08 -1.4332E+08  1.5144E-03
     148-
 mid.  surface    -1.3528E+09 -1.3204E+09 -5.2856E+08 -4.6821E+07 -5.5406E+08 -4.3604E+08  1.0379E-01
     149-
 mid.  surface     1.3154E+09  1.4108E+09  1.3141E+09 -6.0072E+07 -1.2038E+08 -8.0864E+07  6.9850E-03
     150-
 mid.  surface     1.9575E+09  2.0441E+09  1.1475E+09  2.4568E+06 -5.0234E+08  2.0293E+07  4.2245E-02
     164-
 mid.  surface     9.8694E+08  9.0603E+08  9.4750E+08  1.0291E+08  3.0809E+08 -1.6849E+08 -7.2359E-02
     165-
 mid.  surface     9.0216E+08  9.1441E+08  9.5935E+08  1.2551E+07  9.0839E+07 -5.4911E+07 -3.7103E-02
     166-
 mid.  surface     9.4423E+08  1.0286E+09  8.6177E+08 -2.9345E+07 -3.7476E+08 -4.3848E+07  2.2887E-02



 n o d a l  s t r a i n  c a l c u l a t i o n s   f o r   t i m e  s t e p      457   ( at time 4.32969E+00 )

 node (global)
          strain       eps-xx      eps-yy      eps-zz      eps-xy      eps-yz      eps-zx       
       1-
 mid.  surface     4.1971E-02  2.5246E-02 -3.6792E-02 -2.5686E-03 -3.6000E-02 -1.0558E-02
       2-
 mid.  surface     3.9195E-02  3.4275E-02 -8.0875E-02  1.2952E-02 -3.8123E-02 -4.7139E-02
       8-
 mid.  surface     2.2170E-02  7.2957E-02 -7.5879E-02  9.3915E-03 -1.5921E-01 -2.9178E-02
       9-
 mid.  surface     2.0510E-02  3.9467E-02 -3.1016E-02  3.2566E-03 -6.5318E-02 -1.3713E-02
      10-
 mid.  surface     1.8136E-02  7.5245E-03 -1.9074E-02 -4.9364E-03 -2.6369E-02  1.4704E-02
      11-
 mid.  surface     3.7933E-02  2.8271E-02 -4.9152E-02  2.3501E-02 -4.7556E-02  9.3526E-03
      12-
 mid.  surface     4.3851E-03  2.0667E-02  9.2408E-04 -8.4210E-03 -2.1521E-02  2.5177E-03
      17-
 mid.  surface     3.4292E-02  6.1279E-02 -1.0324E-01  1.1816E-02 -6.0871E-02 -2.1346E-02
      18-
 mid.  surface     1.0203E-02  5.7067E-02 -6.5789E-02 -1.1407E-02 -1.0661E-01 -2.2209E-02
      19-
 mid.  surface     8.9449E-03  2.7293E-02 -4.5270E-02 -4.9152E-03 -3.3405E-02 -4.5037E-02
      20-
 mid.  surface     2.5342E-02  3.9166E-02 -6.3285E-02  1.8627E-03 -1.4645E-03 -5.1667E-03
      21-
 mid.  surface     9.7158E-03  1.6412E-02 -3.0814E-02 -3.4072E-03 -5.6049E-04 -1.0077E-02
      22-
 mid.  surface     3.2327E-03  1.2741E-02  3.0566E-05 -3.5019E-03  2.3243E-03  9.1408E-03
      23-
 mid.  surface     2.1735E-02  2.1125E-02 -2.7392E-02  1.0875E-02  9.9162E-03  6.4018E-03
      24-
 mid.  surface     7.9882E-03  1.1214E-02 -2.9781E-02 -2.0616E-04 -2.0468E-03 -1.7864E-03
      25-
 mid.  surface     8.5658E-03  6.9923E-03 -2.2245E-02 -1.2176E-03 -2.0493E-03 -1.5896E-03
      26-
 mid.  surface     8.4275E-03  7.3979E-03 -1.4823E-02  9.7783E-04 -5.2225E-03 -5.1603E-03
      27-
 mid.  surface     7.8571E-03  9.3469E-03 -1.9617E-02  2.6766E-03 -4.5098E-04 -3.3187E-03
      28-
 mid.  surface     2.8560E-03  5.0053E-03 -1.5854E-02 -7.0856E-05 -5.0808E-03 -4.9190E-03
      29-
 mid.  surface     5.2089E-03  1.2135E-03 -1.1323E-02 -9.9069E-04 -4.5761E-03 -2.2114E-03
      30-
 mid.  surface     5.4100E-03  5.2162E-03 -1.3259E-02  1.5055E-03 -1.1379E-02 -6.2921E-03
      31-
 mid.  surface     3.4361E-03  5.5081E-03 -1.2235E-02  2.2730E-03 -8.2605E-03 -6.4989E-03
      52-
 mid.  surface     1.4443E-02 -7.5443E-03 -6.9725E-03 -7.1799E-03  3.7396E-02  1.7157E-03
      53-
 mid.  surface     1.1239E-02  3.8133E-02 -3.0731E-02 -1.0069E-02 -9.7904E-03 -9.0026E-03
      54-
 mid.  surface     6.5364E-03  5.0765E-03 -1.5450E-02 -6.1223E-04  7.1004E-03 -1.8303E-03
      55-
 mid.  surface     6.8556E-03  1.1821E-02 -2.2992E-02 -2.9488E-03 -4.6020E-03 -1.9429E-03
      56-
 mid.  surface     1.9803E-03  9.6646E-04 -1.1037E-02  6.0800E-04 -4.5156E-04 -2.2350E-03
      57-
 mid.  surface     2.9213E-03  1.7239E-03 -1.3475E-02 -1.0152E-03 -3.5275E-03 -2.6402E-03
     124-
 mid.  surface     2.4495E-02  2.0822E-02 -4.6828E-02  9.6493E-03 -1.0178E-03 -1.2450E-02
     125-
 mid.  surface     2.4797E-02  1.2685E-02 -1.4640E-02  2.5482E-03  4.0390E-03  3.0766E-03
     126-
 mid.  surface     6.2052E-03  6.7016E-03 -2.0380E-02 -8.9324E-04  5.2138E-03 -5.2850E-03
     127-
 mid.  surface     7.3821E-03  3.5429E-03 -1.2645E-02 -6.4248E-04  1.4110E-02 -7.1759E-03
     128-
 mid.  surface     4.4817E-03 -9.9496E-04 -5.9105E-03 -2.4470E-03  5.0308E-03 -6.2905E-03
     129-
 mid.  surface     6.1207E-03  1.9305E-04 -1.1846E-02 -2.6730E-03  1.2931E-02 -1.0914E-02
     148-
 mid.  surface     1.2673E-02  5.4168E-02 -1.4371E-02  4.1869E-03 -1.0977E-02 -4.6673E-03
     149-
 mid.  surface     7.9624E-03  1.4602E-02 -1.3608E-02 -1.4032E-03 -1.6166E-03 -2.5038E-03
     150-
 mid.  surface     4.3796E-03  1.8520E-03 -1.6003E-02 -3.0911E-04 -1.2433E-04 -5.5978E-04
     164-
 mid.  surface     1.4262E-02  1.6035E-03 -6.2583E-03 -3.4264E-03  4.2787E-02 -6.5112E-03
     165-
 mid.  surface     7.9217E-03  6.3295E-03 -1.2880E-02 -2.7817E-03  1.2014E-02 -6.8612E-03
     166-
 mid.  surface     2.9637E-03  1.6379E-03 -1.3165E-02 -1.0479E-03  7.9998E-04 -4.5058E-03



 n o d a l  s t r e s s  c a l c u l a t i o n s   f o r   t i m e  s t e p      472   ( at time 5.49284E+00 )

 node (global)
          stress       sig-xx      sig-yy      sig-zz      sig-xy      sig-yz      sig-zx       plastic
                                                                                                 strain 
       1-
 mid.  surface     1.3790E+09  1.1644E+09 -5.8673E+08 -3.3794E+08 -1.8503E+08  9.1168E+08  6.0351E-02
       2-
 mid.  surface    -6.3852E+09 -6.6609E+09 -6.6121E+09  4.4989E+07 -3.8694E+08 -3.8769E+08  4.0450E-01
       8-
 mid.  surface    -8.4259E+09 -8.0255E+09 -7.5761E+09  1.1765E+08  1.3432E+07 -3.9500E+08  4.7199E-01
       9-
 mid.  surface     1.4466E+08  8.0237E+08 -5.2374E+08 -8.9658E+07  1.2678E+09  6.1543E+07 -2.3574E-01
      10-
 mid.  surface     5.0010E+09  4.3235E+09  2.5422E+09 -1.6932E+08  6.3162E+08  2.0038E+08 -9.6721E-02
      11-
 mid.  surface     3.3781E+08  4.2575E+07 -1.5169E+09  4.5675E+07  4.2928E+08  4.9055E+08  6.2570E-02
      12-
 mid.  surface     1.5130E+09  1.6712E+09 -2.3040E+08 -2.0668E+08  4.4764E+08  7.6692E+08 -6.1885E-02
      17-
 mid.  surface    -7.0214E+09 -6.6103E+09 -7.0563E+09  6.7330E+07  1.1677E+08 -1.7788E+08  4.2690E-01
      18-
 mid.  surface    -3.3828E+09 -3.6911E+09 -4.1191E+09 -1.3158E+08 -1.8170E+08 -3.8355E+08  4.7263E-01
      19-
 mid.  surface    -5.6925E+09 -5.3506E+09 -5.7153E+09  7.3548E+07  2.7232E+08 -1.7930E+08  2.5471E-01
      20-
 mid.  surface    -4.3743E+09 -4.0186E+09 -3.4954E+09  8.5475E+07 -1.0666E+07 -3.6567E+07  1.4405E-01
      21-
 mid.  surface    -2.5000E+09 -2.3712E+09 -1.5758E+09  8.0961E+07 -8.2259E+07 -2.1788E+08  4.1504E-02
      22-
 mid.  surface     2.1021E+09  2.1160E+09  2.2384E+09 -4.1343E+07  4.2430E+07  3.8702E+08 -1.1327E-01
      23-
 mid.  surface     2.8689E+08  2.8946E+08  3.0521E+08  1.1964E+08  1.3832E+08  3.7437E+08 -4.9255E-02
      24-
 mid.  surface    -1.7192E+08 -9.0520E+07 -5.7607E+08  1.0784E+07  4.5586E+07  5.2047E+07  2.2708E-02
      25-
 mid.  surface     3.8928E+08  3.6061E+08  1.2001E+08 -3.6203E+07  2.5702E+07 -2.4040E+07  3.4610E-02
      26-
 mid.  surface     1.2546E+09  1.2401E+09  1.0660E+09 -1.9303E+07 -2.6921E+07  4.3595E+07  9.8364E-03
      27-
 mid.  surface     6.2404E+08  7.0995E+08  4.7694E+08  5.4706E+07 -9.1227E+07  1.5540E+07 -3.3318E-03
      28-
 mid.  surface    -7.6015E+08 -7.6445E+08 -8.1527E+08  9.0320E+06 -1.5630E+08 -6.7076E+07  1.1592E-02
      29-
 mid.  surface    -4.9475E+08 -4.8829E+08 -5.2995E+08 -1.8602E+07 -2.2936E+08  6.2161E+07  1.3138E-02
      30-
 mid.  surface    -1.1322E+09 -1.0563E+09 -9.7309E+08  8.7504E+06 -3.2253E+08  2.0895E+08  1.4017E-03
      31-
 mid.  surface    -1.0365E+09 -1.0386E+09 -4.6835E+08  2.1620E+07 -1.7882E+08 -5.8651E+07  1.4994E-02
      52-
 mid.  surface     3.0086E+09  2.5851E+09  2.4176E+09 -5.0176E+07  6.8131E+07  1.5211E+08 -1.1794E-01
      53-
 mid.  surface    -1.4651E+09 -1.7374E+09 -1.1448E+09  1.3942E+07 -4.5550E+08 -2.7810E+08  1.3910E-01
      54-
 mid.  surface     1.8715E+09  1.7388E+09  1.2976E+09 -2.5567E+07 -1.1420E+08  3.8009E+06 -2.5433E-02
      55-
 mid.  surface     1.3457E+09  1.2013E+09  8.0357E+08 -1.8546E+07 -1.1842E+08 -1.0368E+08  3.1872E-02
      56-
 mid.  surface    -1.0671E+09 -1.0224E+09 -8.0381E+08  5.2811E+06 -6.1513E+07  5.9414E+07  8.9729E-03
      57-
 mid.  surface    -1.2255E+08 -3.2051E+07 -3.7354E+08 -7.5357E+07 -4.2752E+07 -5.1928E+07  2.4625E-02
     124-
 mid.  surface    -3.1462E+09 -3.3612E+09 -2.3493E+09  1.1922E+08 -3.1001E+08 -3.9464E+08  6.8924E-02
     125-
 mid.  surface     1.8522E+09  1.6134E+09  1.8390E+09 -7.1203E+07 -2.1576E+08  2.7301E+08 -1.1675E-01
     126-
 mid.  surface     5.0173E+08  4.6006E+08  2.7753E+08 -2.4281E+07  2.9102E+08 -2.1698E+08  5.0743E-02
     127-
 mid.  surface     1.4598E+09  1.3385E+09  1.2031E+09 -3.8826E+07  3.1504E+08 -2.2832E+08  1.6478E-02
     128-
 mid.  surface     6.4470E+08  6.0431E+08  2.7322E+08 -5.1171E+06  4.5032E+07 -2.3671E+08  2.5953E-02
     129-
 mid.  surface    -1.0201E+09 -1.0506E+09 -1.2036E+09  2.3454E+07 -2.5309E+07  1.1063E+08 -7.9617E-03
     148-
 mid.  surface    -5.2995E+09 -4.7267E+09 -3.5430E+09  1.5178E+08  1.4710E+08 -2.8051E+08  8.2776E-02
     149-
 mid.  surface    -2.5665E+08 -1.0870E+08  9.9349E+07  1.8953E+07  4.5954E+08 -1.6789E+08 -3.3599E-03
     150-
 mid.  surface     8.7855E+08  6.6470E+08  1.0378E+09 -1.2589E+07 -1.8860E+08 -1.0612E+08  4.5593E-02
     164-
 mid.  surface    -1.0792E+09 -3.4841E+08 -1.7070E+08 -1.0992E+08  7.1652E+08  1.8372E+08 -2.0517E-01
     165-
 mid.  surface     5.5695E+08  7.6702E+08  7.9283E+08 -3.4760E+07  3.0158E+08  9.8932E+07 -6.6788E-02
     166-
 mid.  surface     4.8795E+08  3.1589E+08  6.3578E+08  1.1657E+08 -1.9326E+08  3.2890E+07  2.0042E-02



 n o d a l  s t r a i n  c a l c u l a t i o n s   f o r   t i m e  s t e p      472   ( at time 5.49284E+00 )

 node (global)
          strain       eps-xx      eps-yy      eps-zz      eps-xy      eps-yz      eps-zx       
       1-
 mid.  surface     5.4424E-02  3.4703E-02 -5.0564E-02 -4.9827E-03 -5.2800E-02 -2.8464E-02
       2-
 mid.  surface     5.4806E-02  5.7430E-02 -1.2608E-01  1.8696E-02 -4.9080E-02 -9.2980E-02
       8-
 mid.  surface     3.3247E-02  1.2542E-01 -1.2213E-01  1.7841E-02 -2.1801E-01 -4.3193E-02
       9-
 mid.  surface     3.2603E-02  6.2959E-02 -5.8189E-02  9.2306E-04 -1.0848E-01 -1.9654E-02
      10-
 mid.  surface     3.1049E-02  2.1065E-02 -5.5883E-02 -9.3978E-03 -1.5567E-02  2.1341E-02
      11-
 mid.  surface     5.4242E-02  3.2945E-02 -7.0974E-02  3.3016E-02 -6.6765E-02  1.2356E-02
      12-
 mid.  surface     8.6336E-03  2.8590E-02 -7.4152E-03 -1.3186E-02 -2.6001E-02  1.1470E-03
      17-
 mid.  surface     5.0104E-02  9.2559E-02 -1.5238E-01  1.9171E-02 -8.8895E-02 -4.4209E-02
      18-
 mid.  surface     2.2065E-02  1.0077E-01 -1.2839E-01 -1.1153E-02 -1.4026E-01 -3.3827E-02
      19-
 mid.  surface     1.5916E-02  4.9749E-02 -8.3337E-02 -6.1873E-03 -4.6540E-02 -8.2067E-02
      20-
 mid.  surface     3.8514E-02  5.7674E-02 -8.2840E-02  2.7776E-03 -5.9795E-03 -7.9782E-03
      21-
 mid.  surface     1.8607E-02  2.6621E-02 -4.2286E-02 -4.6079E-03 -4.0359E-03 -1.7517E-02
      22-
 mid.  surface     4.3020E-03  1.2992E-02  6.4532E-03 -6.9079E-03  4.3024E-03  1.5395E-02
      23-
 mid.  surface     2.7010E-02  2.3601E-02 -2.6111E-02  1.2394E-02  1.2582E-02  1.1501E-02
      24-
 mid.  surface     1.1133E-02  1.8522E-02 -4.4787E-02 -1.8122E-04  5.7338E-05 -5.1502E-05
      25-
 mid.  surface     9.8605E-03  1.0724E-02 -2.9518E-02 -9.2321E-04 -1.7063E-03 -1.3157E-03
      26-
 mid.  surface     8.9304E-03  8.9965E-03 -1.9673E-02 -7.7029E-04 -3.9076E-03 -4.0280E-03
      27-
 mid.  surface     9.5552E-03  1.3118E-02 -2.7020E-02  3.1300E-03  1.0213E-03 -3.8057E-03
      28-
 mid.  surface     4.0397E-03  6.4353E-03 -1.8126E-02 -2.9120E-05 -1.1541E-02 -7.2121E-03
      29-
 mid.  surface     5.1523E-03  1.3731E-03 -9.7272E-03 -2.1486E-03 -1.0321E-02 -5.5651E-03
      30-
 mid.  surface     4.5489E-03  5.8896E-03 -1.4761E-02  5.8603E-04 -1.6739E-02 -9.3610E-03
      31-
 mid.  surface     4.1703E-03  7.2081E-03 -1.4444E-02  3.3719E-03 -1.7049E-02 -1.1620E-02
      52-
 mid.  surface     2.0361E-02 -1.8162E-02 -4.1407E-03 -1.8156E-02  5.5173E-02 -6.2865E-04
      53-
 mid.  surface     2.0154E-02  5.8533E-02 -3.8877E-02 -1.1834E-02 -1.5528E-02 -1.7039E-02
      54-
 mid.  surface     8.4135E-03  1.5411E-04 -1.6448E-02 -2.8795E-03  1.2231E-02 -2.1434E-03
      55-
 mid.  surface     9.2660E-03  1.1180E-02 -2.5534E-02 -2.7157E-03 -4.4705E-03 -1.4416E-03
      56-
 mid.  surface     2.6356E-03  3.2644E-05 -1.1304E-02  6.4409E-04 -6.2600E-03 -4.0872E-03
      57-
 mid.  surface     2.5739E-03  1.2040E-03 -1.2850E-02 -1.2954E-03 -7.5805E-03 -3.4378E-03
     124-
 mid.  surface     3.7539E-02  3.3489E-02 -6.1589E-02  1.7384E-02 -1.9052E-04 -1.8286E-02
     125-
 mid.  surface     3.0626E-02  1.5307E-02 -9.1586E-03  5.7931E-03  3.5385E-03  4.8055E-03
     126-
 mid.  surface     1.1806E-02  1.0195E-02 -2.8955E-02  3.1003E-04  9.9797E-03 -6.9012E-03
     127-
 mid.  surface     1.2448E-02  3.8347E-03 -1.7986E-02 -2.3999E-03  2.0025E-02 -8.2081E-03
     128-
 mid.  surface     6.4106E-03 -7.8127E-04 -5.5323E-03 -1.9145E-03  5.3655E-03 -7.0229E-03
     129-
 mid.  surface     7.9404E-03 -7.2281E-05 -1.5479E-02 -2.0864E-03  1.4207E-02 -1.0146E-02
     148-
 mid.  surface     1.8608E-02  8.8468E-02 -5.8884E-03  1.1945E-02 -1.3751E-02 -1.0650E-02
     149-
 mid.  surface     9.6910E-03  2.3108E-02 -2.1538E-02  4.0951E-03 -3.5283E-03 -9.3781E-04
     150-
 mid.  surface     3.4039E-03  3.7830E-03 -1.6965E-02 -1.4965E-04 -5.5618E-03 -3.6286E-04
     164-
 mid.  surface     2.0813E-02 -3.8382E-03  2.3766E-03 -1.3788E-02  2.9881E-02 -6.3797E-03
     165-
 mid.  surface     9.5609E-03  1.3508E-02 -1.8925E-02 -3.7525E-03  9.3895E-03 -3.5542E-03
     166-
 mid.  surface     3.1939E-03  4.8576E-03 -1.3611E-02 -1.8550E-03 -9.6043E-04 -4.4588E-03



 n o d a l  s t r e s s  c a l c u l a t i o n s   f o r   t i m e  s t e p      485   ( at time 6.65600E+00 )

 node (global)
          stress       sig-xx      sig-yy      sig-zz      sig-xy      sig-yz      sig-zx       plastic
                                                                                                 strain 
       1-
 mid.  surface    -3.1942E+08 -9.0687E+08 -1.3351E+09 -2.0326E+08 -2.4472E+08  5.9271E+08  6.1747E-02
       2-
 mid.  surface    -3.2089E+09 -3.3067E+09 -5.3060E+09 -9.9420E+06 -3.4147E+08 -1.9974E+08  5.7025E-01
       8-
 mid.  surface    -7.0629E+09 -7.3343E+09 -7.7047E+09 -1.1977E+08 -4.9015E+08 -2.3740E+08  6.7545E-01
       9-
 mid.  surface     3.1463E+09  2.9385E+09  1.4266E+09 -4.5363E+07  5.4949E+08  4.5897E+08 -2.8367E-01
      10-
 mid.  surface     3.7474E+09  3.8068E+09  2.7414E+09  8.2132E+06  1.0299E+09  4.5712E+08 -1.4492E-01
      11-
 mid.  surface     2.2656E+09  2.2395E+09 -7.7062E+07 -5.3095E+07  8.2250E+07 -4.1179E+07  6.1862E-02
      12-
 mid.  surface     1.0815E+09  1.3200E+09  2.1428E+08  1.3774E+08  2.5418E+08  7.7792E+08 -7.5847E-02
      17-
 mid.  surface    -6.9561E+09 -7.2269E+09 -7.8293E+09 -2.2301E+08  2.0698E+08 -6.3800E+08  6.2738E-01
      18-
 mid.  surface    -6.7114E+09 -6.7372E+09 -6.3317E+09  2.6683E+07  4.4542E+08 -2.4256E+08  6.2793E-01
      19-
 mid.  surface    -4.3333E+09 -4.0393E+09 -5.1364E+09  1.2025E+07  4.0243E+08  1.4293E+08  4.3726E-01
      20-
 mid.  surface    -3.2630E+09 -3.5855E+09 -3.3002E+09 -9.9341E+07 -2.8159E+08 -5.8848E+08  1.9561E-01
      21-
 mid.  surface    -9.7140E+08 -1.0002E+09 -8.6769E+08 -3.6040E+07 -1.0655E+08 -3.6959E+08  9.5009E-02
      22-
 mid.  surface    -3.3521E+08 -1.9951E+08  6.4525E+08  1.0749E+08  2.8608E+07  7.8275E+08 -2.0855E-01
      23-
 mid.  surface     7.4324E+08  8.6577E+08  6.9857E+08  5.9090E+06 -1.8133E+08  1.7671E+08 -1.1630E-01
      24-
 mid.  surface     1.3561E+09  1.1662E+09  4.2652E+08 -1.3651E+07 -1.2760E+08 -3.1104E+08  4.9456E-02
      25-
 mid.  surface     1.9873E+09  1.8557E+09  1.2008E+09 -2.8839E+07  1.1160E+07 -3.1383E+08  6.2886E-02
      26-
 mid.  surface     8.4904E+07  8.8498E+07  2.4252E+08 -1.3745E+07  1.2959E+08  3.2167E+08 -1.1982E-02
      27-
 mid.  surface     7.1934E+08  8.1697E+08  7.2711E+08  5.3588E+06 -1.8561E+08  7.1697E+07 -1.0144E-02
      28-
 mid.  surface    -8.7422E+08 -8.1443E+08 -9.3595E+08 -1.7885E+06 -1.5309E+08 -3.4577E+07  1.3240E-02
      29-
 mid.  surface    -1.8376E+09 -1.7130E+09 -1.9492E+09  1.2779E+08 -3.3960E+08  4.5105E+08 -1.4841E-02
      30-
 mid.  surface    -2.3230E+09 -2.1812E+09 -2.2857E+09  7.7137E+07 -3.7912E+08  4.8269E+08 -2.0195E-02
      31-
 mid.  surface    -1.0994E+09 -1.0116E+09 -3.2116E+08  5.0066E+06 -2.7395E+08  1.4431E+07  2.0209E-02
      52-
 mid.  surface     1.5114E+09  1.7980E+09  1.8604E+09  9.4446E+07  3.6455E+08  4.1623E+08 -2.1866E-01
      53-
 mid.  surface    -3.8928E+09 -3.9353E+09 -2.9422E+09  2.0409E+08  1.0234E+07 -1.1972E+08  1.4750E-01
      54-
 mid.  surface     1.6243E+09  1.7236E+09  1.4123E+09 -3.3392E+07  5.2475E+07  1.4176E+08 -3.2495E-02
      55-
 mid.  surface     9.3350E+08  7.6988E+08  4.4977E+08  2.3744E+07  1.3478E+08 -3.1537E+07  3.0548E-02
      56-
 mid.  surface    -1.1947E+09 -1.0767E+09 -7.2524E+08 -7.1063E+07 -1.3073E+08  1.1342E+08  1.8167E-02
      57-
 mid.  surface    -2.4374E+08 -1.7775E+08 -5.7720E+08 -1.2679E+08 -1.2935E+06 -5.7743E+07  3.5434E-02
     124-
 mid.  surface    -8.1949E+08 -9.4288E+08 -1.0831E+09  2.5971E+07 -4.1138E+08 -6.8741E+08  1.1472E-01
     125-
 mid.  surface    -1.7622E+09 -1.9773E+09 -6.4067E+08 -2.9836E+06 -2.7851E+08  5.3422E+08 -1.9712E-01
     126-
 mid.  surface     3.2113E+09  3.1070E+09  2.7917E+09 -1.4429E+08  2.1962E+08 -8.6003E+08  9.9880E-02
     127-
 mid.  surface     9.2600E+08  9.0593E+08  1.2722E+09 -1.5623E+08  4.0903E+08 -1.4279E+08  1.5509E-02
     128-
 mid.  surface     5.8100E+08  5.5755E+08  2.8563E+08  5.3658E+07 -1.1953E+08 -2.5650E+07  2.5944E-02
     129-
 mid.  surface    -6.7374E+08 -7.1462E+08 -1.0343E+09 -5.6398E+07  9.7018E+07 -7.7349E+07 -3.1214E-03
     148-
 mid.  surface    -5.5492E+09 -5.3150E+09 -4.5989E+09 -3.6425E+07 -2.2140E+08 -2.0416E+08  7.6106E-02
     149-
 mid.  surface    -1.6586E+08 -1.8198E+08 -1.1740E+07  2.9598E+07  4.9694E+08 -1.9655E+08 -3.1709E-02
     150-
 mid.  surface     9.7703E+08  6.5267E+08  9.2748E+08  1.5136E+08 -1.0972E+08 -1.5351E+08  5.4047E-02
     164-
 mid.  surface     1.7822E+08  5.8972E+08  4.3029E+08 -1.7441E+08  3.8196E+08  3.4711E+08 -2.9845E-01
     165-
 mid.  surface     9.3921E+08  1.0811E+09  1.1993E+09 -6.2365E+07  3.1959E+08  1.1992E+08 -9.5187E-02
     166-
 mid.  surface     7.2718E+08  4.9453E+08  1.0154E+09  2.4896E+08 -2.2567E+08 -2.0476E+06  2.9331E-02



 n o d a l  s t r a i n  c a l c u l a t i o n s   f o r   t i m e  s t e p      485   ( at time 6.65600E+00 )

 node (global)
          strain       eps-xx      eps-yy      eps-zz      eps-xy      eps-yz      eps-zx       
       1-
 mid.  surface     6.6882E-02  5.1061E-02 -8.0445E-02 -5.4794E-03 -7.1618E-02 -4.2601E-02
       2-
 mid.  surface     7.8599E-02  7.7749E-02 -1.7436E-01  2.7343E-02 -6.0132E-02 -1.3164E-01
       8-
 mid.  surface     4.3394E-02  1.6140E-01 -1.6785E-01  1.7633E-02 -2.8634E-01 -4.7330E-02
       9-
 mid.  surface     4.9069E-02  6.5563E-02 -7.4327E-02  1.0293E-02 -1.4246E-01 -1.0718E-02
      10-
 mid.  surface     4.6726E-02  6.0882E-02 -1.3109E-01 -1.3412E-03 -2.9138E-02  3.1781E-02
      11-
 mid.  surface     6.3811E-02  3.2991E-02 -8.5179E-02  3.5455E-02 -8.2858E-02  9.6541E-03
      12-
 mid.  surface    -2.1878E-03  3.8206E-02 -1.8149E-02 -1.3791E-02 -4.6383E-02 -1.3638E-03
      17-
 mid.  surface     6.6871E-02  1.1125E-01 -2.0317E-01  1.7151E-02 -1.1823E-01 -8.0097E-02
      18-
 mid.  surface     3.6991E-02  1.9001E-01 -2.1533E-01  7.6166E-03 -1.4740E-01 -2.9103E-02
      19-
 mid.  surface     2.0431E-02  8.3021E-02 -1.3376E-01 -7.9870E-03 -6.0811E-02 -1.1101E-01
      20-
 mid.  surface     5.4888E-02  6.5480E-02 -8.7888E-02  2.3133E-03 -5.7718E-03 -1.0030E-02
      21-
 mid.  surface     3.3159E-02  4.3940E-02 -6.5185E-02 -3.6902E-03 -6.5836E-04 -1.9536E-02
      22-
 mid.  surface     4.0607E-03  2.1053E-02  1.4678E-02 -3.7384E-03  6.5244E-04  1.2293E-02
      23-
 mid.  surface     2.9546E-02  1.6894E-02 -1.0731E-02  1.0181E-02  1.9498E-02  1.8669E-02
      24-
 mid.  surface     1.2790E-02  2.3249E-02 -5.4641E-02 -1.2996E-03  3.2052E-03  2.8140E-03
      25-
 mid.  surface     1.3328E-02  1.7094E-02 -4.3668E-02 -9.8288E-04  1.5598E-03  1.9187E-03
      26-
 mid.  surface     1.1494E-02  1.2382E-02 -2.6564E-02 -1.9294E-03 -5.0717E-03 -8.1870E-03
      27-
 mid.  surface     9.4857E-03  1.4028E-02 -2.9725E-02  1.2066E-03  3.6115E-03 -3.8660E-03
      28-
 mid.  surface     4.2736E-03  8.0877E-03 -2.1328E-02 -6.6151E-04 -1.6892E-02 -8.8939E-03
      29-
 mid.  surface     2.6953E-03  1.6425E-03 -5.7083E-03 -1.2967E-03 -1.5556E-02 -1.0074E-02
      30-
 mid.  surface     2.6415E-03  7.6624E-03 -1.7539E-02 -2.3834E-04 -2.5316E-02 -1.4323E-02
      31-
 mid.  surface     4.3726E-03  8.0781E-03 -1.5074E-02  3.7241E-03 -2.5719E-02 -1.5160E-02
      52-
 mid.  surface     2.5563E-02 -1.8740E-02 -1.3942E-02 -2.7881E-02  5.1323E-02 -1.2274E-02
      53-
 mid.  surface     2.8695E-02  9.3453E-02 -5.4377E-02 -1.0244E-02 -1.2425E-02 -2.4750E-02
      54-
 mid.  surface     1.0892E-02  2.0461E-03 -2.3112E-02 -3.2651E-03  1.3390E-02 -4.8682E-03
      55-
 mid.  surface     1.0916E-02  1.7196E-02 -3.4255E-02 -1.3919E-03 -5.7575E-03 -2.0257E-03
      56-
 mid.  surface     3.1086E-03 -8.7704E-04 -9.5516E-03  8.7957E-04 -1.1200E-02 -4.1507E-03
      57-
 mid.  surface     2.5580E-03  3.1980E-04 -1.2642E-02 -7.7286E-04 -1.2231E-02 -4.4278E-03
     124-
 mid.  surface     5.6452E-02  4.4992E-02 -7.6091E-02  2.6864E-02  2.0677E-03 -2.3688E-02
     125-
 mid.  surface     3.5972E-02  2.3438E-02 -1.7752E-03  1.3064E-02  4.0189E-03 -2.4827E-03
     126-
 mid.  surface     1.0793E-02  1.4704E-02 -3.4280E-02 -4.9570E-03  1.1967E-02 -4.5506E-03
     127-
 mid.  surface     7.9273E-03  6.2627E-03 -1.4745E-02 -8.5798E-03  2.6041E-02 -1.5542E-02
     128-
 mid.  surface     1.0764E-02 -3.0377E-03 -1.9577E-04  2.2630E-04  5.2406E-03 -9.4917E-03
     129-
 mid.  surface     1.3821E-02  5.7287E-04 -2.4326E-02 -3.8703E-03  1.7820E-02 -1.4923E-02
     148-
 mid.  surface     2.1649E-02  1.0999E-01  3.1882E-02  5.9292E-03 -1.0200E-02 -1.6842E-02
     149-
 mid.  surface     6.6387E-03  2.7444E-02 -2.0977E-02  5.8592E-03 -3.8208E-03 -6.2216E-04
     150-
 mid.  surface     3.1566E-03  6.8256E-03 -2.0228E-02  9.5587E-04 -1.1284E-02  6.5534E-04
     164-
 mid.  surface     2.7267E-02 -3.8640E-02  2.9762E-02 -3.3189E-02  1.9733E-02 -1.0113E-02
     165-
 mid.  surface     1.1256E-02  1.1428E-02 -1.9535E-02 -5.3664E-03  6.2181E-03 -3.8784E-03
     166-
 mid.  surface     3.6207E-03  8.9975E-03 -1.4584E-02 -2.2974E-03 -7.3462E-03 -3.7301E-03



 n o d a l  s t r e s s  c a l c u l a t i o n s   f o r   t i m e  s t e p      500   ( at time 7.81915E+00 )

 node (global)
          stress       sig-xx      sig-yy      sig-zz      sig-xy      sig-yz      sig-zx       plastic
                                                                                                 strain 
       1-
 mid.  surface     1.6683E+09  9.9551E+08  8.8146E+08  1.3606E+08 -4.0112E+08  1.0239E+09  1.1837E-01
       2-
 mid.  surface    -2.6412E+09 -3.0340E+09 -4.7565E+09  3.7644E+07 -5.8018E+08 -1.0021E+08  7.5504E-01
       8-
 mid.  surface     7.5992E+07  4.3064E+07 -2.4876E+09  6.1115E+07 -2.9985E+08  1.5814E+08  9.6741E-01
       9-
 mid.  surface     1.5345E+09  1.7045E+09  1.1627E+09 -1.5651E+08  5.2218E+08  2.6534E+08 -3.8747E-01
      10-
 mid.  surface     6.7983E+08  7.9637E+08  1.2068E+09 -9.6745E+06  1.1904E+09  2.9957E+08 -2.6243E-01
      11-
 mid.  surface     1.8695E+09  1.7974E+09  8.8515E+08  1.1990E+08  6.2466E+08  6.2899E+07  1.2192E-01
      12-
 mid.  surface     1.7455E+09  1.7304E+09  1.3361E+09  3.0479E+07  7.7569E+08  9.0267E+08 -9.2311E-02
      17-
 mid.  surface    -1.8735E+09 -2.3799E+09 -4.7314E+09 -6.2170E+07 -1.6354E+08 -7.2315E+08  9.0798E-01
      18-
 mid.  surface    -2.1451E+09 -2.3387E+09 -3.7159E+09  3.9942E+07  2.8111E+08 -4.5991E+07  8.2173E-01
      19-
 mid.  surface    -2.1659E+09 -2.2784E+09 -4.0937E+09 -1.4454E+08  3.7942E+08 -1.5430E+08  5.8725E-01
      20-
 mid.  surface    -5.9611E+08 -8.1348E+08 -1.1566E+09  1.0678E+08 -5.8828E+08 -6.2371E+08  2.8706E-01
      21-
 mid.  surface    -4.6112E+08 -4.4650E+08 -3.8697E+08 -9.2685E+07 -9.1174E+07 -5.3532E+08  1.1144E-01
      22-
 mid.  surface    -1.5353E+09 -1.2280E+09 -4.1366E+08 -9.0207E+06  2.1130E+08  6.4991E+08 -3.0957E-01
      23-
 mid.  surface    -6.5994E+08 -5.2962E+08 -9.3724E+07  4.9394E+07  1.0386E+08  2.1018E+08 -1.6817E-01
      24-
 mid.  surface     2.3770E+09  2.1743E+09  1.5587E+09  1.5321E+08 -2.6975E+08 -3.7900E+08  8.9214E-02
      25-
 mid.  surface     2.6899E+09  2.6130E+09  2.1829E+09  1.6512E+07  4.1037E+07 -5.6593E+08  1.0388E-01
      26-
 mid.  surface     5.8858E+08  6.9282E+08  3.7391E+08 -1.2535E+08  1.5839E+08 -1.2767E+08 -8.5591E-03
      27-
 mid.  surface     4.8648E+08  4.9532E+08  1.1654E+08 -9.6760E+05 -6.8029E+07 -4.2068E+07 -1.0759E-02
      28-
 mid.  surface    -1.4642E+09 -1.2927E+09 -1.3707E+09 -5.5215E+07 -8.5395E+07  1.1447E+08  2.6955E-02
      29-
 mid.  surface    -2.1532E+09 -1.8039E+09 -2.0755E+09  1.7819E+08 -3.0923E+08  2.2390E+08 -2.1042E-02
      30-
 mid.  surface    -2.2090E+09 -1.7975E+09 -2.4708E+09 -5.6247E+07 -2.2780E+08  8.7129E+07 -3.0200E-02
      31-
 mid.  surface    -1.4345E+09 -1.0912E+09 -8.1377E+08 -6.3636E+07 -2.2867E+08  8.5490E+07  1.7711E-02
      52-
 mid.  surface    -3.5045E+09 -3.3440E+09 -1.8578E+09 -1.5701E+08  8.5137E+08  3.9956E+08 -4.1367E-01
      53-
 mid.  surface    -1.5677E+09 -1.6014E+09 -1.3406E+09  1.3004E+08 -3.2866E+08 -1.0282E+08  1.8277E-01
      54-
 mid.  surface    -5.4472E+08 -4.6226E+08 -5.4672E+08 -1.8818E+08  5.2421E+08  1.7637E+08 -8.7694E-02
      55-
 mid.  surface     2.0521E+09  2.0915E+09  1.7109E+09 -5.1392E+06 -3.6647E+08 -1.4363E+08  5.2576E-02
      56-
 mid.  surface    -1.0637E+09 -7.8644E+08 -7.5465E+08  2.9993E+06  7.9007E+07  1.7287E+08  2.4937E-02
      57-
 mid.  surface     1.2451E+08  3.2542E+08  3.5602E+08 -1.1837E+08 -3.1425E+08 -1.8595E+07  5.7788E-02
     124-
 mid.  surface     4.9198E+08  3.1887E+08  2.8149E+08  1.2051E+08 -7.7241E+08 -7.5064E+08  1.6912E-01
     125-
 mid.  surface    -2.1726E+09 -2.0687E+09 -9.3673E+08  1.3881E+08 -4.9765E+08  7.1518E+08 -2.7662E-01
     126-
 mid.  surface     3.9188E+09  3.5135E+09  3.6710E+09 -3.0492E+07 -1.1751E+08 -4.6078E+08  1.4424E-01
     127-
 mid.  surface    -1.0136E+08 -5.7874E+07  1.8309E+08 -2.7410E+08  2.7585E+08  2.1342E+08 -6.6215E-04
     128-
 mid.  surface    -3.6743E+09 -3.9905E+09 -3.1929E+09  3.7350E+08 -4.2728E+08  1.0795E+09 -3.2651E-02
     129-
 mid.  surface    -3.8756E+09 -4.2346E+09 -3.8377E+09 -6.2610E+07  7.0558E+07  7.3450E+08 -5.1077E-02
     148-
 mid.  surface    -1.5114E+09 -1.4201E+09 -1.8756E+09  1.3022E+08 -8.5954E+08 -1.0038E+08  1.6634E-01
     149-
 mid.  surface     2.0094E+09  1.8277E+09  1.7108E+09  1.0778E+08 -5.3115E+08 -1.6342E+08  1.2063E-02
     150-
 mid.  surface     1.6367E+09  1.1455E+09  2.3138E+09  9.1965E+07 -4.5405E+08 -1.2653E+08  5.9424E-02
     164-
 mid.  surface    -3.2074E+09 -3.0356E+09 -2.4552E+09 -1.6507E+08  5.5058E+08  1.1933E+08 -4.4809E-01
     165-
 mid.  surface    -2.9441E+08 -5.9210E+08 -6.2507E+08  7.8088E+07  7.0680E+08  1.2790E+08 -1.3855E-01
     166-
 mid.  surface     8.1406E+08  2.6984E+08  7.1702E+08  3.2008E+08  4.8241E+08  1.3114E+08  2.3571E-02



 n o d a l  s t r a i n  c a l c u l a t i o n s   f o r   t i m e  s t e p      500   ( at time 7.81915E+00 )

 node (global)
          strain       eps-xx      eps-yy      eps-zz      eps-xy      eps-yz      eps-zx       
       1-
 mid.  surface     8.6846E-02  5.7871E-02 -1.1177E-01  7.1599E-03 -1.1801E-01 -7.8531E-02
       2-
 mid.  surface     1.2353E-01  1.1827E-01 -2.6460E-01  5.6642E-02 -8.1470E-02 -1.7176E-01
       8-
 mid.  surface     5.7286E-02  2.2929E-01 -2.3293E-01  2.7657E-02 -3.5979E-01 -4.4231E-02
       9-
 mid.  surface     7.3889E-02  8.6082E-02 -1.1838E-01  1.2288E-02 -1.8677E-01  4.8555E-03
      10-
 mid.  surface     6.0042E-02  9.9907E-02 -2.1973E-01 -2.3469E-03 -6.6427E-02  3.5904E-02
      11-
 mid.  surface     6.8305E-02  5.7909E-02 -1.3381E-01  4.0058E-02 -1.1709E-01  5.6582E-03
      12-
 mid.  surface    -9.4197E-03  4.4985E-02 -3.6859E-02 -2.6825E-02 -6.2975E-02 -1.1146E-02
      17-
 mid.  surface     1.0481E-01  1.4727E-01 -2.7834E-01  3.3449E-02 -1.4176E-01 -1.0148E-01
      18-
 mid.  surface     6.1727E-02  2.8743E-01 -3.1489E-01  3.2072E-02 -1.5577E-01 -2.1976E-02
      19-
 mid.  surface     4.3113E-02  1.0771E-01 -1.8886E-01 -5.9674E-03 -6.6381E-02 -1.4522E-01
      20-
 mid.  surface     7.5180E-02  7.8546E-02 -9.7949E-02  1.1033E-02  2.2534E-03 -9.3668E-03
      21-
 mid.  surface     5.1101E-02  6.3572E-02 -7.6013E-02  1.5854E-03  4.8107E-03 -1.6499E-02
      22-
 mid.  surface     1.2125E-02  2.1463E-02  2.6201E-02 -1.4021E-02 -4.9570E-03  4.5079E-03
      23-
 mid.  surface     4.6663E-02  7.5559E-03 -5.3952E-03  6.1164E-03  1.9450E-02  1.3615E-02
      24-
 mid.  surface     1.4712E-02  2.1398E-02 -6.0152E-02 -2.8516E-03  2.8173E-03  2.2848E-03
      25-
 mid.  surface     1.1740E-02  2.2601E-02 -4.9008E-02  1.7919E-03 -1.1190E-03  1.2786E-03
      26-
 mid.  surface     1.6144E-02  1.6547E-02 -2.9964E-02 -2.5392E-03 -8.5480E-03 -1.1376E-02
      27-
 mid.  surface     1.2394E-02  1.1037E-02 -2.9465E-02 -2.3345E-03  4.6987E-03 -8.4194E-03
      28-
 mid.  surface     4.5423E-03  1.0192E-02 -3.0063E-02 -3.3617E-03 -2.0477E-02 -9.7434E-03
      29-
 mid.  surface    -2.6899E-03  2.6116E-03 -1.5231E-03 -1.2740E-03 -2.2508E-02 -1.3651E-02
      30-
 mid.  surface    -1.4801E-03  7.3705E-03 -1.6766E-02 -3.1972E-03 -3.0972E-02 -1.2216E-02
      31-
 mid.  surface     1.3302E-03  9.4253E-03 -1.5335E-02  2.6954E-03 -2.9612E-02 -1.6181E-02
      52-
 mid.  surface     3.2513E-02 -1.0126E-02 -2.7088E-02 -3.5107E-02  3.8312E-02 -2.7630E-02
      53-
 mid.  surface     3.1526E-02  1.4163E-01 -6.9552E-02 -5.7275E-03  6.4221E-03 -2.9643E-02
      54-
 mid.  surface     1.4242E-02  7.1640E-03 -2.9596E-02 -4.1464E-03  1.0564E-02 -1.2280E-02
      55-
 mid.  surface     1.1376E-02  2.1441E-02 -4.2246E-02 -1.1871E-03 -7.5861E-03 -5.2758E-03
      56-
 mid.  surface     3.0473E-03  1.1050E-03 -1.0157E-02  3.0045E-03 -1.1377E-02 -3.3820E-03
      57-
 mid.  surface     4.1474E-03  1.8248E-03 -1.7064E-02  3.6125E-04 -1.7000E-02 -4.2053E-03
     124-
 mid.  surface     6.7553E-02  6.6794E-02 -8.8855E-02  3.7522E-02  7.7841E-03 -1.1098E-02
     125-
 mid.  surface     3.1647E-02  3.3085E-02  1.2481E-02  1.1555E-02  9.9967E-03 -9.6618E-03
     126-
 mid.  surface     1.1204E-02  1.2383E-02 -2.8205E-02 -9.9921E-03  1.3423E-02 -1.5165E-02
     127-
 mid.  surface     1.4704E-02  8.8165E-03 -1.4827E-02 -1.9544E-02  3.3227E-02 -3.2696E-02
     128-
 mid.  surface     1.9534E-02 -3.5217E-03 -2.8983E-03  7.4670E-03  6.4248E-03 -1.7425E-02
     129-
 mid.  surface     2.7736E-02 -9.4437E-04 -3.3635E-02 -2.9074E-03  2.3701E-02 -2.0667E-02
     148-
 mid.  surface     2.4163E-02  1.3283E-01  8.2859E-02  2.3469E-03 -1.4312E-03 -1.6538E-02
     149-
 mid.  surface     5.5683E-03  1.9337E-02 -1.2421E-02  2.1619E-03 -4.2435E-03 -2.5047E-03
     150-
 mid.  surface     2.7589E-03  8.4189E-03 -2.0482E-02  9.8861E-04 -1.7437E-02  1.3579E-03
     164-
 mid.  surface     3.8519E-02 -7.2272E-02  5.1617E-02 -5.0981E-02 -3.8079E-03 -1.2855E-02
     165-
 mid.  surface     1.4156E-02 -1.3350E-03 -8.7169E-03 -6.6696E-03  4.6954E-03 -5.4891E-03
     166-
 mid.  surface     3.3768E-03  1.2456E-02 -1.5538E-02 -2.5093E-03 -6.7841E-03 -2.8279E-03



 n o d a l  s t r e s s  c a l c u l a t i o n s   f o r   t i m e  s t e p      515   ( at time 8.98230E+00 )

 node (global)
          stress       sig-xx      sig-yy      sig-zz      sig-xy      sig-yz      sig-zx       plastic
                                                                                                 strain 
       1-
 mid.  surface     2.7856E+08 -2.4146E+08  5.7792E+07 -5.5269E+07 -3.1661E+08  1.0748E+09  2.0442E-01
       2-
 mid.  surface    -1.9907E+09 -2.1702E+09 -3.6466E+09 -2.4633E+07 -8.0077E+08  5.8958E+06  9.8312E-01
       8-
 mid.  surface     1.4934E+09  1.0118E+09 -1.3991E+09 -1.0417E+07  5.1736E+07 -5.6315E+07  1.1223E+00
       9-
 mid.  surface     4.4819E+08  9.9083E+08  1.8483E+09 -7.0146E+07  3.4505E+08  5.5126E+07 -4.6637E-01
      10-
 mid.  surface     2.6940E+08  4.6561E+08  1.9902E+09  5.7039E+07  1.0434E+09  2.0069E+08 -3.2539E-01
      11-
 mid.  surface     7.6178E+08  9.9638E+08  1.1664E+09 -2.4877E+07  4.9382E+08  2.0341E+08  9.5710E-02
      12-
 mid.  surface     1.0797E+09  1.4208E+09  1.1850E+09  2.2592E+08  8.3206E+08  9.7979E+08 -1.0108E-01
      17-
 mid.  surface    -4.7852E+08 -1.0248E+09 -3.2356E+09 -1.6783E+08  6.1828E+06 -4.8300E+08  1.1138E+00
      18-
 mid.  surface     7.5242E+08 -6.8452E+07 -1.5016E+09  1.0723E+08  6.1483E+08 -1.9808E+08  9.8332E-01
      19-
 mid.  surface    -1.2801E+09 -1.0304E+09 -3.3032E+09  7.2353E+07  4.0409E+08  1.3402E+08  7.8328E-01
      20-
 mid.  surface    -1.6759E+08 -3.8928E+08 -8.7359E+08 -5.7758E+07 -3.4523E+08 -3.7192E+08  3.2868E-01
      21-
 mid.  surface     3.6081E+08  3.7956E+08  2.4426E+08 -2.6023E+07 -8.4478E+07 -2.6505E+08  1.3671E-01
      22-
 mid.  surface    -2.4856E+08 -1.6543E+08  5.7401E+08  8.9767E+07  1.2534E+08  2.7527E+08 -3.8098E-01
      23-
 mid.  surface    -8.1009E+08 -5.8177E+08 -7.3983E+07  2.3955E+07 -7.2526E+07  4.5257E+07 -2.7556E-01
      24-
 mid.  surface     8.2264E+08  8.7708E+08  3.8804E+08  2.3963E+07  6.2144E+07 -7.6141E+07  1.0247E-01
      25-
 mid.  surface     1.2560E+09  1.3358E+09  1.2266E+09  2.2011E+07  1.7155E+08 -7.2168E+07  1.3364E-01
      26-
 mid.  surface     1.9329E+08  3.9957E+08  7.9470E+07  1.0656E+07  1.7517E+08 -2.0325E+08  1.3225E-03
      27-
 mid.  surface    -3.6044E+08 -2.3138E+08 -9.3092E+08  4.1066E+07 -1.0023E+08 -8.8289E+05 -1.5471E-02
      28-
 mid.  surface    -1.4327E+09 -1.0757E+09 -1.1353E+09  1.0958E+08 -1.9063E+06  1.0730E+07  3.5829E-02
      29-
 mid.  surface    -1.0398E+09 -6.9231E+08 -5.8131E+08  5.9537E+07 -1.9612E+08 -4.3648E+07 -8.2135E-03
      30-
 mid.  surface    -6.5447E+08  4.8078E+07 -3.2233E+08 -8.8659E+06 -1.8961E+08 -4.3396E+08 -2.9294E-02
      31-
 mid.  surface    -1.3137E+09 -8.6709E+08 -9.6546E+08  1.0569E+08 -3.2584E+08  1.1777E+08  2.5571E-02
      52-
 mid.  surface    -1.8561E+09 -1.5703E+09 -5.6348E+08  6.5046E+07  2.6631E+08  1.0887E+08 -5.1450E-01
      53-
 mid.  surface    -3.6022E+08 -6.4744E+08 -5.3890E+08  7.5389E+07 -9.7587E+07 -1.2123E+08  2.1257E-01
      54-
 mid.  surface     1.6213E+08  1.3168E+07 -3.2238E+08 -6.7450E+07  2.3509E+07 -1.0367E+08 -9.4786E-02
      55-
 mid.  surface     1.1935E+09  1.2447E+09  1.1393E+09 -1.4576E+08 -2.6808E+08 -7.5927E+07  7.7731E-02
      56-
 mid.  surface    -7.4946E+08 -6.8675E+08 -3.0855E+08 -1.5042E+08  1.0383E+08  2.8306E+07  2.0176E-02
      57-
 mid.  surface     1.7639E+08  6.0843E+08  9.7006E+08 -2.6096E+08 -2.8547E+08  7.6912E+06  7.9136E-02
     124-
 mid.  surface    -2.8446E+08 -2.7955E+08 -1.7122E+08 -9.1282E+07 -5.9866E+08 -2.9909E+08  1.8375E-01
     125-
 mid.  surface    -1.3734E+09 -1.5482E+09 -5.2345E+08  3.2701E+06 -5.0473E+08  1.2851E+08 -3.4813E-01
     126-
 mid.  surface     9.1771E+08  3.5990E+08  4.6048E+08 -1.2742E+08 -1.4382E+07  3.8861E+08  1.5343E-01
     127-
 mid.  surface    -3.2642E+08 -7.6609E+08 -7.3015E+08 -9.5877E+07  1.0639E+08 -1.6506E+08 -8.1337E-03
     128-
 mid.  surface    -1.5483E+09 -2.3112E+09 -1.7580E+09 -1.5397E+08 -6.4672E+08  5.8283E+08 -1.7082E-02
     129-
 mid.  surface    -5.7993E+08 -1.1668E+09 -7.1714E+08 -2.1322E+08 -1.8818E+08 -3.6713E+07 -5.7837E-02
     148-
 mid.  surface    -9.5349E+08 -9.1262E+08 -1.6043E+09 -1.2574E+07 -3.2596E+08  6.3031E+07  2.3544E-01
     149-
 mid.  surface     6.0266E+08  4.6736E+08  5.2747E+08  1.3531E+08 -3.1212E+08  3.2488E+07  4.3263E-02
     150-
 mid.  surface     1.6409E+09  1.3774E+09  2.0585E+09  2.9739E+08 -5.0384E+08  8.3623E+07  7.6428E-02
     164-
 mid.  surface    -2.4743E+09 -1.9842E+09 -1.3582E+09 -1.8524E+07  4.9130E+07  9.9276E+07 -5.2008E-01
     165-
 mid.  surface    -3.5755E+08 -6.8140E+08 -1.0215E+09  2.0550E+08  2.6336E+08 -4.4071E+06 -1.4030E-01
     166-
 mid.  surface     1.2944E+09  5.2689E+08  7.0847E+08  4.4822E+08  5.3538E+08 -5.5209E+07  1.3774E-02



 n o d a l  s t r a i n  c a l c u l a t i o n s   f o r   t i m e  s t e p      515   ( at time 8.98230E+00 )

 node (global)
          strain       eps-xx      eps-yy      eps-zz      eps-xy      eps-yz      eps-zx       
       1-
 mid.  surface     8.2152E-02  8.0250E-02 -1.5114E-01  2.8019E-03 -1.6447E-01 -1.0994E-01
       2-
 mid.  surface     1.3979E-01  1.5311E-01 -3.3971E-01  6.4591E-02 -9.9168E-02 -2.1383E-01
       8-
 mid.  surface     7.6271E-02  3.5974E-01 -2.9382E-01  2.3612E-02 -4.1251E-01 -4.6520E-02
       9-
 mid.  surface     9.3864E-02  9.5695E-02 -2.0239E-01 -1.7748E-02 -2.7656E-01  3.2053E-02
      10-
 mid.  surface     7.2006E-02  1.2898E-01 -3.2530E-01 -1.4372E-03 -1.1297E-01  4.2046E-02
      11-
 mid.  surface     6.5670E-02  6.7728E-02 -1.7405E-01  3.1936E-02 -1.6845E-01 -5.7925E-03
      12-
 mid.  surface    -1.3080E-03  7.3137E-02 -8.1978E-02 -1.6635E-02 -9.0650E-02 -1.8400E-02
      17-
 mid.  surface     1.3693E-01  2.1028E-01 -3.6685E-01  4.7493E-02 -1.6260E-01 -1.2341E-01
      18-
 mid.  surface     9.7436E-02  4.1675E-01 -4.2735E-01  7.9388E-02 -1.4842E-01 -2.7626E-02
      19-
 mid.  surface     6.8627E-02  1.7006E-01 -2.8815E-01  1.7694E-02 -8.2756E-02 -1.7884E-01
      20-
 mid.  surface     8.7109E-02  1.0203E-01 -1.0170E-01  1.3031E-02  3.7310E-02  2.7926E-04
      21-
 mid.  surface     6.2010E-02  8.6223E-02 -7.8583E-02  4.1652E-03  1.1784E-02 -1.2770E-02
      22-
 mid.  surface     2.0020E-02  1.9843E-02  3.8984E-02 -2.7042E-02 -2.5913E-03  6.2934E-03
      23-
 mid.  surface     5.2217E-02 -1.1983E-02  1.2594E-02 -8.5280E-03  1.7266E-02 -2.0477E-03
      24-
 mid.  surface     1.7576E-02  1.7439E-02 -5.9676E-02 -3.3969E-04 -2.3063E-03  8.2266E-05
      25-
 mid.  surface     4.0589E-03  2.0373E-02 -4.0219E-02 -1.9716E-03  3.5917E-03 -4.7174E-03
      26-
 mid.  surface     1.1357E-02  1.6783E-02 -2.3493E-02 -8.7560E-03  1.0716E-03 -1.5778E-02
      27-
 mid.  surface     1.8655E-02  1.4253E-02 -3.7232E-02 -8.3655E-04 -9.9707E-03 -1.8619E-02
      28-
 mid.  surface     6.4810E-03  1.3392E-02 -3.1670E-02  3.7323E-04 -2.6367E-02 -1.4250E-02
      29-
 mid.  surface     1.4191E-02  9.6499E-05 -1.7657E-02 -5.7891E-03 -3.1961E-02 -2.1538E-02
      30-
 mid.  surface     7.3595E-03  5.5411E-03 -2.8532E-02 -1.9858E-03 -3.8467E-02 -1.3086E-02
      31-
 mid.  surface     4.9134E-03  1.6345E-02 -2.1685E-02  6.3364E-03 -3.8325E-02 -1.9661E-02
      52-
 mid.  surface     4.0334E-02 -7.2978E-03 -4.6033E-02 -3.3167E-02  2.6177E-02 -4.0432E-02
      53-
 mid.  surface     3.8095E-02  1.9902E-01 -7.6486E-02  7.4379E-03  5.2056E-02 -3.0525E-02
      54-
[...]
      31-
 mid.  surface    -3.0358E-01  2.2960E-01 -7.1807E-03  1.0203E-01 -4.2435E-01  5.3982E-01
      52-
 mid.  surface     1.2030E-01  3.5402E-01 -5.6345E-01  7.8713E-02  1.8519E-01  2.5374E-01
      53-
 mid.  surface     7.7915E-02  2.2578E-01 -2.9595E-01  3.6589E-02  2.4754E-01  2.1954E-01
      54-
 mid.  surface     9.9555E-02  7.5195E-02 -1.7466E-01  1.2782E-01 -1.3614E-01 -1.8728E-01
      55-
 mid.  surface    -1.5750E-02  1.1562E-02  1.7707E-01 -4.1921E-02  3.0860E-01 -2.7786E-02
      56-
 mid.  surface     2.0459E-02  1.1535E-01 -9.0922E-02 -7.2658E-03 -2.4269E-01 -1.1262E-01
      57-
 mid.  surface     1.0498E-02  1.9434E-01 -2.0756E-01 -2.0258E-02 -2.7235E-01 -4.0234E-02
     124-
 mid.  surface    -2.2141E-01  2.3940E-01  6.5899E-02 -3.0423E-02  7.4129E-02 -7.9935E-02
     125-
 mid.  surface    -1.9127E-01  1.9994E-01  3.4754E-01 -5.2469E-02 -5.4246E-02 -9.8822E-02
     126-
 mid.  surface    -2.4768E-01  4.5808E-02  3.3313E-01 -3.2217E-03  1.7753E-01 -7.1401E-02
     127-
 mid.  surface    -2.2761E-01  1.7321E-01  3.4067E-01 -3.7659E-02  1.3532E-01 -3.6843E-01
     128-
 mid.  surface     0.0000E+00  0.0000E+00  0.0000E+00  0.0000E+00  0.0000E+00  0.0000E+00
     129-
 mid.  surface     0.0000E+00  0.0000E+00  0.0000E+00  0.0000E+00  0.0000E+00  0.0000E+00
     148-
 mid.  surface     1.0542E-01  1.4701E-01 -2.5831E-01 -2.8312E-01  2.4468E-01  1.1890E-01
     149-
 mid.  surface    -1.5588E-01 -3.7894E-01  8.3840E-01 -2.9150E-01  1.8518E-02 -1.8612E-01
     150-
 mid.  surface     1.2478E-02  1.8553E-01 -1.1291E-01 -1.0811E-02 -2.4188E-01 -1.5268E-02
     164-
 mid.  surface     4.3284E-01  3.8678E-01 -9.7474E-01  1.2626E-01 -2.5176E-01 -7.2049E-02
     165-
 mid.  surface     1.2780E-01 -2.0254E-01  5.8125E-02 -2.7714E-02 -8.2396E-01 -4.2521E-01
     166-
 mid.  surface     5.1851E-02  3.6471E-02 -4.1864E-02 -3.2397E-03 -3.0274E-01 -1.1589E-01



 n o d a l  s t r e s s  c a l c u l a t i o n s   f o r   t i m e  s t e p      906   ( at time 9.76797E+01 )

 node (global)
          stress       sig-xx      sig-yy      sig-zz      sig-xy      sig-yz      sig-zx       plastic
                                                                                                 strain 
       1-
 mid.  surface     0.0000E+00  0.0000E+00  0.0000E+00  0.0000E+00  0.0000E+00  0.0000E+00  0.0000E+00
       2-
 mid.  surface     0.0000E+00  0.0000E+00  0.0000E+00  0.0000E+00  0.0000E+00  0.0000E+00  0.0000E+00
       8-
 mid.  surface     0.0000E+00  0.0000E+00  0.0000E+00  0.0000E+00  0.0000E+00  0.0000E+00  0.0000E+00
       9-
 mid.  surface     0.0000E+00  0.0000E+00  0.0000E+00  0.0000E+00  0.0000E+00  0.0000E+00  0.0000E+00
      10-
 mid.  surface     0.0000E+00  0.0000E+00  0.0000E+00  0.0000E+00  0.0000E+00  0.0000E+00  0.0000E+00
      11-
 mid.  surface     0.0000E+00  0.0000E+00  0.0000E+00  0.0000E+00  0.0000E+00  0.0000E+00  0.0000E+00
      12-
 mid.  surface     0.0000E+00  0.0000E+00  0.0000E+00  0.0000E+00  0.0000E+00  0.0000E+00  0.0000E+00
      17-
 mid.  surface     0.0000E+00  0.0000E+00  0.0000E+00  0.0000E+00  0.0000E+00  0.0000E+00  0.0000E+00
      18-
 mid.  surface     0.0000E+00  0.0000E+00  0.0000E+00  0.0000E+00  0.0000E+00  0.0000E+00  0.0000E+00
      19-
 mid.  surface     0.0000E+00  0.0000E+00  0.0000E+00  0.0000E+00  0.0000E+00  0.0000E+00  0.0000E+00
      20-
 mid.  surface     0.0000E+00  0.0000E+00  0.0000E+00  0.0000E+00  0.0000E+00  0.0000E+00  0.0000E+00
      21-
 mid.  surface     0.0000E+00  0.0000E+00  0.0000E+00  0.0000E+00  0.0000E+00  0.0000E+00 -1.5341E-03
      22-
 mid.  surface     0.0000E+00  0.0000E+00  0.0000E+00  0.0000E+00  0.0000E+00  0.0000E+00  3.6524E-01
      23-
 mid.  surface     0.0000E+00  0.0000E+00  0.0000E+00  0.0000E+00  0.0000E+00  0.0000E+00  0.0000E+00
      24-
 mid.  surface    -7.8316E+07 -1.1816E+08  7.4428E+06  7.3262E+07 -2.6946E+07  2.3467E+07  4.7870E-02
      25-
 mid.  surface    -4.8944E+07 -3.1707E+07 -9.8075E+06  1.6868E+05 -7.0683E+05 -9.9498E+06  1.3509E-02
      26-
 mid.  surface    -4.8944E+07 -3.1707E+07 -9.8075E+06  1.6868E+05 -7.0683E+05 -9.9498E+06  2.5546E-01
      27-
 mid.  surface    -9.0411E+07 -1.7164E+08 -8.2159E+07  6.9811E+07 -9.7207E+07  7.7544E+07  2.6537E-01
      28-
 mid.  surface    -1.3494E+08 -1.4042E+08  1.7556E+08  1.5271E+08  7.2101E+07 -5.0038E+07  1.0955E-01
      29-
 mid.  surface    -9.7888E+07 -6.3415E+07 -1.9615E+07  3.3737E+05 -1.4137E+06 -1.9900E+07  1.0911E-01
      30-
 mid.  surface    -9.7888E+07 -6.3415E+07 -1.9615E+07  3.3737E+05 -1.4137E+06 -1.9900E+07  5.6080E-01
      31-
 mid.  surface    -1.5663E+08 -2.3632E+08  1.4886E+07  1.4652E+08 -5.3892E+07  4.6934E+07  4.9583E-01
      52-
 mid.  surface     1.1700E+06  1.1700E+06  1.1700E+06  0.0000E+00  0.0000E+00  0.0000E+00  2.0084E-01
      53-
 mid.  surface    -1.2674E+06 -1.2674E+06 -1.2674E+06  0.0000E+00  0.0000E+00  0.0000E+00  2.0905E-01
      54-
 mid.  surface     1.7005E+08  1.6959E+08 -2.4411E+07 -8.0931E+07  7.2672E+07 -2.7131E+07 -3.7530E-02
      55-
 mid.  surface     6.8192E+07  1.1178E+08 -3.5794E+07 -7.0150E+07 -3.7159E+07  7.3556E+06 -2.3218E-02
      56-
 mid.  surface     4.4613E+08  4.4943E+08  6.8484E+07 -1.6935E+08  2.4978E+08 -1.0530E+08 -2.5104E-01
      57-
 mid.  surface     2.7042E+08  3.7471E+08  1.0824E+08 -1.7072E+08  3.4996E+08 -1.9262E+08 -3.0841E-01
     124-
 mid.  surface     0.0000E+00  0.0000E+00  0.0000E+00  0.0000E+00  0.0000E+00  0.0000E+00  4.0933E-02
     125-
 mid.  surface     0.0000E+00  0.0000E+00  0.0000E+00  0.0000E+00  0.0000E+00  0.0000E+00  6.3717E-01
     126-
 mid.  surface     0.0000E+00  0.0000E+00  0.0000E+00  0.0000E+00  0.0000E+00  0.0000E+00 -4.3747E-01
     127-
 mid.  surface     0.0000E+00  0.0000E+00  0.0000E+00  0.0000E+00  0.0000E+00  0.0000E+00  1.4005E-01
     128-
 mid.  surface     0.0000E+00  0.0000E+00  0.0000E+00  0.0000E+00  0.0000E+00  0.0000E+00  0.0000E+00
     129-
 mid.  surface     0.0000E+00  0.0000E+00  0.0000E+00  0.0000E+00  0.0000E+00  0.0000E+00  0.0000E+00
     148-
 mid.  surface    -6.9056E+06 -6.9056E+06 -6.9056E+06  0.0000E+00  0.0000E+00  0.0000E+00  2.7567E-01
     149-
 mid.  surface    -2.3792E+08 -1.4172E+08 -3.1030E+07  2.5737E+07 -3.5611E+08  1.3493E+08 -2.4689E-02
     150-
 mid.  surface    -2.3135E+08 -1.5668E+08 -1.3419E+07 -1.5454E+07 -2.0340E+08  9.2005E+07 -7.3029E-02
     164-
 mid.  surface    -2.5348E+06 -2.5348E+06 -2.5348E+06  0.0000E+00  0.0000E+00  0.0000E+00  1.8314E-01
     165-
 mid.  surface     3.3209E+07  6.7411E+07  9.1074E+07  1.8847E+07 -1.4660E+08  5.1455E+07 -4.6684E-02
     166-
 mid.  surface     1.5922E+08  9.6328E+07  5.6523E+07 -3.6952E+07  2.7431E+08 -9.5447E+07 -2.1972E-01



 n o d a l  s t r a i n  c a l c u l a t i o n s   f o r   t i m e  s t e p      906   ( at time 9.76797E+01 )

 node (global)
          strain       eps-xx      eps-yy      eps-zz      eps-xy      eps-yz      eps-zx       
       1-
 mid.  surface     0.0000E+00  0.0000E+00  0.0000E+00  0.0000E+00  0.0000E+00  0.0000E+00
       2-
 mid.  surface     0.0000E+00  0.0000E+00  0.0000E+00  0.0000E+00  0.0000E+00  0.0000E+00
       8-
 mid.  surface     0.0000E+00  0.0000E+00  0.0000E+00  0.0000E+00  0.0000E+00  0.0000E+00
       9-
 mid.  surface     0.0000E+00  0.0000E+00  0.0000E+00  0.0000E+00  0.0000E+00  0.0000E+00
      10-
 mid.  surface     0.0000E+00  0.0000E+00  0.0000E+00  0.0000E+00  0.0000E+00  0.0000E+00
      11-
 mid.  surface     0.0000E+00  0.0000E+00  0.0000E+00  0.0000E+00  0.0000E+00  0.0000E+00
      12-
 mid.  surface     0.0000E+00  0.0000E+00  0.0000E+00  0.0000E+00  0.0000E+00  0.0000E+00
      17-
 mid.  surface     0.0000E+00  0.0000E+00  0.0000E+00  0.0000E+00  0.0000E+00  0.0000E+00
      18-
 mid.  surface     0.0000E+00  0.0000E+00  0.0000E+00  0.0000E+00  0.0000E+00  0.0000E+00
      19-
 mid.  surface     0.0000E+00  0.0000E+00  0.0000E+00  0.0000E+00  0.0000E+00  0.0000E+00
      20-
 mid.  surface     0.0000E+00  0.0000E+00  0.0000E+00  0.0000E+00  0.0000E+00  0.0000E+00
      21-
 mid.  surface     2.6781E-01  1.2211E-01 -6.0109E-01  4.0763E-02 -1.8505E-03  2.2601E-02
      22-
 mid.  surface     2.1682E-01  9.9607E-02 -3.6608E-01 -6.2106E-03 -2.6256E-02 -1.3357E-01
      23-
 mid.  surface     0.0000E+00  0.0000E+00  0.0000E+00  0.0000E+00  0.0000E+00  0.0000E+00
      24-
 mid.  surface     1.0117E-01  3.9349E-02 -6.2219E-02 -4.8441E-02  9.5004E-02  6.9108E-02
      25-
 mid.  surface     5.2048E-01  5.5378E-02 -7.5444E-01  5.7425E-02 -1.4105E-01  3.4924E-02
      26-
 mid.  surface     5.3753E-01  1.2690E-01 -5.9057E-01  5.6367E-02 -1.5729E-01  5.6003E-03
      27-
 mid.  surface     1.1248E-01 -9.4752E-03 -3.0946E-02 -8.7419E-04 -7.9494E-02  7.5921E-02
      28-
 mid.  surface    -2.7413E-01  1.3895E-01  4.7933E-02  9.2324E-02 -2.7438E-01  4.8933E-01
      29-
 mid.  surface     7.9219E-02  1.7861E-02 -1.4001E-01 -4.3650E-02  2.9000E-02 -1.3712E-01
      30-
 mid.  surface     1.3074E-01  7.3603E-02 -3.0220E-01  1.0475E-02 -2.1306E-01 -2.5243E-01
      31-
 mid.  surface    -3.0298E-01  2.3093E-01 -8.5440E-03  1.0042E-01 -4.2248E-01  5.3946E-01
      52-
 mid.  surface     1.2011E-01  3.5411E-01 -5.6308E-01  7.8609E-02  1.8503E-01  2.5371E-01
      53-
 mid.  surface     7.7905E-02  2.2574E-01 -2.9575E-01  3.6468E-02  2.4771E-01  2.1956E-01
      54-
 mid.  surface     9.9501E-02  7.4992E-02 -1.7450E-01  1.2781E-01 -1.3579E-01 -1.8711E-01
      55-
 mid.  surface    -1.5777E-02  1.1154E-02  1.7752E-01 -4.1774E-02  3.0905E-01 -2.7567E-02
      56-
 mid.  surface     2.0319E-02  1.1594E-01 -9.1498E-02 -7.3385E-03 -2.4291E-01 -1.1303E-01
      57-
 mid.  surface     1.0096E-02  1.9462E-01 -2.0724E-01 -2.0232E-02 -2.7271E-01 -4.0329E-02
     124-
 mid.  surface    -2.2133E-01  2.3957E-01  6.4948E-02 -3.0527E-02  7.3556E-02 -7.9686E-02
     125-
 mid.  surface    -1.9139E-01  2.0000E-01  3.4707E-01 -5.2900E-02 -5.5588E-02 -9.8809E-02
     126-
 mid.  surface    -2.4753E-01  4.4732E-02  3.3441E-01 -2.7334E-03  1.7642E-01 -7.1597E-02
     127-
 mid.  surface    -2.2750E-01  1.7219E-01  3.4209E-01 -3.7363E-02  1.3337E-01 -3.6901E-01
     128-
 mid.  surface     0.0000E+00  0.0000E+00  0.0000E+00  0.0000E+00  0.0000E+00  0.0000E+00
     129-
 mid.  surface     0.0000E+00  0.0000E+00  0.0000E+00  0.0000E+00  0.0000E+00  0.0000E+00
     148-
 mid.  surface     1.0569E-01  1.4722E-01 -2.5898E-01 -2.8305E-01  2.4386E-01  1.1903E-01
     149-
 mid.  surface    -1.5547E-01 -3.7927E-01  8.3762E-01 -2.9114E-01  1.8607E-02 -1.8622E-01
     150-
 mid.  surface     1.2511E-02  1.8578E-01 -1.1296E-01 -1.1016E-02 -2.4158E-01 -1.5276E-02
     164-
 mid.  surface     4.3271E-01  3.8690E-01 -9.7478E-01  1.2625E-01 -2.5218E-01 -7.1989E-02
     165-
 mid.  surface     1.2776E-01 -2.0273E-01  5.7942E-02 -2.7573E-02 -8.2468E-01 -4.2484E-01
     166-
 mid.  surface     5.1706E-02  3.6587E-02 -4.1613E-02 -3.1962E-03 -3.0310E-01 -1.1573E-01



 n o d a l  s t r e s s  c a l c u l a t i o n s   f o r   t i m e  s t e p      912   ( at time 1.00000E+02 )

 node (global)
          stress       sig-xx      sig-yy      sig-zz      sig-xy      sig-yz      sig-zx       plastic
                                                                                                 strain 
       1-
 mid.  surface     0.0000E+00  0.0000E+00  0.0000E+00  0.0000E+00  0.0000E+00  0.0000E+00  0.0000E+00
       2-
 mid.  surface     0.0000E+00  0.0000E+00  0.0000E+00  0.0000E+00  0.0000E+00  0.0000E+00  0.0000E+00
       8-
 mid.  surface     0.0000E+00  0.0000E+00  0.0000E+00  0.0000E+00  0.0000E+00  0.0000E+00  0.0000E+00
       9-
 mid.  surface     0.0000E+00  0.0000E+00  0.0000E+00  0.0000E+00  0.0000E+00  0.0000E+00  0.0000E+00
      10-
 mid.  surface     0.0000E+00  0.0000E+00  0.0000E+00  0.0000E+00  0.0000E+00  0.0000E+00  0.0000E+00
      11-
 mid.  surface     0.0000E+00  0.0000E+00  0.0000E+00  0.0000E+00  0.0000E+00  0.0000E+00  0.0000E+00
      12-
 mid.  surface     0.0000E+00  0.0000E+00  0.0000E+00  0.0000E+00  0.0000E+00  0.0000E+00  0.0000E+00
      17-
 mid.  surface     0.0000E+00  0.0000E+00  0.0000E+00  0.0000E+00  0.0000E+00  0.0000E+00  0.0000E+00
      18-
 mid.  surface     0.0000E+00  0.0000E+00  0.0000E+00  0.0000E+00  0.0000E+00  0.0000E+00  0.0000E+00
      19-
 mid.  surface     0.0000E+00  0.0000E+00  0.0000E+00  0.0000E+00  0.0000E+00  0.0000E+00  0.0000E+00
      20-
 mid.  surface     0.0000E+00  0.0000E+00  0.0000E+00  0.0000E+00  0.0000E+00  0.0000E+00  0.0000E+00
      21-
 mid.  surface     0.0000E+00  0.0000E+00  0.0000E+00  0.0000E+00  0.0000E+00  0.0000E+00 -1.5341E-03
      22-
 mid.  surface     0.0000E+00  0.0000E+00  0.0000E+00  0.0000E+00  0.0000E+00  0.0000E+00  3.6524E-01
      23-
 mid.  surface     0.0000E+00  0.0000E+00  0.0000E+00  0.0000E+00  0.0000E+00  0.0000E+00  0.0000E+00
      24-
 mid.  surface    -8.5909E+07 -1.0553E+08  3.8945E+07  7.1992E+07 -2.2363E+07  1.4370E+07  4.7870E-02
      25-
 mid.  surface    -1.8305E+07 -1.8305E+07 -1.8305E+07  0.0000E+00  0.0000E+00  0.0000E+00  1.3509E-02
      26-
 mid.  surface    -1.8305E+07 -1.8305E+07 -1.8305E+07  0.0000E+00  0.0000E+00  0.0000E+00  2.5546E-01
      27-
 mid.  surface    -1.0319E+08 -1.5814E+08 -4.8840E+07  6.7488E+07 -9.3506E+07  6.1212E+07  2.6537E-01
      28-
 mid.  surface    -1.4084E+08 -1.1673E+08  2.3531E+08  1.5206E+08  8.2849E+07 -5.5257E+07  1.0955E-01
      29-
 mid.  surface    -3.6610E+07 -3.6610E+07 -3.6610E+07  0.0000E+00  0.0000E+00  0.0000E+00  1.0911E-01
      30-
 mid.  surface    -3.6610E+07 -3.6610E+07 -3.6610E+07  0.0000E+00  0.0000E+00  0.0000E+00  5.6080E-01
      31-
 mid.  surface    -1.7182E+08 -2.1107E+08  7.7890E+07  1.4398E+08 -4.4726E+07  2.8740E+07  4.9583E-01
      52-
 mid.  surface     7.5575E+05  7.5575E+05  7.5575E+05  0.0000E+00  0.0000E+00  0.0000E+00  2.0084E-01
      53-
 mid.  surface    -8.1863E+05 -8.1863E+05 -8.1863E+05  0.0000E+00  0.0000E+00  0.0000E+00  2.0905E-01
      54-
 mid.  surface     1.3506E+08  1.3196E+08 -5.2889E+07 -7.7920E+07  5.9552E+07 -2.5620E+07 -3.7530E-02
      55-
 mid.  surface     3.2588E+07  6.3913E+07 -5.6715E+07 -6.7781E+07 -5.6229E+07  1.0364E+07 -2.3218E-02
      56-
 mid.  surface     3.9087E+08  4.0021E+08  7.0018E+06 -1.6352E+08  2.4224E+08 -1.0546E+08 -2.5104E-01
      57-
 mid.  surface     2.2036E+08  3.0023E+08  5.6897E+07 -1.6701E+08  3.3476E+08 -1.7383E+08 -3.0841E-01
     124-
 mid.  surface     0.0000E+00  0.0000E+00  0.0000E+00  0.0000E+00  0.0000E+00  0.0000E+00  4.0933E-02
     125-
 mid.  surface     0.0000E+00  0.0000E+00  0.0000E+00  0.0000E+00  0.0000E+00  0.0000E+00  6.3717E-01
     126-
 mid.  surface     0.0000E+00  0.0000E+00  0.0000E+00  0.0000E+00  0.0000E+00  0.0000E+00 -4.3747E-01
     127-
 mid.  surface     0.0000E+00  0.0000E+00  0.0000E+00  0.0000E+00  0.0000E+00  0.0000E+00  1.4005E-01
     128-
 mid.  surface     0.0000E+00  0.0000E+00  0.0000E+00  0.0000E+00  0.0000E+00  0.0000E+00  0.0000E+00
     129-
 mid.  surface     0.0000E+00  0.0000E+00  0.0000E+00  0.0000E+00  0.0000E+00  0.0000E+00  0.0000E+00
     148-
 mid.  surface    -4.4605E+06 -4.4605E+06 -4.4605E+06  0.0000E+00  0.0000E+00  0.0000E+00  2.7567E-01
     149-
 mid.  surface    -2.3403E+08 -1.5053E+08 -9.9483E+06  2.2565E+07 -3.5980E+08  1.2772E+08 -2.4689E-02
     150-
 mid.  surface    -2.0326E+08 -1.2640E+08  1.3307E+07 -2.7392E+07 -1.6623E+08  7.1360E+07 -7.3029E-02
     164-
 mid.  surface    -1.6373E+06 -1.6373E+06 -1.6373E+06  0.0000E+00  0.0000E+00  0.0000E+00  1.8314E-01
     165-
 mid.  surface     3.7669E+07  7.9116E+07  9.0084E+07  2.0397E+07 -1.4148E+08  4.4583E+07 -4.6684E-02
     166-
 mid.  surface     1.7558E+08  1.3273E+08  4.8204E+07 -4.0233E+07  3.0512E+08 -1.0203E+08 -2.1972E-01



 n o d a l  s t r a i n  c a l c u l a t i o n s   f o r   t i m e  s t e p      912   ( at time 1.00000E+02 )

 node (global)
          strain       eps-xx      eps-yy      eps-zz      eps-xy      eps-yz      eps-zx       
       1-
 mid.  surface     0.0000E+00  0.0000E+00  0.0000E+00  0.0000E+00  0.0000E+00  0.0000E+00
       2-
 mid.  surface     0.0000E+00  0.0000E+00  0.0000E+00  0.0000E+00  0.0000E+00  0.0000E+00
       8-
 mid.  surface     0.0000E+00  0.0000E+00  0.0000E+00  0.0000E+00  0.0000E+00  0.0000E+00
       9-
 mid.  surface     0.0000E+00  0.0000E+00  0.0000E+00  0.0000E+00  0.0000E+00  0.0000E+00
      10-
 mid.  surface     0.0000E+00  0.0000E+00  0.0000E+00  0.0000E+00  0.0000E+00  0.0000E+00
      11-
 mid.  surface     0.0000E+00  0.0000E+00  0.0000E+00  0.0000E+00  0.0000E+00  0.0000E+00
      12-
 mid.  surface     0.0000E+00  0.0000E+00  0.0000E+00  0.0000E+00  0.0000E+00  0.0000E+00
      17-
 mid.  surface     0.0000E+00  0.0000E+00  0.0000E+00  0.0000E+00  0.0000E+00  0.0000E+00
      18-
 mid.  surface     0.0000E+00  0.0000E+00  0.0000E+00  0.0000E+00  0.0000E+00  0.0000E+00
      19-
 mid.  surface     0.0000E+00  0.0000E+00  0.0000E+00  0.0000E+00  0.0000E+00  0.0000E+00
      20-
 mid.  surface     0.0000E+00  0.0000E+00  0.0000E+00  0.0000E+00  0.0000E+00  0.0000E+00
      21-
 mid.  surface     2.6789E-01  1.2249E-01 -6.0171E-01  4.0622E-02 -9.3893E-04  2.3077E-02
      22-
 mid.  surface     2.1674E-01  1.0001E-01 -3.6663E-01 -6.2910E-03 -2.5522E-02 -1.3336E-01
      23-
 mid.  surface     0.0000E+00  0.0000E+00  0.0000E+00  0.0000E+00  0.0000E+00  0.0000E+00
      24-
 mid.  surface     1.0106E-01  3.8775E-02 -6.1722E-02 -4.8447E-02  9.4602E-02  6.8658E-02
      25-
 mid.  surface     5.2061E-01  5.5359E-02 -7.5444E-01  5.8076E-02 -1.4032E-01  3.5096E-02
      26-
 mid.  surface     5.3787E-01  1.2689E-01 -5.9017E-01  5.6752E-02 -1.5711E-01  5.4634E-03
      27-
 mid.  surface     1.1292E-01 -9.4065E-03 -3.1626E-02 -1.1587E-03 -7.9496E-02  7.4944E-02
      28-
 mid.  surface    -2.7484E-01  1.3943E-01  4.8675E-02  9.1393E-02 -2.7301E-01  4.8960E-01
      29-
 mid.  surface     7.8112E-02  1.7892E-02 -1.3888E-01 -4.3420E-02  2.9797E-02 -1.3534E-01
      30-
 mid.  surface     1.3059E-01  7.4717E-02 -3.0245E-01  1.0479E-02 -2.1149E-01 -2.5143E-01
      31-
 mid.  surface    -3.0273E-01  2.3199E-01 -9.1435E-03  9.9110E-02 -4.2086E-01  5.3917E-01
      52-
 mid.  surface     1.1991E-01  3.5418E-01 -5.6267E-01  7.8514E-02  1.8491E-01  2.5370E-01
      53-
 mid.  surface     7.7882E-02  2.2574E-01 -2.9555E-01  3.6332E-02  2.4791E-01  2.1959E-01
      54-
 mid.  surface     9.9484E-02  7.4842E-02 -1.7441E-01  1.2779E-01 -1.3547E-01 -1.8698E-01
      55-
 mid.  surface    -1.5762E-02  1.0852E-02  1.7776E-01 -4.1638E-02  3.0947E-01 -2.7383E-02
      56-
 mid.  surface     2.0163E-02  1.1670E-01 -9.2094E-02 -7.3728E-03 -2.4308E-01 -1.1344E-01
      57-
 mid.  surface     9.7096E-03  1.9515E-01 -2.0710E-01 -2.0204E-02 -2.7300E-01 -4.0395E-02
     124-
 mid.  surface    -2.2129E-01  2.3972E-01  6.3984E-02 -3.0576E-02  7.3043E-02 -7.9371E-02
     125-
 mid.  surface    -1.9161E-01  2.0003E-01  3.4668E-01 -5.3305E-02 -5.6914E-02 -9.8713E-02
     126-
 mid.  surface    -2.4727E-01  4.3749E-02  3.3548E-01 -2.2731E-03  1.7547E-01 -7.1808E-02
     127-
 mid.  surface    -2.2738E-01  1.7128E-01  3.4342E-01 -3.7080E-02  1.3155E-01 -3.6949E-01
     128-
 mid.  surface     0.0000E+00  0.0000E+00  0.0000E+00  0.0000E+00  0.0000E+00  0.0000E+00
     129-
 mid.  surface     0.0000E+00  0.0000E+00  0.0000E+00  0.0000E+00  0.0000E+00  0.0000E+00
     148-
 mid.  surface     1.0591E-01  1.4740E-01 -2.5964E-01 -2.8297E-01  2.4308E-01  1.1922E-01
     149-
 mid.  surface    -1.5508E-01 -3.7955E-01  8.3684E-01 -2.9083E-01  1.8511E-02 -1.8632E-01
     150-
 mid.  surface     1.2539E-02  1.8578E-01 -1.1290E-01 -1.1273E-02 -2.4134E-01 -1.5321E-02
     164-
 mid.  surface     4.3260E-01  3.8690E-01 -9.7474E-01  1.2628E-01 -2.5258E-01 -7.1840E-02
     165-
 mid.  surface     1.2779E-01 -2.0299E-01  5.7806E-02 -2.7416E-02 -8.2548E-01 -4.2444E-01
     166-
 mid.  surface     5.1549E-02  3.6478E-02 -4.1260E-02 -3.0346E-03 -3.0357E-01 -1.1557E-01
