 LS-DYNA keyword deck by LS-PrePost                                      
                    ls-dyna smp d R14 R14.1.1s_1_ef50e1 date 06/16/2024

{BEGIN LEGEND}
 Entity #        Title
        1                                                                                     
        2                                                                                     
        3                                                                                     
        4                                                                                     
        5                                                                                     
        6                                                                                     
        7                                                                                     
        8                                                                                     
        9                                                                                     
       10                                                                                     
       11                                                                                     
       12                                                                                     
       13                                                                                     
       14                                                                                     
       15                                                                                     
       16                                                                                     
       17                                                                                     
       18                                                                                     
       19                                                                                     
       26                                                                                     
       27                                                                                     
       54                                                                                     
      127                                                                                     
      165                                                                                     
      220                                                                                     
      221                                                                                     
      222                                                                                     
      223                                                                                     
      248                                                                                     
      249                                                                                     
      286                                                                                     
      287                                                                                     
      288                                                                                     
      301                                                                                     
      314                                                                                     
      363                                                                                     
      364                                                                                     
      365                                                                                     
      366                                                                                     
      379                                                                                     
      404                                                                                     
      405                                                                                     
      418                                                                                     
      438                                                                                     
      439                                                                                     
      440                                                                                     
      441                                                                                     
      442                                                                                     
      443                                                                                     
      444                                                                                     
      591                                                                                     
      592                                                                                     
      595                                                                                     
      596                                                                                     
      599                                                                                     
      600                                                                                     
      603                                                                                     
      604                                                                                     
      638                                                                                     
      639                                                                                     
      641                                                                                     
      642                                                                                     
      644                                                                                     
      645                                                                                     
      647                                                                                     
      648                                                                                     
      674                                                                                     
      676                                                                                     
      678                                                                                     
      680                                                                                     
      821                                                                                     
      822                                                                                     
      823                                                                                     
      824                                                                                     
      850                                                                                     
      852                                                                                     
      854                                                                                     
      856                                                                                     
{END LEGEND}




 n o d a l   p r i n t   o u t   f o r   t i m e  s t e p       1                              ( at time 0.0000000E+00 )

 nodal point  x-disp     y-disp      z-disp      x-vel       y-vel       z-vel      x-accl      y-accl      z-accl      x-coor      y-coor      z-coor
        1  0.00000E+00 0.00000E+00 0.00000E+00 0.00000E+00 0.00000E+00 0.00000E+00 0.00000E+00 0.00000E+00 0.00000E+00 3.17500E-03 0.00000E+00-1.78000E-18
        2  0.00000E+00 0.00000E+00 0.00000E+00 0.00000E+00 0.00000E+00 0.00000E+00 0.00000E+00 0.00000E+00 0.00000E+00 2.38130E-03 0.00000E+00 0.00000E+00
        3  0.00000E+00 0.00000E+00 0.00000E+00 0.00000E+00 0.00000E+00 0.00000E+00 0.00000E+00 0.00000E+00 0.00000E+00 1.58750E-03 0.00000E+00 0.00000E+00
        4  0.00000E+00 0.00000E+00 0.00000E+00 0.00000E+00 0.00000E+00 0.00000E+00 0.00000E+00 0.00000E+00 0.00000E+00 7.93750E-04 0.00000E+00 0.00000E+00
        5  0.00000E+00 0.00000E+00 0.00000E+00 0.00000E+00 0.00000E+00 0.00000E+00 0.00000E+00 0.00000E+00 0.00000E+00 0.00000E+00 0.00000E+00 0.00000E+00
        6  0.00000E+00 0.00000E+00 0.00000E+00 0.00000E+00 0.00000E+00 0.00000E+00 0.00000E+00 0.00000E+00 0.00000E+00 4.86000E-20 7.93750E-04 0.00000E+00
        7  0.00000E+00 0.00000E+00 0.00000E+00 0.00000E+00 0.00000E+00 0.00000E+00 0.00000E+00 0.00000E+00 0.00000E+00 9.72100E-20 1.58750E-03 0.00000E+00
        8  0.00000E+00 0.00000E+00 0.00000E+00 0.00000E+00 0.00000E+00 0.00000E+00 0.00000E+00 0.00000E+00 0.00000E+00 1.45800E-19 2.38130E-03 0.00000E+00
        9  0.00000E+00 0.00000E+00 0.00000E+00 0.00000E+00 0.00000E+00 0.00000E+00 0.00000E+00 0.00000E+00 0.00000E+00 1.94400E-19 3.17500E-03 0.00000E+00
       10  0.00000E+00 0.00000E+00 0.00000E+00 0.00000E+00 0.00000E+00 0.00000E+00 0.00000E+00 0.00000E+00 0.00000E+00 1.21500E-03 2.93330E-03 0.00000E+00
       11  0.00000E+00 0.00000E+00 0.00000E+00 0.00000E+00 0.00000E+00 0.00000E+00 0.00000E+00 0.00000E+00 0.00000E+00 2.24510E-03 2.24510E-03 0.00000E+00
       12  0.00000E+00 0.00000E+00 0.00000E+00 0.00000E+00 0.00000E+00 0.00000E+00 0.00000E+00 0.00000E+00 0.00000E+00 2.93330E-03 1.21500E-03 0.00000E+00
       13  0.00000E+00 0.00000E+00 0.00000E+00 0.00000E+00 0.00000E+00 0.00000E+00 0.00000E+00 0.00000E+00 0.00000E+00 1.30830E-03 1.35190E-03 0.00000E+00
       14  0.00000E+00 0.00000E+00 0.00000E+00 0.00000E+00 0.00000E+00 0.00000E+00 0.00000E+00 0.00000E+00 0.00000E+00 1.48830E-03 7.06977E-04 0.00000E+00
       15  0.00000E+00 0.00000E+00 0.00000E+00 0.00000E+00 0.00000E+00 0.00000E+00 0.00000E+00 0.00000E+00 0.00000E+00 6.69510E-04 1.50700E-03 0.00000E+00
       16  0.00000E+00 0.00000E+00 0.00000E+00 0.00000E+00 0.00000E+00 0.00000E+00 0.00000E+00 0.00000E+00 0.00000E+00 7.53638E-04 7.82337E-04 0.00000E+00
       17  0.00000E+00 0.00000E+00 0.00000E+00 0.00000E+00 0.00000E+00 0.00000E+00 0.00000E+00 0.00000E+00 0.00000E+00 1.73630E-03 1.76750E-03 0.00000E+00
       18  0.00000E+00 0.00000E+00 0.00000E+00 0.00000E+00 0.00000E+00 0.00000E+00 0.00000E+00 0.00000E+00 0.00000E+00 9.20131E-04 2.19110E-03 0.00000E+00
       19  0.00000E+00 0.00000E+00 0.00000E+00 0.00000E+00 0.00000E+00 0.00000E+00 0.00000E+00 0.00000E+00 0.00000E+00 2.16330E-03 9.50859E-04 0.00000E+00
       26  0.00000E+00 0.00000E+00 0.00000E+00 0.00000E+00 0.00000E+00 0.00000E+00 0.00000E+00 0.00000E+00 0.00000E+00 3.15030E-03 1.31160E-03 1.88730E-03
       27  0.00000E+00 0.00000E+00 0.00000E+00 0.00000E+00 0.00000E+00 0.00000E+00 0.00000E+00 0.00000E+00 0.00000E+00 2.42050E-03 2.42360E-03 1.93700E-03
       54  0.00000E+00 0.00000E+00 0.00000E+00 0.00000E+00 0.00000E+00 0.00000E+00 0.00000E+00 0.00000E+00 0.00000E+00 1.30760E-03 3.15480E-03 1.89760E-03
      127  0.00000E+00 0.00000E+00 0.00000E+00 0.00000E+00 0.00000E+00 0.00000E+00 0.00000E+00 0.00000E+00 0.00000E+00 3.38660E-03 0.00000E+00 1.78320E-03
      165  0.00000E+00 0.00000E+00 0.00000E+00 0.00000E+00 0.00000E+00 0.00000E+00 0.00000E+00 0.00000E+00 0.00000E+00 2.39400E-19 3.38670E-03 1.78390E-03
      220  0.00000E+00 0.00000E+00 0.00000E+00 0.00000E+00 0.00000E+00 0.00000E+00 0.00000E+00 0.00000E+00 0.00000E+00 2.13900E-19 3.49250E-03 2.54000E-02
      221  0.00000E+00 0.00000E+00 0.00000E+00 0.00000E+00 0.00000E+00 0.00000E+00 0.00000E+00 0.00000E+00 0.00000E+00 1.47250E-03 3.31440E-03 2.54000E-02
      222  0.00000E+00 0.00000E+00 0.00000E+00 0.00000E+00 0.00000E+00 0.00000E+00 0.00000E+00 0.00000E+00 0.00000E+00 2.02380E-03 4.81920E-03 2.54000E-02
      223  0.00000E+00 0.00000E+00 0.00000E+00 0.00000E+00 0.00000E+00 0.00000E+00 0.00000E+00 0.00000E+00 0.00000E+00 3.20800E-19 5.23880E-03 2.54000E-02
      248  0.00000E+00 0.00000E+00 0.00000E+00 0.00000E+00 0.00000E+00 0.00000E+00 0.00000E+00 0.00000E+00 0.00000E+00 2.67340E-03 6.45320E-03 2.54000E-02
      249  0.00000E+00 0.00000E+00 0.00000E+00 0.00000E+00 0.00000E+00 0.00000E+00 0.00000E+00 0.00000E+00 0.00000E+00 4.27700E-19 6.98500E-03 2.54000E-02
      286  0.00000E+00 0.00000E+00 0.00000E+00 0.00000E+00 0.00000E+00 0.00000E+00 0.00000E+00 0.00000E+00 0.00000E+00 3.27330E-03 1.55480E-03 2.54000E-02
      287  0.00000E+00 0.00000E+00 0.00000E+00 0.00000E+00 0.00000E+00 0.00000E+00 0.00000E+00 0.00000E+00 0.00000E+00 2.87770E-03 2.97340E-03 2.54000E-02
      288  0.00000E+00 0.00000E+00 0.00000E+00 0.00000E+00 0.00000E+00 0.00000E+00 0.00000E+00 0.00000E+00 0.00000E+00 1.65770E-03 1.72080E-03 2.54000E-02
      301  0.00000E+00 0.00000E+00 0.00000E+00 0.00000E+00 0.00000E+00 0.00000E+00 0.00000E+00 0.00000E+00 0.00000E+00 3.81930E-03 3.88770E-03 2.54000E-02
      314  0.00000E+00 0.00000E+00 0.00000E+00 0.00000E+00 0.00000E+00 0.00000E+00 0.00000E+00 0.00000E+00 0.00000E+00 4.93910E-03 4.93910E-03 2.54000E-02
      363  0.00000E+00 0.00000E+00 0.00000E+00 0.00000E+00 0.00000E+00 0.00000E+00 0.00000E+00 0.00000E+00 0.00000E+00 6.45340E-03 2.67290E-03 2.54000E-02
      364  0.00000E+00 0.00000E+00 0.00000E+00 0.00000E+00 0.00000E+00 0.00000E+00 0.00000E+00 0.00000E+00 0.00000E+00 4.75810E-03 2.09120E-03 2.54000E-02
      365  0.00000E+00 0.00000E+00 0.00000E+00 0.00000E+00 0.00000E+00 0.00000E+00 0.00000E+00 0.00000E+00 0.00000E+00 5.23880E-03 0.00000E+00 2.54000E-02
      366  0.00000E+00 0.00000E+00 0.00000E+00 0.00000E+00 0.00000E+00 0.00000E+00 0.00000E+00 0.00000E+00 0.00000E+00 6.98500E-03 0.00000E+00 2.54000E-02
      379  0.00000E+00 0.00000E+00 0.00000E+00 0.00000E+00 0.00000E+00 0.00000E+00 0.00000E+00 0.00000E+00 0.00000E+00 1.06900E-19 1.74630E-03 2.54000E-02
      404  0.00000E+00 0.00000E+00 0.00000E+00 0.00000E+00 0.00000E+00 0.00000E+00 0.00000E+00 0.00000E+00 0.00000E+00 1.74630E-03 0.00000E+00 2.54000E-02
      405  0.00000E+00 0.00000E+00 0.00000E+00 0.00000E+00 0.00000E+00 0.00000E+00 0.00000E+00 0.00000E+00 0.00000E+00 0.00000E+00 0.00000E+00 2.54000E-02
      418  0.00000E+00 0.00000E+00 0.00000E+00 0.00000E+00 0.00000E+00 0.00000E+00 0.00000E+00 0.00000E+00 0.00000E+00 3.49250E-03 0.00000E+00 2.54000E-02
      438  0.00000E+00 0.00000E+00 0.00000E+00 0.00000E+00 0.00000E+00 0.00000E+00 0.00000E+00 0.00000E+00 0.00000E+00 1.27000E-02 0.00000E+00 2.54000E-02
      439  0.00000E+00 0.00000E+00 0.00000E+00 0.00000E+00 0.00000E+00 0.00000E+00 0.00000E+00 0.00000E+00 0.00000E+00 1.18836E-02 0.00000E+00 2.54000E-02
      440  0.00000E+00 0.00000E+00 0.00000E+00 0.00000E+00 0.00000E+00 0.00000E+00 0.00000E+00 0.00000E+00 0.00000E+00 1.10671E-02 0.00000E+00 2.54000E-02
      441  0.00000E+00 0.00000E+00 0.00000E+00 0.00000E+00 0.00000E+00 0.00000E+00 0.00000E+00 0.00000E+00 0.00000E+00 1.02507E-02 0.00000E+00 2.54000E-02
      442  0.00000E+00 0.00000E+00 0.00000E+00 0.00000E+00 0.00000E+00 0.00000E+00 0.00000E+00 0.00000E+00 0.00000E+00 9.43430E-03 0.00000E+00 2.54000E-02
      443  0.00000E+00 0.00000E+00 0.00000E+00 0.00000E+00 0.00000E+00 0.00000E+00 0.00000E+00 0.00000E+00 0.00000E+00 8.61790E-03 0.00000E+00 2.54000E-02
      444  0.00000E+00 0.00000E+00 0.00000E+00 0.00000E+00 0.00000E+00 0.00000E+00 0.00000E+00 0.00000E+00 0.00000E+00 7.80140E-03 0.00000E+00 2.54000E-02
      591  0.00000E+00 0.00000E+00 0.00000E+00 0.00000E+00 0.00000E+00 0.00000E+00 0.00000E+00 0.00000E+00 0.00000E+00 7.97270E-03 3.27150E-03 2.54000E-02
      592  0.00000E+00 0.00000E+00 0.00000E+00 0.00000E+00 0.00000E+00 0.00000E+00 0.00000E+00 0.00000E+00 0.00000E+00 8.73230E-03 3.57080E-03 2.54000E-02
      595  0.00000E+00 0.00000E+00 0.00000E+00 0.00000E+00 0.00000E+00 0.00000E+00 0.00000E+00 0.00000E+00 0.00000E+00 6.09600E-03 6.09150E-03 2.54000E-02
      596  0.00000E+00 0.00000E+00 0.00000E+00 0.00000E+00 0.00000E+00 0.00000E+00 0.00000E+00 0.00000E+00 0.00000E+00 6.67450E-03 6.66760E-03 2.54000E-02
      599  0.00000E+00 0.00000E+00 0.00000E+00 0.00000E+00 0.00000E+00 0.00000E+00 0.00000E+00 0.00000E+00 0.00000E+00 3.27630E-03 7.97070E-03 2.54000E-02
      600  0.00000E+00 0.00000E+00 0.00000E+00 0.00000E+00 0.00000E+00 0.00000E+00 0.00000E+00 0.00000E+00 0.00000E+00 3.57780E-03 8.72950E-03 2.54000E-02
      603  0.00000E+00 0.00000E+00 0.00000E+00 0.00000E+00 0.00000E+00 0.00000E+00 0.00000E+00 0.00000E+00 0.00000E+00 5.27700E-19 8.61790E-03 2.54000E-02
      604  0.00000E+00 0.00000E+00 0.00000E+00 0.00000E+00 0.00000E+00 0.00000E+00 0.00000E+00 0.00000E+00 0.00000E+00 5.77700E-19 9.43430E-03 2.54000E-02
      638  0.00000E+00 0.00000E+00 0.00000E+00 0.00000E+00 0.00000E+00 0.00000E+00 0.00000E+00 0.00000E+00 0.00000E+00 1.02517E-02 4.16940E-03 2.54000E-02
      639  0.00000E+00 0.00000E+00 0.00000E+00 0.00000E+00 0.00000E+00 0.00000E+00 0.00000E+00 0.00000E+00 0.00000E+00 1.10113E-02 4.46870E-03 2.54000E-02
      641  0.00000E+00 0.00000E+00 0.00000E+00 0.00000E+00 0.00000E+00 0.00000E+00 0.00000E+00 0.00000E+00 0.00000E+00 7.83140E-03 7.81990E-03 2.54000E-02
      642  0.00000E+00 0.00000E+00 0.00000E+00 0.00000E+00 0.00000E+00 0.00000E+00 0.00000E+00 0.00000E+00 0.00000E+00 8.40990E-03 8.39600E-03 2.54000E-02
      644  0.00000E+00 0.00000E+00 0.00000E+00 0.00000E+00 0.00000E+00 0.00000E+00 0.00000E+00 0.00000E+00 0.00000E+00 4.18070E-03 1.02471E-02 2.54000E-02
      645  0.00000E+00 0.00000E+00 0.00000E+00 0.00000E+00 0.00000E+00 0.00000E+00 0.00000E+00 0.00000E+00 0.00000E+00 4.48220E-03 1.10058E-02 2.54000E-02
      647  0.00000E+00 0.00000E+00 0.00000E+00 0.00000E+00 0.00000E+00 0.00000E+00 0.00000E+00 0.00000E+00 0.00000E+00 6.77700E-19 1.10671E-02 2.54000E-02
      648  0.00000E+00 0.00000E+00 0.00000E+00 0.00000E+00 0.00000E+00 0.00000E+00 0.00000E+00 0.00000E+00 0.00000E+00 7.27700E-19 1.18836E-02 2.54000E-02
      674  0.00000E+00 0.00000E+00 0.00000E+00 0.00000E+00 0.00000E+00 0.00000E+00 0.00000E+00 0.00000E+00 0.00000E+00 7.21300E-03 2.97220E-03 2.54000E-02
      676  0.00000E+00 0.00000E+00 0.00000E+00 0.00000E+00 0.00000E+00 0.00000E+00 0.00000E+00 0.00000E+00 0.00000E+00 5.51760E-03 5.51530E-03 2.54000E-02
      678  0.00000E+00 0.00000E+00 0.00000E+00 0.00000E+00 0.00000E+00 0.00000E+00 0.00000E+00 0.00000E+00 0.00000E+00 2.97480E-03 7.21200E-03 2.54000E-02
      680  0.00000E+00 0.00000E+00 0.00000E+00 0.00000E+00 0.00000E+00 0.00000E+00 0.00000E+00 0.00000E+00 0.00000E+00 4.77700E-19 7.80140E-03 2.54000E-02
      821  0.00000E+00 0.00000E+00 0.00000E+00 0.00000E+00 0.00000E+00 0.00000E+00 0.00000E+00 0.00000E+00 0.00000E+00 9.49200E-03 3.87010E-03 2.54000E-02
      822  0.00000E+00 0.00000E+00 0.00000E+00 0.00000E+00 0.00000E+00 0.00000E+00 0.00000E+00 0.00000E+00 0.00000E+00 7.25290E-03 7.24380E-03 2.54000E-02
      823  0.00000E+00 0.00000E+00 0.00000E+00 0.00000E+00 0.00000E+00 0.00000E+00 0.00000E+00 0.00000E+00 0.00000E+00 3.87930E-03 9.48830E-03 2.54000E-02
      824  0.00000E+00 0.00000E+00 0.00000E+00 0.00000E+00 0.00000E+00 0.00000E+00 0.00000E+00 0.00000E+00 0.00000E+00 6.27700E-19 1.02507E-02 2.54000E-02
      850  0.00000E+00 0.00000E+00 0.00000E+00 0.00000E+00 0.00000E+00 0.00000E+00 0.00000E+00 0.00000E+00 0.00000E+00 1.17710E-02 4.76810E-03 2.54000E-02
      852  0.00000E+00 0.00000E+00 0.00000E+00 0.00000E+00 0.00000E+00 0.00000E+00 0.00000E+00 0.00000E+00 0.00000E+00 8.98830E-03 8.97220E-03 2.54000E-02
      854  0.00000E+00 0.00000E+00 0.00000E+00 0.00000E+00 0.00000E+00 0.00000E+00 0.00000E+00 0.00000E+00 0.00000E+00 4.78370E-03 1.17646E-02 2.54000E-02
      856  0.00000E+00 0.00000E+00 0.00000E+00 0.00000E+00 0.00000E+00 0.00000E+00 0.00000E+00 0.00000E+00 0.00000E+00 7.77700E-19 1.27000E-02 2.54000E-02



 n o d a l   p r i n t   o u t   f o r   t i m e  s t e p      10                              ( at time 1.2924466E+00 )

 nodal point  x-disp     y-disp      z-disp      x-vel       y-vel       z-vel      x-accl      y-accl      z-accl      x-coor      y-coor      z-coor
        1  4.11391E-06 0.00000E+00 0.00000E+00 0.00000E+00 0.00000E+00 0.00000E+00 0.00000E+00 0.00000E+00 0.00000E+00 3.17911E-03 0.00000E+00-1.78000E-18
        2  2.14598E-06 0.00000E+00 0.00000E+00 0.00000E+00 0.00000E+00 0.00000E+00 0.00000E+00 0.00000E+00 0.00000E+00 2.38345E-03 0.00000E+00 0.00000E+00
        3  1.12340E-06 0.00000E+00 0.00000E+00 0.00000E+00 0.00000E+00 0.00000E+00 0.00000E+00 0.00000E+00 0.00000E+00 1.58862E-03 0.00000E+00 0.00000E+00
        4  5.50229E-07 0.00000E+00 0.00000E+00 0.00000E+00 0.00000E+00 0.00000E+00 0.00000E+00 0.00000E+00 0.00000E+00 7.94300E-04 0.00000E+00 0.00000E+00
        5  0.00000E+00 0.00000E+00 0.00000E+00 0.00000E+00 0.00000E+00 0.00000E+00 0.00000E+00 0.00000E+00 0.00000E+00 0.00000E+00 0.00000E+00 0.00000E+00
        6  0.00000E+00 5.93297E-07 0.00000E+00 0.00000E+00 0.00000E+00 0.00000E+00 0.00000E+00 0.00000E+00 0.00000E+00 4.86000E-20 7.94343E-04 0.00000E+00
        7  0.00000E+00 1.26760E-06 0.00000E+00 0.00000E+00 0.00000E+00 0.00000E+00 0.00000E+00 0.00000E+00 0.00000E+00 9.72100E-20 1.58877E-03 0.00000E+00
        8  0.00000E+00 2.82931E-06 0.00000E+00 0.00000E+00 0.00000E+00 0.00000E+00 0.00000E+00 0.00000E+00 0.00000E+00 1.45800E-19 2.38413E-03 0.00000E+00
        9  0.00000E+00 5.77748E-06 0.00000E+00 0.00000E+00 0.00000E+00 0.00000E+00 0.00000E+00 0.00000E+00 0.00000E+00 1.94400E-19 3.18078E-03 0.00000E+00
       10  1.71295E-06 5.06136E-06 0.00000E+00 0.00000E+00 0.00000E+00 0.00000E+00 0.00000E+00 0.00000E+00 0.00000E+00 1.21671E-03 2.93836E-03 0.00000E+00
       11  2.95171E-06 3.63354E-06 0.00000E+00 0.00000E+00 0.00000E+00 0.00000E+00 0.00000E+00 0.00000E+00 0.00000E+00 2.24805E-03 2.24873E-03 0.00000E+00
       12  3.80404E-06 2.00275E-06 0.00000E+00 0.00000E+00 0.00000E+00 0.00000E+00 0.00000E+00 0.00000E+00 0.00000E+00 2.93710E-03 1.21700E-03 0.00000E+00
       13  1.08672E-06 1.22503E-06 0.00000E+00 0.00000E+00 0.00000E+00 0.00000E+00 0.00000E+00 0.00000E+00 0.00000E+00 1.30939E-03 1.35313E-03 0.00000E+00
       14  1.00872E-06 3.52531E-07 0.00000E+00 0.00000E+00 0.00000E+00 0.00000E+00 0.00000E+00 0.00000E+00 0.00000E+00 1.48931E-03 7.07329E-04 0.00000E+00
       15  3.27664E-07 1.07173E-06 0.00000E+00 0.00000E+00 0.00000E+00 0.00000E+00 0.00000E+00 0.00000E+00 0.00000E+00 6.69838E-04 1.50807E-03 0.00000E+00
       16  6.15386E-07 7.83992E-07 0.00000E+00 0.00000E+00 0.00000E+00 0.00000E+00 0.00000E+00 0.00000E+00 0.00000E+00 7.54253E-04 7.83121E-04 0.00000E+00
       17  1.81746E-06 2.22439E-06 0.00000E+00 0.00000E+00 0.00000E+00 0.00000E+00 0.00000E+00 0.00000E+00 0.00000E+00 1.73812E-03 1.76972E-03 0.00000E+00
       18  9.34336E-07 2.10327E-06 0.00000E+00 0.00000E+00 0.00000E+00 0.00000E+00 0.00000E+00 0.00000E+00 0.00000E+00 9.21065E-04 2.19320E-03 0.00000E+00
       19  1.55487E-06 1.17324E-06 0.00000E+00 0.00000E+00 0.00000E+00 0.00000E+00 0.00000E+00 0.00000E+00 0.00000E+00 2.16485E-03 9.52032E-04 0.00000E+00
       26  2.77501E-06 1.31612E-06-8.71288E-06 0.00000E+00 0.00000E+00 0.00000E+00 0.00000E+00 0.00000E+00 0.00000E+00 3.15308E-03 1.31292E-03 1.87859E-03
       27  2.07857E-06 2.43223E-06-8.67700E-06 0.00000E+00 0.00000E+00 0.00000E+00 0.00000E+00 0.00000E+00 0.00000E+00 2.42258E-03 2.42603E-03 1.92832E-03
       54  1.03848E-06 3.03359E-06-8.54039E-06 0.00000E+00 0.00000E+00 0.00000E+00 0.00000E+00 0.00000E+00 0.00000E+00 1.30864E-03 3.15783E-03 1.88906E-03
      127  3.07419E-06 0.00000E+00-8.52041E-06 0.00000E+00 0.00000E+00 0.00000E+00 0.00000E+00 0.00000E+00 0.00000E+00 3.38967E-03 0.00000E+00 1.77468E-03
      165  0.00000E+00 3.39807E-06-8.21976E-06 0.00000E+00 0.00000E+00 0.00000E+00 0.00000E+00 0.00000E+00 0.00000E+00 2.39400E-19 3.39010E-03 1.77568E-03
      220  0.00000E+00 3.61502E-07-2.58489E-05 0.00000E+00 0.00000E+00 0.00000E+00 0.00000E+00 0.00000E+00 0.00000E+00 2.13900E-19 3.49286E-03 2.53742E-02
      221  9.71285E-08 3.04459E-07-2.58489E-05 0.00000E+00 0.00000E+00 0.00000E+00 0.00000E+00 0.00000E+00 0.00000E+00 1.47260E-03 3.31470E-03 2.53742E-02
      222  1.74174E-07 4.40581E-07-2.58489E-05 0.00000E+00 0.00000E+00 0.00000E+00 0.00000E+00 0.00000E+00 0.00000E+00 2.02397E-03 4.81964E-03 2.53742E-02
      223  0.00000E+00 5.71613E-07-2.58489E-05 0.00000E+00 0.00000E+00 0.00000E+00 0.00000E+00 0.00000E+00 0.00000E+00 3.20800E-19 5.23937E-03 2.53742E-02
      248  2.48079E-07 7.25467E-07-2.58489E-05 0.00000E+00 0.00000E+00 0.00000E+00 0.00000E+00 0.00000E+00 0.00000E+00 2.67365E-03 6.45393E-03 2.53742E-02
      249  0.00000E+00 8.40067E-07-2.58489E-05 0.00000E+00 0.00000E+00 0.00000E+00 0.00000E+00 0.00000E+00 0.00000E+00 4.27700E-19 6.98584E-03 2.53742E-02
      286  2.60112E-07 1.17797E-07-2.58489E-05 0.00000E+00 0.00000E+00 0.00000E+00 0.00000E+00 0.00000E+00 0.00000E+00 3.27356E-03 1.55492E-03 2.53742E-02
      287  2.40712E-07 2.92709E-07-2.58489E-05 0.00000E+00 0.00000E+00 0.00000E+00 0.00000E+00 0.00000E+00 0.00000E+00 2.87794E-03 2.97369E-03 2.53742E-02
      288  1.56428E-07 2.06772E-07-2.58489E-05 0.00000E+00 0.00000E+00 0.00000E+00 0.00000E+00 0.00000E+00 0.00000E+00 1.65786E-03 1.72101E-03 2.53742E-02
      301  3.45564E-07 4.25162E-07-2.58489E-05 0.00000E+00 0.00000E+00 0.00000E+00 0.00000E+00 0.00000E+00 0.00000E+00 3.81965E-03 3.88813E-03 2.53742E-02
      314  4.57305E-07 5.51798E-07-2.58489E-05 0.00000E+00 0.00000E+00 0.00000E+00 0.00000E+00 0.00000E+00 0.00000E+00 4.93956E-03 4.93965E-03 2.53742E-02
      363  5.82866E-07 3.04070E-07-2.58489E-05 0.00000E+00 0.00000E+00 0.00000E+00 0.00000E+00 0.00000E+00 0.00000E+00 6.45398E-03 2.67320E-03 2.53742E-02
      364  3.59248E-07 2.28766E-07-2.58489E-05 0.00000E+00 0.00000E+00 0.00000E+00 0.00000E+00 0.00000E+00 0.00000E+00 4.75846E-03 2.09143E-03 2.53742E-02
      365  4.60675E-07 0.00000E+00-2.58489E-05 0.00000E+00 0.00000E+00 0.00000E+00 0.00000E+00 0.00000E+00 0.00000E+00 5.23926E-03 0.00000E+00 2.53742E-02
      366  6.36220E-07 0.00000E+00-2.58489E-05 0.00000E+00 0.00000E+00 0.00000E+00 0.00000E+00 0.00000E+00 0.00000E+00 6.98564E-03 0.00000E+00 2.53742E-02
      379  0.00000E+00 1.84915E-07-2.58489E-05 0.00000E+00 0.00000E+00 0.00000E+00 0.00000E+00 0.00000E+00 0.00000E+00 1.06900E-19 1.74648E-03 2.53742E-02
      404  1.48348E-07 0.00000E+00-2.58489E-05 0.00000E+00 0.00000E+00 0.00000E+00 0.00000E+00 0.00000E+00 0.00000E+00 1.74645E-03 0.00000E+00 2.53742E-02
      405  0.00000E+00 0.00000E+00-2.58489E-05 0.00000E+00 0.00000E+00 0.00000E+00 0.00000E+00 0.00000E+00 0.00000E+00 0.00000E+00 0.00000E+00 2.53742E-02
      418  2.95060E-07 0.00000E+00-2.58489E-05 0.00000E+00 0.00000E+00 0.00000E+00 0.00000E+00 0.00000E+00 0.00000E+00 3.49280E-03 0.00000E+00 2.53742E-02
      438  9.17005E-07 0.00000E+00-2.58489E-05 0.00000E+00 0.00000E+00 0.00000E+00 0.00000E+00 0.00000E+00 0.00000E+00 1.27009E-02 0.00000E+00 2.53742E-02
      439  8.65987E-07 0.00000E+00-2.58489E-05 0.00000E+00 0.00000E+00 0.00000E+00 0.00000E+00 0.00000E+00 0.00000E+00 1.18845E-02 0.00000E+00 2.53742E-02
      440  8.22220E-07 0.00000E+00-2.58489E-05 0.00000E+00 0.00000E+00 0.00000E+00 0.00000E+00 0.00000E+00 0.00000E+00 1.10679E-02 0.00000E+00 2.53742E-02
      441  7.77823E-07 0.00000E+00-2.58489E-05 0.00000E+00 0.00000E+00 0.00000E+00 0.00000E+00 0.00000E+00 0.00000E+00 1.02515E-02 0.00000E+00 2.53742E-02
      442  7.31927E-07 0.00000E+00-2.58489E-05 0.00000E+00 0.00000E+00 0.00000E+00 0.00000E+00 0.00000E+00 0.00000E+00 9.43503E-03 0.00000E+00 2.53742E-02
      443  6.84726E-07 0.00000E+00-2.58489E-05 0.00000E+00 0.00000E+00 0.00000E+00 0.00000E+00 0.00000E+00 0.00000E+00 8.61858E-03 0.00000E+00 2.53742E-02
      444  6.40279E-07 0.00000E+00-2.58489E-05 0.00000E+00 0.00000E+00 0.00000E+00 0.00000E+00 0.00000E+00 0.00000E+00 7.80204E-03 0.00000E+00 2.53742E-02
      591  6.45171E-07 3.32707E-07-2.58489E-05 0.00000E+00 0.00000E+00 0.00000E+00 0.00000E+00 0.00000E+00 0.00000E+00 7.97335E-03 3.27183E-03 2.53742E-02
      592  6.90796E-07 3.51911E-07-2.58489E-05 0.00000E+00 0.00000E+00 0.00000E+00 0.00000E+00 0.00000E+00 0.00000E+00 8.73299E-03 3.57115E-03 2.53742E-02
      595  5.10737E-07 6.07526E-07-2.58489E-05 0.00000E+00 0.00000E+00 0.00000E+00 0.00000E+00 0.00000E+00 0.00000E+00 6.09651E-03 6.09211E-03 2.53742E-02
      596  5.48279E-07 6.45557E-07-2.58489E-05 0.00000E+00 0.00000E+00 0.00000E+00 0.00000E+00 0.00000E+00 0.00000E+00 6.67505E-03 6.66825E-03 2.53742E-02
      599  2.76483E-07 7.80980E-07-2.58489E-05 0.00000E+00 0.00000E+00 0.00000E+00 0.00000E+00 0.00000E+00 0.00000E+00 3.27658E-03 7.97148E-03 2.53742E-02
      600  2.97736E-07 8.26853E-07-2.58489E-05 0.00000E+00 0.00000E+00 0.00000E+00 0.00000E+00 0.00000E+00 0.00000E+00 3.57810E-03 8.73033E-03 2.53742E-02
      603  0.00000E+00 8.44572E-07-2.58489E-05 0.00000E+00 0.00000E+00 0.00000E+00 0.00000E+00 0.00000E+00 0.00000E+00 5.27700E-19 8.61874E-03 2.53742E-02
      604  0.00000E+00 8.88234E-07-2.58489E-05 0.00000E+00 0.00000E+00 0.00000E+00 0.00000E+00 0.00000E+00 0.00000E+00 5.77700E-19 9.43519E-03 2.53742E-02
      638  7.82102E-07 3.87289E-07-2.58489E-05 0.00000E+00 0.00000E+00 0.00000E+00 0.00000E+00 0.00000E+00 0.00000E+00 1.02525E-02 4.16979E-03 2.53742E-02
      639  8.26522E-07 4.03266E-07-2.58489E-05 0.00000E+00 0.00000E+00 0.00000E+00 0.00000E+00 0.00000E+00 0.00000E+00 1.10121E-02 4.46910E-03 2.53742E-02
      641  6.26073E-07 7.22703E-07-2.58489E-05 0.00000E+00 0.00000E+00 0.00000E+00 0.00000E+00 0.00000E+00 0.00000E+00 7.83203E-03 7.82062E-03 2.53742E-02
      642  6.64737E-07 7.60457E-07-2.58489E-05 0.00000E+00 0.00000E+00 0.00000E+00 0.00000E+00 0.00000E+00 0.00000E+00 8.41056E-03 8.39676E-03 2.53742E-02
      644  3.41447E-07 9.23414E-07-2.58489E-05 0.00000E+00 0.00000E+00 0.00000E+00 0.00000E+00 0.00000E+00 0.00000E+00 4.18104E-03 1.02480E-02 2.53742E-02
      645  3.63398E-07 9.75536E-07-2.58489E-05 0.00000E+00 0.00000E+00 0.00000E+00 0.00000E+00 0.00000E+00 0.00000E+00 4.48256E-03 1.10068E-02 2.53742E-02
      647  0.00000E+00 9.85116E-07-2.58489E-05 0.00000E+00 0.00000E+00 0.00000E+00 0.00000E+00 0.00000E+00 0.00000E+00 6.77700E-19 1.10681E-02 2.53742E-02
      648  0.00000E+00 1.04379E-06-2.58489E-05 0.00000E+00 0.00000E+00 0.00000E+00 0.00000E+00 0.00000E+00 0.00000E+00 7.27700E-19 1.18846E-02 2.53742E-02
      674  6.01918E-07 3.16573E-07-2.58489E-05 0.00000E+00 0.00000E+00 0.00000E+00 0.00000E+00 0.00000E+00 0.00000E+00 7.21360E-03 2.97252E-03 2.53742E-02
      676  4.74162E-07 5.75343E-07-2.58489E-05 0.00000E+00 0.00000E+00 0.00000E+00 0.00000E+00 0.00000E+00 0.00000E+00 5.51807E-03 5.51588E-03 2.53742E-02
      678  2.56057E-07 7.45272E-07-2.58489E-05 0.00000E+00 0.00000E+00 0.00000E+00 0.00000E+00 0.00000E+00 0.00000E+00 2.97506E-03 7.21275E-03 2.53742E-02
      680  0.00000E+00 8.20619E-07-2.58489E-05 0.00000E+00 0.00000E+00 0.00000E+00 0.00000E+00 0.00000E+00 0.00000E+00 4.77700E-19 7.80222E-03 2.53742E-02
      821  7.36496E-07 3.70297E-07-2.58489E-05 0.00000E+00 0.00000E+00 0.00000E+00 0.00000E+00 0.00000E+00 0.00000E+00 9.49274E-03 3.87047E-03 2.53742E-02
      822  5.86788E-07 6.84203E-07-2.58489E-05 0.00000E+00 0.00000E+00 0.00000E+00 0.00000E+00 0.00000E+00 0.00000E+00 7.25349E-03 7.24448E-03 2.53742E-02
      823  3.19620E-07 8.74891E-07-2.58489E-05 0.00000E+00 0.00000E+00 0.00000E+00 0.00000E+00 0.00000E+00 0.00000E+00 3.87962E-03 9.48917E-03 2.53742E-02
      824  0.00000E+00 9.36366E-07-2.58489E-05 0.00000E+00 0.00000E+00 0.00000E+00 0.00000E+00 0.00000E+00 0.00000E+00 6.27700E-19 1.02516E-02 2.53742E-02
      850  8.50672E-07 4.18229E-07-2.58489E-05 0.00000E+00 0.00000E+00 0.00000E+00 0.00000E+00 0.00000E+00 0.00000E+00 1.17719E-02 4.76852E-03 2.53742E-02
      852  6.63934E-07 7.83670E-07-2.58489E-05 0.00000E+00 0.00000E+00 0.00000E+00 0.00000E+00 0.00000E+00 0.00000E+00 8.98896E-03 8.97298E-03 2.53742E-02
      854  3.78592E-07 1.06854E-06-2.58489E-05 0.00000E+00 0.00000E+00 0.00000E+00 0.00000E+00 0.00000E+00 0.00000E+00 4.78408E-03 1.17657E-02 2.53742E-02
      856  0.00000E+00 1.18151E-06-2.58489E-05 0.00000E+00 0.00000E+00 0.00000E+00 0.00000E+00 0.00000E+00 0.00000E+00 7.77700E-19 1.27012E-02 2.53742E-02



 n o d a l   p r i n t   o u t   f o r   t i m e  s t e p      66                              ( at time 2.5483898E+00 )

 nodal point  x-disp     y-disp      z-disp      x-vel       y-vel       z-vel      x-accl      y-accl      z-accl      x-coor      y-coor      z-coor
        1  1.86860E-05 0.00000E+00 0.00000E+00 0.00000E+00 0.00000E+00 0.00000E+00 0.00000E+00 0.00000E+00 0.00000E+00 3.19369E-03 0.00000E+00-1.78000E-18
        2  1.30036E-05 0.00000E+00 0.00000E+00 0.00000E+00 0.00000E+00 0.00000E+00 0.00000E+00 0.00000E+00 0.00000E+00 2.39430E-03 0.00000E+00 0.00000E+00
        3  8.15940E-06 0.00000E+00 0.00000E+00 0.00000E+00 0.00000E+00 0.00000E+00 0.00000E+00 0.00000E+00 0.00000E+00 1.59566E-03 0.00000E+00 0.00000E+00
        4  3.51758E-06 0.00000E+00 0.00000E+00 0.00000E+00 0.00000E+00 0.00000E+00 0.00000E+00 0.00000E+00 0.00000E+00 7.97268E-04 0.00000E+00 0.00000E+00
        5  0.00000E+00 0.00000E+00 0.00000E+00 0.00000E+00 0.00000E+00 0.00000E+00 0.00000E+00 0.00000E+00 0.00000E+00 0.00000E+00 0.00000E+00 0.00000E+00
        6  0.00000E+00 1.04154E-05 0.00000E+00 0.00000E+00 0.00000E+00 0.00000E+00 0.00000E+00 0.00000E+00 0.00000E+00 4.86000E-20 8.04165E-04 0.00000E+00
        7  0.00000E+00 2.09872E-05 0.00000E+00 0.00000E+00 0.00000E+00 0.00000E+00 0.00000E+00 0.00000E+00 0.00000E+00 9.72100E-20 1.60849E-03 0.00000E+00
        8  0.00000E+00 3.05122E-05 0.00000E+00 0.00000E+00 0.00000E+00 0.00000E+00 0.00000E+00 0.00000E+00 0.00000E+00 1.45800E-19 2.41181E-03 0.00000E+00
        9  0.00000E+00 3.55726E-05 0.00000E+00 0.00000E+00 0.00000E+00 0.00000E+00 0.00000E+00 0.00000E+00 0.00000E+00 1.94400E-19 3.21057E-03 0.00000E+00
       10  6.67060E-06 2.94880E-05 0.00000E+00 0.00000E+00 0.00000E+00 0.00000E+00 0.00000E+00 0.00000E+00 0.00000E+00 1.22167E-03 2.96279E-03 0.00000E+00
       11  1.09230E-05 2.05443E-05 0.00000E+00 0.00000E+00 0.00000E+00 0.00000E+00 0.00000E+00 0.00000E+00 0.00000E+00 2.25602E-03 2.26564E-03 0.00000E+00
       12  1.69591E-05 1.14521E-05 0.00000E+00 0.00000E+00 0.00000E+00 0.00000E+00 0.00000E+00 0.00000E+00 0.00000E+00 2.95026E-03 1.22645E-03 0.00000E+00
       13  7.16420E-06 1.44120E-05 0.00000E+00 0.00000E+00 0.00000E+00 0.00000E+00 0.00000E+00 0.00000E+00 0.00000E+00 1.31546E-03 1.36631E-03 0.00000E+00
       14  7.79851E-06 6.85060E-06 0.00000E+00 0.00000E+00 0.00000E+00 0.00000E+00 0.00000E+00 0.00000E+00 0.00000E+00 1.49610E-03 7.13827E-04 0.00000E+00
       15  2.63022E-06 1.70117E-05 0.00000E+00 0.00000E+00 0.00000E+00 0.00000E+00 0.00000E+00 0.00000E+00 0.00000E+00 6.72141E-04 1.52401E-03 0.00000E+00
       16  4.12955E-06 9.68999E-06 0.00000E+00 0.00000E+00 0.00000E+00 0.00000E+00 0.00000E+00 0.00000E+00 0.00000E+00 7.57767E-04 7.92027E-04 0.00000E+00
       17  1.03608E-05 1.82697E-05 0.00000E+00 0.00000E+00 0.00000E+00 0.00000E+00 0.00000E+00 0.00000E+00 0.00000E+00 1.74666E-03 1.78577E-03 0.00000E+00
       18  5.20755E-06 2.36448E-05 0.00000E+00 0.00000E+00 0.00000E+00 0.00000E+00 0.00000E+00 0.00000E+00 0.00000E+00 9.25338E-04 2.21474E-03 0.00000E+00
       19  1.14067E-05 9.65487E-06 0.00000E+00 0.00000E+00 0.00000E+00 0.00000E+00 0.00000E+00 0.00000E+00 0.00000E+00 2.17471E-03 9.60513E-04 0.00000E+00
       26  9.82235E-06 4.31505E-06-2.54687E-05 0.00000E+00 0.00000E+00 0.00000E+00 0.00000E+00 0.00000E+00 0.00000E+00 3.16012E-03 1.31592E-03 1.86183E-03
       27  7.10390E-06 7.74590E-06-2.47717E-05 0.00000E+00 0.00000E+00 0.00000E+00 0.00000E+00 0.00000E+00 0.00000E+00 2.42760E-03 2.43135E-03 1.91223E-03
       54  4.29080E-06 1.13410E-05-2.44440E-05 0.00000E+00 0.00000E+00 0.00000E+00 0.00000E+00 0.00000E+00 0.00000E+00 1.31189E-03 3.16614E-03 1.87316E-03
      127  1.13352E-05 0.00000E+00-2.57485E-05 0.00000E+00 0.00000E+00 0.00000E+00 0.00000E+00 0.00000E+00 0.00000E+00 3.39794E-03 0.00000E+00 1.75745E-03
      165  0.00000E+00 1.59413E-05-2.37134E-05 0.00000E+00 0.00000E+00 0.00000E+00 0.00000E+00 0.00000E+00 0.00000E+00 2.39400E-19 3.40264E-03 1.76019E-03
      220  0.00000E+00 1.17482E-06-5.09678E-05 0.00000E+00 0.00000E+00 0.00000E+00 0.00000E+00 0.00000E+00 0.00000E+00 2.13900E-19 3.49367E-03 2.53490E-02
      221  2.77231E-07 9.11974E-07-5.09678E-05 0.00000E+00 0.00000E+00 0.00000E+00 0.00000E+00 0.00000E+00 0.00000E+00 1.47278E-03 3.31531E-03 2.53490E-02
      222  2.86952E-07 1.11695E-06-5.09678E-05 0.00000E+00 0.00000E+00 0.00000E+00 0.00000E+00 0.00000E+00 0.00000E+00 2.02409E-03 4.82032E-03 2.53490E-02
      223  0.00000E+00 1.61018E-06-5.09678E-05 0.00000E+00 0.00000E+00 0.00000E+00 0.00000E+00 0.00000E+00 0.00000E+00 3.20800E-19 5.24041E-03 2.53490E-02
      248  4.80942E-07 1.53904E-06-5.09678E-05 0.00000E+00 0.00000E+00 0.00000E+00 0.00000E+00 0.00000E+00 0.00000E+00 2.67388E-03 6.45474E-03 2.53490E-02
      249  0.00000E+00 2.08773E-06-5.09678E-05 0.00000E+00 0.00000E+00 0.00000E+00 0.00000E+00 0.00000E+00 0.00000E+00 4.27700E-19 6.98709E-03 2.53490E-02
      286  3.18620E-07 1.44786E-08-5.09678E-05 0.00000E+00 0.00000E+00 0.00000E+00 0.00000E+00 0.00000E+00 0.00000E+00 3.27362E-03 1.55481E-03 2.53490E-02
      287  4.11993E-07 8.11133E-07-5.09678E-05 0.00000E+00 0.00000E+00 0.00000E+00 0.00000E+00 0.00000E+00 0.00000E+00 2.87811E-03 2.97421E-03 2.53490E-02
      288  2.02201E-07 5.37354E-08-5.09678E-05 0.00000E+00 0.00000E+00 0.00000E+00 0.00000E+00 0.00000E+00 0.00000E+00 1.65790E-03 1.72085E-03 2.53490E-02
      301  4.27906E-07 1.01670E-06-5.09678E-05 0.00000E+00 0.00000E+00 0.00000E+00 0.00000E+00 0.00000E+00 0.00000E+00 3.81973E-03 3.88872E-03 2.53490E-02
      314  5.76078E-07 1.21409E-06-5.09678E-05 0.00000E+00 0.00000E+00 0.00000E+00 0.00000E+00 0.00000E+00 0.00000E+00 4.93968E-03 4.94031E-03 2.53490E-02
      363  4.67723E-07 8.29001E-07-5.09678E-05 0.00000E+00 0.00000E+00 0.00000E+00 0.00000E+00 0.00000E+00 0.00000E+00 6.45387E-03 2.67373E-03 2.53490E-02
      364  2.85600E-07 6.99977E-07-5.09678E-05 0.00000E+00 0.00000E+00 0.00000E+00 0.00000E+00 0.00000E+00 0.00000E+00 4.75839E-03 2.09190E-03 2.53490E-02
      365  9.19832E-08 0.00000E+00-5.09678E-05 0.00000E+00 0.00000E+00 0.00000E+00 0.00000E+00 0.00000E+00 0.00000E+00 5.23889E-03 0.00000E+00 2.53490E-02
      366  2.26703E-07 0.00000E+00-5.09678E-05 0.00000E+00 0.00000E+00 0.00000E+00 0.00000E+00 0.00000E+00 0.00000E+00 6.98523E-03 0.00000E+00 2.53490E-02
      379  0.00000E+00-9.87037E-08-5.09678E-05 0.00000E+00 0.00000E+00 0.00000E+00 0.00000E+00 0.00000E+00 0.00000E+00 1.06900E-19 1.74620E-03 2.53490E-02
      404  1.17108E-07 0.00000E+00-5.09678E-05 0.00000E+00 0.00000E+00 0.00000E+00 0.00000E+00 0.00000E+00 0.00000E+00 1.74642E-03 0.00000E+00 2.53490E-02
      405  0.00000E+00 0.00000E+00-5.09678E-05 0.00000E+00 0.00000E+00 0.00000E+00 0.00000E+00 0.00000E+00 0.00000E+00 0.00000E+00 0.00000E+00 2.53490E-02
      418 -1.04894E-07 0.00000E+00-5.09678E-05 0.00000E+00 0.00000E+00 0.00000E+00 0.00000E+00 0.00000E+00 0.00000E+00 3.49240E-03 0.00000E+00 2.53490E-02
      438 -4.61772E-08 0.00000E+00-5.09678E-05 0.00000E+00 0.00000E+00 0.00000E+00 0.00000E+00 0.00000E+00 0.00000E+00 1.27000E-02 0.00000E+00 2.53490E-02
      439  1.47283E-07 0.00000E+00-5.09678E-05 0.00000E+00 0.00000E+00 0.00000E+00 0.00000E+00 0.00000E+00 0.00000E+00 1.18837E-02 0.00000E+00 2.53490E-02
      440  1.80426E-07 0.00000E+00-5.09678E-05 0.00000E+00 0.00000E+00 0.00000E+00 0.00000E+00 0.00000E+00 0.00000E+00 1.10673E-02 0.00000E+00 2.53490E-02
      441  1.86290E-07 0.00000E+00-5.09678E-05 0.00000E+00 0.00000E+00 0.00000E+00 0.00000E+00 0.00000E+00 0.00000E+00 1.02509E-02 0.00000E+00 2.53490E-02
      442  1.63042E-07 0.00000E+00-5.09678E-05 0.00000E+00 0.00000E+00 0.00000E+00 0.00000E+00 0.00000E+00 0.00000E+00 9.43446E-03 0.00000E+00 2.53490E-02
      443  1.43670E-07 0.00000E+00-5.09678E-05 0.00000E+00 0.00000E+00 0.00000E+00 0.00000E+00 0.00000E+00 0.00000E+00 8.61804E-03 0.00000E+00 2.53490E-02
      444  1.63595E-07 0.00000E+00-5.09678E-05 0.00000E+00 0.00000E+00 0.00000E+00 0.00000E+00 0.00000E+00 0.00000E+00 7.80156E-03 0.00000E+00 2.53490E-02
      591  4.75975E-07 9.63619E-07-5.09678E-05 0.00000E+00 0.00000E+00 0.00000E+00 0.00000E+00 0.00000E+00 0.00000E+00 7.97318E-03 3.27246E-03 2.53490E-02
      592  5.47149E-07 1.00901E-06-5.09678E-05 0.00000E+00 0.00000E+00 0.00000E+00 0.00000E+00 0.00000E+00 0.00000E+00 8.73285E-03 3.57181E-03 2.53490E-02
      595  5.34923E-07 1.13261E-06-5.09678E-05 0.00000E+00 0.00000E+00 0.00000E+00 0.00000E+00 0.00000E+00 0.00000E+00 6.09653E-03 6.09263E-03 2.53490E-02
      596  5.71025E-07 1.03991E-06-5.09678E-05 0.00000E+00 0.00000E+00 0.00000E+00 0.00000E+00 0.00000E+00 0.00000E+00 6.67507E-03 6.66864E-03 2.53490E-02
      599  4.43294E-07 1.53476E-06-5.09678E-05 0.00000E+00 0.00000E+00 0.00000E+00 0.00000E+00 0.00000E+00 0.00000E+00 3.27674E-03 7.97223E-03 2.53490E-02
      600  4.39164E-07 1.47392E-06-5.09678E-05 0.00000E+00 0.00000E+00 0.00000E+00 0.00000E+00 0.00000E+00 0.00000E+00 3.57824E-03 8.73097E-03 2.53490E-02
      603  0.00000E+00 2.45669E-06-5.09678E-05 0.00000E+00 0.00000E+00 0.00000E+00 0.00000E+00 0.00000E+00 0.00000E+00 5.27700E-19 8.62036E-03 2.53490E-02
      604  0.00000E+00 2.37336E-06-5.09678E-05 0.00000E+00 0.00000E+00 0.00000E+00 0.00000E+00 0.00000E+00 0.00000E+00 5.77700E-19 9.43667E-03 2.53490E-02
      638  6.56451E-07 1.01388E-06-5.09678E-05 0.00000E+00 0.00000E+00 0.00000E+00 0.00000E+00 0.00000E+00 0.00000E+00 1.02524E-02 4.17041E-03 2.53490E-02
      639  6.16585E-07 9.46350E-07-5.09678E-05 0.00000E+00 0.00000E+00 0.00000E+00 0.00000E+00 0.00000E+00 0.00000E+00 1.10119E-02 4.46965E-03 2.53490E-02
      641  6.96315E-07 9.79971E-07-5.09678E-05 0.00000E+00 0.00000E+00 0.00000E+00 0.00000E+00 0.00000E+00 0.00000E+00 7.83210E-03 7.82088E-03 2.53490E-02
      642  9.12864E-07 1.11881E-06-5.09678E-05 0.00000E+00 0.00000E+00 0.00000E+00 0.00000E+00 0.00000E+00 0.00000E+00 8.41081E-03 8.39712E-03 2.53490E-02
      644  4.30162E-07 1.35271E-06-5.09678E-05 0.00000E+00 0.00000E+00 0.00000E+00 0.00000E+00 0.00000E+00 0.00000E+00 4.18113E-03 1.02485E-02 2.53490E-02
      645  1.91930E-07 1.15537E-06-5.09678E-05 0.00000E+00 0.00000E+00 0.00000E+00 0.00000E+00 0.00000E+00 0.00000E+00 4.48239E-03 1.10070E-02 2.53490E-02
      647  0.00000E+00 2.26268E-06-5.09678E-05 0.00000E+00 0.00000E+00 0.00000E+00 0.00000E+00 0.00000E+00 0.00000E+00 6.77700E-19 1.10694E-02 2.53490E-02
      648  0.00000E+00 2.53804E-06-5.09678E-05 0.00000E+00 0.00000E+00 0.00000E+00 0.00000E+00 0.00000E+00 0.00000E+00 7.27700E-19 1.18861E-02 2.53490E-02
      674  4.20560E-07 8.54343E-07-5.09678E-05 0.00000E+00 0.00000E+00 0.00000E+00 0.00000E+00 0.00000E+00 0.00000E+00 7.21342E-03 2.97305E-03 2.53490E-02
      676  5.46651E-07 1.21054E-06-5.09678E-05 0.00000E+00 0.00000E+00 0.00000E+00 0.00000E+00 0.00000E+00 0.00000E+00 5.51815E-03 5.51651E-03 2.53490E-02
      678  4.29504E-07 1.56768E-06-5.09678E-05 0.00000E+00 0.00000E+00 0.00000E+00 0.00000E+00 0.00000E+00 0.00000E+00 2.97523E-03 7.21357E-03 2.53490E-02
      680  0.00000E+00 2.35563E-06-5.09678E-05 0.00000E+00 0.00000E+00 0.00000E+00 0.00000E+00 0.00000E+00 0.00000E+00 4.77700E-19 7.80376E-03 2.53490E-02
      821  5.99009E-07 1.02103E-06-5.09678E-05 0.00000E+00 0.00000E+00 0.00000E+00 0.00000E+00 0.00000E+00 0.00000E+00 9.49260E-03 3.87112E-03 2.53490E-02
      822  6.35686E-07 9.90985E-07-5.09678E-05 0.00000E+00 0.00000E+00 0.00000E+00 0.00000E+00 0.00000E+00 0.00000E+00 7.25354E-03 7.24479E-03 2.53490E-02
      823  4.45863E-07 1.41234E-06-5.09678E-05 0.00000E+00 0.00000E+00 0.00000E+00 0.00000E+00 0.00000E+00 0.00000E+00 3.87975E-03 9.48971E-03 2.53490E-02
      824  0.00000E+00 2.26190E-06-5.09678E-05 0.00000E+00 0.00000E+00 0.00000E+00 0.00000E+00 0.00000E+00 0.00000E+00 6.27700E-19 1.02530E-02 2.53490E-02
      850  3.50746E-07 8.30353E-07-5.09678E-05 0.00000E+00 0.00000E+00 0.00000E+00 0.00000E+00 0.00000E+00 0.00000E+00 1.17714E-02 4.76893E-03 2.53490E-02
      852  3.27507E-07 9.29701E-07-5.09678E-05 0.00000E+00 0.00000E+00 0.00000E+00 0.00000E+00 0.00000E+00 0.00000E+00 8.98863E-03 8.97313E-03 2.53490E-02
      854  2.04253E-07 1.58956E-06-5.09678E-05 0.00000E+00 0.00000E+00 0.00000E+00 0.00000E+00 0.00000E+00 0.00000E+00 4.78390E-03 1.17662E-02 2.53490E-02
      856  0.00000E+00 3.49497E-06-5.09678E-05 0.00000E+00 0.00000E+00 0.00000E+00 0.00000E+00 0.00000E+00 0.00000E+00 7.77700E-19 1.27035E-02 2.53490E-02



 n o d a l   p r i n t   o u t   f o r   t i m e  s t e p     443                              ( at time 3.1327312E+00 )

 nodal point  x-disp     y-disp      z-disp      x-vel       y-vel       z-vel      x-accl      y-accl      z-accl      x-coor      y-coor      z-coor
        1  3.29830E-05 0.00000E+00 0.00000E+00 0.00000E+00 0.00000E+00 0.00000E+00 0.00000E+00 0.00000E+00 0.00000E+00 3.20798E-03 0.00000E+00-1.78000E-18
        2  2.15025E-05 0.00000E+00 0.00000E+00 0.00000E+00 0.00000E+00 0.00000E+00 0.00000E+00 0.00000E+00 0.00000E+00 2.40280E-03 0.00000E+00 0.00000E+00
        3  1.25296E-05 0.00000E+00 0.00000E+00 0.00000E+00 0.00000E+00 0.00000E+00 0.00000E+00 0.00000E+00 0.00000E+00 1.60003E-03 0.00000E+00 0.00000E+00
        4  6.31423E-06 0.00000E+00 0.00000E+00 0.00000E+00 0.00000E+00 0.00000E+00 0.00000E+00 0.00000E+00 0.00000E+00 8.00064E-04 0.00000E+00 0.00000E+00
        5  0.00000E+00 0.00000E+00 0.00000E+00 0.00000E+00 0.00000E+00 0.00000E+00 0.00000E+00 0.00000E+00 0.00000E+00 0.00000E+00 0.00000E+00 0.00000E+00
        6  0.00000E+00 1.30422E-05 0.00000E+00 0.00000E+00 0.00000E+00 0.00000E+00 0.00000E+00 0.00000E+00 0.00000E+00 4.86000E-20 8.06792E-04 0.00000E+00
        7  0.00000E+00 2.79361E-05 0.00000E+00 0.00000E+00 0.00000E+00 0.00000E+00 0.00000E+00 0.00000E+00 0.00000E+00 9.72100E-20 1.61544E-03 0.00000E+00
        8  0.00000E+00 5.28291E-05 0.00000E+00 0.00000E+00 0.00000E+00 0.00000E+00 0.00000E+00 0.00000E+00 0.00000E+00 1.45800E-19 2.43413E-03 0.00000E+00
        9  0.00000E+00 7.51381E-05 0.00000E+00 0.00000E+00 0.00000E+00 0.00000E+00 0.00000E+00 0.00000E+00 0.00000E+00 1.94400E-19 3.25014E-03 0.00000E+00
       10  1.54803E-05 5.18991E-05 0.00000E+00 0.00000E+00 0.00000E+00 0.00000E+00 0.00000E+00 0.00000E+00 0.00000E+00 1.23048E-03 2.98520E-03 0.00000E+00
       11  2.30814E-05 3.18121E-05 0.00000E+00 0.00000E+00 0.00000E+00 0.00000E+00 0.00000E+00 0.00000E+00 0.00000E+00 2.26818E-03 2.27691E-03 0.00000E+00
       12  3.21778E-05 2.11763E-05 0.00000E+00 0.00000E+00 0.00000E+00 0.00000E+00 0.00000E+00 0.00000E+00 0.00000E+00 2.96548E-03 1.23618E-03 0.00000E+00
       13  1.16114E-05 1.96306E-05 0.00000E+00 0.00000E+00 0.00000E+00 0.00000E+00 0.00000E+00 0.00000E+00 0.00000E+00 1.31991E-03 1.37153E-03 0.00000E+00
       14  1.26236E-05 8.75955E-06 0.00000E+00 0.00000E+00 0.00000E+00 0.00000E+00 0.00000E+00 0.00000E+00 0.00000E+00 1.50092E-03 7.15736E-04 0.00000E+00
       15  5.17271E-06 2.18593E-05 0.00000E+00 0.00000E+00 0.00000E+00 0.00000E+00 0.00000E+00 0.00000E+00 0.00000E+00 6.74683E-04 1.52886E-03 0.00000E+00
       16  6.88246E-06 1.20960E-05 0.00000E+00 0.00000E+00 0.00000E+00 0.00000E+00 0.00000E+00 0.00000E+00 0.00000E+00 7.60520E-04 7.94433E-04 0.00000E+00
       17  1.73787E-05 2.70204E-05 0.00000E+00 0.00000E+00 0.00000E+00 0.00000E+00 0.00000E+00 0.00000E+00 0.00000E+00 1.75368E-03 1.79452E-03 0.00000E+00
       18  1.09142E-05 3.18897E-05 0.00000E+00 0.00000E+00 0.00000E+00 0.00000E+00 0.00000E+00 0.00000E+00 0.00000E+00 9.31045E-04 2.22299E-03 0.00000E+00
       19  1.88778E-05 1.52237E-05 0.00000E+00 0.00000E+00 0.00000E+00 0.00000E+00 0.00000E+00 0.00000E+00 0.00000E+00 2.18218E-03 9.66082E-04 0.00000E+00
       26  1.60357E-05 6.28368E-06-3.65134E-05 0.00000E+00 0.00000E+00 0.00000E+00 0.00000E+00 0.00000E+00 0.00000E+00 3.16634E-03 1.31788E-03 1.85079E-03
       27  1.07449E-05 1.12694E-05-3.59257E-05 0.00000E+00 0.00000E+00 0.00000E+00 0.00000E+00 0.00000E+00 0.00000E+00 2.43124E-03 2.43487E-03 1.90107E-03
       54  5.99057E-06 1.50539E-05-3.65219E-05 0.00000E+00 0.00000E+00 0.00000E+00 0.00000E+00 0.00000E+00 0.00000E+00 1.31359E-03 3.16985E-03 1.86108E-03
      127  1.78579E-05 0.00000E+00-3.73869E-05 0.00000E+00 0.00000E+00 0.00000E+00 0.00000E+00 0.00000E+00 0.00000E+00 3.40446E-03 0.00000E+00 1.74581E-03
      165  0.00000E+00 2.17439E-05-3.78559E-05 0.00000E+00 0.00000E+00 0.00000E+00 0.00000E+00 0.00000E+00 0.00000E+00 2.39400E-19 3.40844E-03 1.74604E-03
      220  0.00000E+00 1.52111E-06-6.26546E-05 0.00000E+00 0.00000E+00 0.00000E+00 0.00000E+00 0.00000E+00 0.00000E+00 2.13900E-19 3.49402E-03 2.53373E-02
      221  8.51078E-08 9.42796E-07-6.26546E-05 0.00000E+00 0.00000E+00 0.00000E+00 0.00000E+00 0.00000E+00 0.00000E+00 1.47259E-03 3.31534E-03 2.53373E-02
      222  7.59235E-09 1.03824E-06-6.26546E-05 0.00000E+00 0.00000E+00 0.00000E+00 0.00000E+00 0.00000E+00 0.00000E+00 2.02381E-03 4.82024E-03 2.53373E-02
      223  0.00000E+00 2.44491E-06-6.26546E-05 0.00000E+00 0.00000E+00 0.00000E+00 0.00000E+00 0.00000E+00 0.00000E+00 3.20800E-19 5.24124E-03 2.53373E-02
      248  1.11224E-07 1.16596E-06-6.26546E-05 0.00000E+00 0.00000E+00 0.00000E+00 0.00000E+00 0.00000E+00 0.00000E+00 2.67351E-03 6.45437E-03 2.53373E-02
      249  0.00000E+00 2.90839E-06-6.26546E-05 0.00000E+00 0.00000E+00 0.00000E+00 0.00000E+00 0.00000E+00 0.00000E+00 4.27700E-19 6.98791E-03 2.53373E-02
      286 -1.01381E-07 9.44538E-07-6.26546E-05 0.00000E+00 0.00000E+00 0.00000E+00 0.00000E+00 0.00000E+00 0.00000E+00 3.27320E-03 1.55574E-03 2.53373E-02
      287  2.00697E-07 7.73123E-07-6.26546E-05 0.00000E+00 0.00000E+00 0.00000E+00 0.00000E+00 0.00000E+00 0.00000E+00 2.87790E-03 2.97417E-03 2.53373E-02
      288 -1.36440E-07 1.01057E-06-6.26546E-05 0.00000E+00 0.00000E+00 0.00000E+00 0.00000E+00 0.00000E+00 0.00000E+00 1.65756E-03 1.72181E-03 2.53373E-02
      301  1.00960E-07 1.20277E-06-6.26546E-05 0.00000E+00 0.00000E+00 0.00000E+00 0.00000E+00 0.00000E+00 0.00000E+00 3.81940E-03 3.88890E-03 2.53373E-02
      314  4.41492E-07 1.35559E-06-6.26546E-05 0.00000E+00 0.00000E+00 0.00000E+00 0.00000E+00 0.00000E+00 0.00000E+00 4.93954E-03 4.94046E-03 2.53373E-02
      363  1.47957E-07 1.23769E-06-6.26546E-05 0.00000E+00 0.00000E+00 0.00000E+00 0.00000E+00 0.00000E+00 0.00000E+00 6.45355E-03 2.67414E-03 2.53373E-02
      364 -1.46240E-07 1.39748E-06-6.26546E-05 0.00000E+00 0.00000E+00 0.00000E+00 0.00000E+00 0.00000E+00 0.00000E+00 4.75795E-03 2.09260E-03 2.53373E-02
      365  1.33143E-06 0.00000E+00-6.26546E-05 0.00000E+00 0.00000E+00 0.00000E+00 0.00000E+00 0.00000E+00 0.00000E+00 5.24013E-03 0.00000E+00 2.53373E-02
      366  1.01651E-06 0.00000E+00-6.26546E-05 0.00000E+00 0.00000E+00 0.00000E+00 0.00000E+00 0.00000E+00 0.00000E+00 6.98602E-03 0.00000E+00 2.53373E-02
      379  0.00000E+00 1.04273E-06-6.26546E-05 0.00000E+00 0.00000E+00 0.00000E+00 0.00000E+00 0.00000E+00 0.00000E+00 1.06900E-19 1.74734E-03 2.53373E-02
      404  1.16894E-06 0.00000E+00-6.26546E-05 0.00000E+00 0.00000E+00 0.00000E+00 0.00000E+00 0.00000E+00 0.00000E+00 1.74747E-03 0.00000E+00 2.53373E-02
      405  0.00000E+00 0.00000E+00-6.26546E-05 0.00000E+00 0.00000E+00 0.00000E+00 0.00000E+00 0.00000E+00 0.00000E+00 0.00000E+00 0.00000E+00 2.53373E-02
      418  1.80520E-06 0.00000E+00-6.26546E-05 0.00000E+00 0.00000E+00 0.00000E+00 0.00000E+00 0.00000E+00 0.00000E+00 3.49431E-03 0.00000E+00 2.53373E-02
      438  1.98994E-07 0.00000E+00-6.26546E-05 0.00000E+00 0.00000E+00 0.00000E+00 0.00000E+00 0.00000E+00 0.00000E+00 1.27002E-02 0.00000E+00 2.53373E-02
      439  3.04335E-07 0.00000E+00-6.26546E-05 0.00000E+00 0.00000E+00 0.00000E+00 0.00000E+00 0.00000E+00 0.00000E+00 1.18839E-02 0.00000E+00 2.53373E-02
      440  3.37315E-07 0.00000E+00-6.26546E-05 0.00000E+00 0.00000E+00 0.00000E+00 0.00000E+00 0.00000E+00 0.00000E+00 1.10674E-02 0.00000E+00 2.53373E-02
      441  3.51504E-07 0.00000E+00-6.26546E-05 0.00000E+00 0.00000E+00 0.00000E+00 0.00000E+00 0.00000E+00 0.00000E+00 1.02511E-02 0.00000E+00 2.53373E-02
      442  3.77251E-07 0.00000E+00-6.26546E-05 0.00000E+00 0.00000E+00 0.00000E+00 0.00000E+00 0.00000E+00 0.00000E+00 9.43468E-03 0.00000E+00 2.53373E-02
      443  4.41412E-07 0.00000E+00-6.26546E-05 0.00000E+00 0.00000E+00 0.00000E+00 0.00000E+00 0.00000E+00 0.00000E+00 8.61834E-03 0.00000E+00 2.53373E-02
      444  5.61095E-07 0.00000E+00-6.26546E-05 0.00000E+00 0.00000E+00 0.00000E+00 0.00000E+00 0.00000E+00 0.00000E+00 7.80196E-03 0.00000E+00 2.53373E-02
      591  4.02439E-07 1.31951E-06-6.26546E-05 0.00000E+00 0.00000E+00 0.00000E+00 0.00000E+00 0.00000E+00 0.00000E+00 7.97310E-03 3.27282E-03 2.53373E-02
      592  4.45738E-07 1.31024E-06-6.26546E-05 0.00000E+00 0.00000E+00 0.00000E+00 0.00000E+00 0.00000E+00 0.00000E+00 8.73275E-03 3.57211E-03 2.53373E-02
      595  4.51304E-07 1.19794E-06-6.26546E-05 0.00000E+00 0.00000E+00 0.00000E+00 0.00000E+00 0.00000E+00 0.00000E+00 6.09645E-03 6.09270E-03 2.53373E-02
      596  5.11785E-07 1.15017E-06-6.26546E-05 0.00000E+00 0.00000E+00 0.00000E+00 0.00000E+00 0.00000E+00 0.00000E+00 6.67501E-03 6.66875E-03 2.53373E-02
      599  2.80479E-07 1.29474E-06-6.26546E-05 0.00000E+00 0.00000E+00 0.00000E+00 0.00000E+00 0.00000E+00 0.00000E+00 3.27658E-03 7.97199E-03 2.53373E-02
      600  3.34773E-07 1.32481E-06-6.26546E-05 0.00000E+00 0.00000E+00 0.00000E+00 0.00000E+00 0.00000E+00 0.00000E+00 3.57813E-03 8.73082E-03 2.53373E-02
      603  0.00000E+00 2.22722E-06-6.26546E-05 0.00000E+00 0.00000E+00 0.00000E+00 0.00000E+00 0.00000E+00 0.00000E+00 5.27700E-19 8.62013E-03 2.53373E-02
      604  0.00000E+00 1.96675E-06-6.26546E-05 0.00000E+00 0.00000E+00 0.00000E+00 0.00000E+00 0.00000E+00 0.00000E+00 5.77700E-19 9.43627E-03 2.53373E-02
      638  5.20844E-07 1.28888E-06-6.26546E-05 0.00000E+00 0.00000E+00 0.00000E+00 0.00000E+00 0.00000E+00 0.00000E+00 1.02522E-02 4.17069E-03 2.53373E-02
      639  5.30920E-07 1.25035E-06-6.26546E-05 0.00000E+00 0.00000E+00 0.00000E+00 0.00000E+00 0.00000E+00 0.00000E+00 1.10118E-02 4.46995E-03 2.53373E-02
      641  6.68281E-07 1.12755E-06-6.26546E-05 0.00000E+00 0.00000E+00 0.00000E+00 0.00000E+00 0.00000E+00 0.00000E+00 7.83207E-03 7.82103E-03 2.53373E-02
      642  7.36191E-07 1.14591E-06-6.26546E-05 0.00000E+00 0.00000E+00 0.00000E+00 0.00000E+00 0.00000E+00 0.00000E+00 8.41064E-03 8.39715E-03 2.53373E-02
      644  3.45053E-07 1.18171E-06-6.26546E-05 0.00000E+00 0.00000E+00 0.00000E+00 0.00000E+00 0.00000E+00 0.00000E+00 4.18105E-03 1.02483E-02 2.53373E-02
      645  2.76484E-07 1.22514E-06-6.26546E-05 0.00000E+00 0.00000E+00 0.00000E+00 0.00000E+00 0.00000E+00 0.00000E+00 4.48248E-03 1.10070E-02 2.53373E-02
      647  0.00000E+00 1.85723E-06-6.26546E-05 0.00000E+00 0.00000E+00 0.00000E+00 0.00000E+00 0.00000E+00 0.00000E+00 6.77700E-19 1.10690E-02 2.53373E-02
      648  0.00000E+00 1.78397E-06-6.26546E-05 0.00000E+00 0.00000E+00 0.00000E+00 0.00000E+00 0.00000E+00 0.00000E+00 7.27700E-19 1.18854E-02 2.53373E-02
      674  3.47726E-07 1.33070E-06-6.26546E-05 0.00000E+00 0.00000E+00 0.00000E+00 0.00000E+00 0.00000E+00 0.00000E+00 7.21335E-03 2.97353E-03 2.53373E-02
      676  3.80608E-07 1.22993E-06-6.26546E-05 0.00000E+00 0.00000E+00 0.00000E+00 0.00000E+00 0.00000E+00 0.00000E+00 5.51798E-03 5.51653E-03 2.53373E-02
      678  1.98784E-07 1.27910E-06-6.26546E-05 0.00000E+00 0.00000E+00 0.00000E+00 0.00000E+00 0.00000E+00 0.00000E+00 2.97500E-03 7.21328E-03 2.53373E-02
      680  0.00000E+00 2.52536E-06-6.26546E-05 0.00000E+00 0.00000E+00 0.00000E+00 0.00000E+00 0.00000E+00 0.00000E+00 4.77700E-19 7.80393E-03 2.53373E-02
      821  4.89292E-07 1.30295E-06-6.26546E-05 0.00000E+00 0.00000E+00 0.00000E+00 0.00000E+00 0.00000E+00 0.00000E+00 9.49249E-03 3.87140E-03 2.53373E-02
      822  5.73350E-07 1.11553E-06-6.26546E-05 0.00000E+00 0.00000E+00 0.00000E+00 0.00000E+00 0.00000E+00 0.00000E+00 7.25347E-03 7.24492E-03 2.53373E-02
      823  3.62805E-07 1.28500E-06-6.26546E-05 0.00000E+00 0.00000E+00 0.00000E+00 0.00000E+00 0.00000E+00 0.00000E+00 3.87966E-03 9.48958E-03 2.53373E-02
      824  0.00000E+00 1.86020E-06-6.26546E-05 0.00000E+00 0.00000E+00 0.00000E+00 0.00000E+00 0.00000E+00 0.00000E+00 6.27700E-19 1.02526E-02 2.53373E-02
      850  3.83343E-07 1.11821E-06-6.26546E-05 0.00000E+00 0.00000E+00 0.00000E+00 0.00000E+00 0.00000E+00 0.00000E+00 1.17714E-02 4.76922E-03 2.53373E-02
      852  4.41510E-07 1.04795E-06-6.26546E-05 0.00000E+00 0.00000E+00 0.00000E+00 0.00000E+00 0.00000E+00 0.00000E+00 8.98874E-03 8.97325E-03 2.53373E-02
      854  3.88707E-07 1.49883E-06-6.26546E-05 0.00000E+00 0.00000E+00 0.00000E+00 0.00000E+00 0.00000E+00 0.00000E+00 4.78409E-03 1.17661E-02 2.53373E-02
      856  0.00000E+00 2.01980E-06-6.26546E-05 0.00000E+00 0.00000E+00 0.00000E+00 0.00000E+00 0.00000E+00 0.00000E+00 7.77700E-19 1.27020E-02 2.53373E-02



 n o d a l   p r i n t   o u t   f o r   t i m e  s t e p     457                              ( at time 4.3296902E+00 )

 nodal point  x-disp     y-disp      z-disp      x-vel       y-vel       z-vel      x-accl      y-accl      z-accl      x-coor      y-coor      z-coor
        1  6.20692E-05 0.00000E+00 0.00000E+00 0.00000E+00 0.00000E+00 0.00000E+00 0.00000E+00 0.00000E+00 0.00000E+00 3.23707E-03 0.00000E+00-1.78000E-18
        2  3.57830E-05 0.00000E+00 0.00000E+00 0.00000E+00 0.00000E+00 0.00000E+00 0.00000E+00 0.00000E+00 0.00000E+00 2.41708E-03 0.00000E+00 0.00000E+00
        3  2.22798E-05 0.00000E+00 0.00000E+00 0.00000E+00 0.00000E+00 0.00000E+00 0.00000E+00 0.00000E+00 0.00000E+00 1.60978E-03 0.00000E+00 0.00000E+00
        4  1.20270E-05 0.00000E+00 0.00000E+00 0.00000E+00 0.00000E+00 0.00000E+00 0.00000E+00 0.00000E+00 0.00000E+00 8.05777E-04 0.00000E+00 0.00000E+00
        5  0.00000E+00 0.00000E+00 0.00000E+00 0.00000E+00 0.00000E+00 0.00000E+00 0.00000E+00 0.00000E+00 0.00000E+00 0.00000E+00 0.00000E+00 0.00000E+00
        6  0.00000E+00 2.11342E-05 0.00000E+00 0.00000E+00 0.00000E+00 0.00000E+00 0.00000E+00 0.00000E+00 0.00000E+00 4.86000E-20 8.14884E-04 0.00000E+00
        7  0.00000E+00 3.92947E-05 0.00000E+00 0.00000E+00 0.00000E+00 0.00000E+00 0.00000E+00 0.00000E+00 0.00000E+00 9.72100E-20 1.62679E-03 0.00000E+00
        8  0.00000E+00 7.26259E-05 0.00000E+00 0.00000E+00 0.00000E+00 0.00000E+00 0.00000E+00 0.00000E+00 0.00000E+00 1.45800E-19 2.45393E-03 0.00000E+00
        9  0.00000E+00 1.03500E-04 0.00000E+00 0.00000E+00 0.00000E+00 0.00000E+00 0.00000E+00 0.00000E+00 0.00000E+00 1.94400E-19 3.27850E-03 0.00000E+00
       10  2.39808E-05 7.85319E-05 0.00000E+00 0.00000E+00 0.00000E+00 0.00000E+00 0.00000E+00 0.00000E+00 0.00000E+00 1.23898E-03 3.01183E-03 0.00000E+00
       11  3.76544E-05 5.11733E-05 0.00000E+00 0.00000E+00 0.00000E+00 0.00000E+00 0.00000E+00 0.00000E+00 0.00000E+00 2.28275E-03 2.29627E-03 0.00000E+00
       12  5.80166E-05 3.23440E-05 0.00000E+00 0.00000E+00 0.00000E+00 0.00000E+00 0.00000E+00 0.00000E+00 0.00000E+00 2.99132E-03 1.24734E-03 0.00000E+00
       13  1.85307E-05 2.78696E-05 0.00000E+00 0.00000E+00 0.00000E+00 0.00000E+00 0.00000E+00 0.00000E+00 0.00000E+00 1.32683E-03 1.37977E-03 0.00000E+00
       14  2.16568E-05 1.22865E-05 0.00000E+00 0.00000E+00 0.00000E+00 0.00000E+00 0.00000E+00 0.00000E+00 0.00000E+00 1.50996E-03 7.19263E-04 0.00000E+00
       15  9.06047E-06 3.11079E-05 0.00000E+00 0.00000E+00 0.00000E+00 0.00000E+00 0.00000E+00 0.00000E+00 0.00000E+00 6.78571E-04 1.53811E-03 0.00000E+00
       16  1.19490E-05 1.70009E-05 0.00000E+00 0.00000E+00 0.00000E+00 0.00000E+00 0.00000E+00 0.00000E+00 0.00000E+00 7.65587E-04 7.99338E-04 0.00000E+00
       17  2.96587E-05 3.86851E-05 0.00000E+00 0.00000E+00 0.00000E+00 0.00000E+00 0.00000E+00 0.00000E+00 0.00000E+00 1.76596E-03 1.80619E-03 0.00000E+00
       18  1.80058E-05 4.54676E-05 0.00000E+00 0.00000E+00 0.00000E+00 0.00000E+00 0.00000E+00 0.00000E+00 0.00000E+00 9.38137E-04 2.23657E-03 0.00000E+00
       19  3.22388E-05 2.12922E-05 0.00000E+00 0.00000E+00 0.00000E+00 0.00000E+00 0.00000E+00 0.00000E+00 0.00000E+00 2.19554E-03 9.72151E-04 0.00000E+00
       26  2.41154E-05 9.03582E-06-5.53488E-05 0.00000E+00 0.00000E+00 0.00000E+00 0.00000E+00 0.00000E+00 0.00000E+00 3.17442E-03 1.32064E-03 1.83195E-03
       27  1.69588E-05 1.71874E-05-5.35484E-05 0.00000E+00 0.00000E+00 0.00000E+00 0.00000E+00 0.00000E+00 0.00000E+00 2.43746E-03 2.44079E-03 1.88345E-03
       54  9.56673E-06 2.32251E-05-5.39027E-05 0.00000E+00 0.00000E+00 0.00000E+00 0.00000E+00 0.00000E+00 0.00000E+00 1.31717E-03 3.17803E-03 1.84370E-03
      127  2.75667E-05 0.00000E+00-5.76218E-05 0.00000E+00 0.00000E+00 0.00000E+00 0.00000E+00 0.00000E+00 0.00000E+00 3.41417E-03 0.00000E+00 1.72558E-03
      165  0.00000E+00 3.24596E-05-5.56213E-05 0.00000E+00 0.00000E+00 0.00000E+00 0.00000E+00 0.00000E+00 0.00000E+00 2.39400E-19 3.41916E-03 1.72828E-03
      220  0.00000E+00 1.67895E-06-8.65938E-05 0.00000E+00 0.00000E+00 0.00000E+00 0.00000E+00 0.00000E+00 0.00000E+00 2.13900E-19 3.49418E-03 2.53134E-02
      221  1.14449E-07 1.00022E-06-8.65938E-05 0.00000E+00 0.00000E+00 0.00000E+00 0.00000E+00 0.00000E+00 0.00000E+00 1.47261E-03 3.31540E-03 2.53134E-02
      222  3.07422E-08 1.12418E-06-8.65938E-05 0.00000E+00 0.00000E+00 0.00000E+00 0.00000E+00 0.00000E+00 0.00000E+00 2.02383E-03 4.82032E-03 2.53134E-02
      223  0.00000E+00 2.60182E-06-8.65938E-05 0.00000E+00 0.00000E+00 0.00000E+00 0.00000E+00 0.00000E+00 0.00000E+00 3.20800E-19 5.24140E-03 2.53134E-02
      248  1.57452E-07 1.30542E-06-8.65938E-05 0.00000E+00 0.00000E+00 0.00000E+00 0.00000E+00 0.00000E+00 0.00000E+00 2.67356E-03 6.45451E-03 2.53134E-02
      249  0.00000E+00 3.09153E-06-8.65938E-05 0.00000E+00 0.00000E+00 0.00000E+00 0.00000E+00 0.00000E+00 0.00000E+00 4.27700E-19 6.98809E-03 2.53134E-02
      286 -1.11655E-07 9.50754E-07-8.65938E-05 0.00000E+00 0.00000E+00 0.00000E+00 0.00000E+00 0.00000E+00 0.00000E+00 3.27319E-03 1.55575E-03 2.53134E-02
      287  2.49870E-07 7.56591E-07-8.65938E-05 0.00000E+00 0.00000E+00 0.00000E+00 0.00000E+00 0.00000E+00 0.00000E+00 2.87795E-03 2.97416E-03 2.53134E-02
      288 -1.12425E-07 9.32675E-07-8.65938E-05 0.00000E+00 0.00000E+00 0.00000E+00 0.00000E+00 0.00000E+00 0.00000E+00 1.65759E-03 1.72173E-03 2.53134E-02
      301  1.34154E-07 1.28967E-06-8.65938E-05 0.00000E+00 0.00000E+00 0.00000E+00 0.00000E+00 0.00000E+00 0.00000E+00 3.81943E-03 3.88899E-03 2.53134E-02
      314  4.92271E-07 1.45089E-06-8.65938E-05 0.00000E+00 0.00000E+00 0.00000E+00 0.00000E+00 0.00000E+00 0.00000E+00 4.93959E-03 4.94055E-03 2.53134E-02
      363  1.74211E-07 1.33404E-06-8.65938E-05 0.00000E+00 0.00000E+00 0.00000E+00 0.00000E+00 0.00000E+00 0.00000E+00 6.45357E-03 2.67423E-03 2.53134E-02
      364 -1.67360E-07 1.47208E-06-8.65938E-05 0.00000E+00 0.00000E+00 0.00000E+00 0.00000E+00 0.00000E+00 0.00000E+00 4.75793E-03 2.09267E-03 2.53134E-02
      365  1.48903E-06 0.00000E+00-8.65938E-05 0.00000E+00 0.00000E+00 0.00000E+00 0.00000E+00 0.00000E+00 0.00000E+00 5.24029E-03 0.00000E+00 2.53134E-02
      366  1.10025E-06 0.00000E+00-8.65938E-05 0.00000E+00 0.00000E+00 0.00000E+00 0.00000E+00 0.00000E+00 0.00000E+00 6.98610E-03 0.00000E+00 2.53134E-02
      379  0.00000E+00 1.09764E-06-8.65938E-05 0.00000E+00 0.00000E+00 0.00000E+00 0.00000E+00 0.00000E+00 0.00000E+00 1.06900E-19 1.74740E-03 2.53134E-02
      404  1.46526E-06 0.00000E+00-8.65938E-05 0.00000E+00 0.00000E+00 0.00000E+00 0.00000E+00 0.00000E+00 0.00000E+00 1.74777E-03 0.00000E+00 2.53134E-02
      405  0.00000E+00 0.00000E+00-8.65938E-05 0.00000E+00 0.00000E+00 0.00000E+00 0.00000E+00 0.00000E+00 0.00000E+00 0.00000E+00 0.00000E+00 2.53134E-02
      418  2.13295E-06 0.00000E+00-8.65938E-05 0.00000E+00 0.00000E+00 0.00000E+00 0.00000E+00 0.00000E+00 0.00000E+00 3.49463E-03 0.00000E+00 2.53134E-02
      438  1.98041E-07 0.00000E+00-8.65938E-05 0.00000E+00 0.00000E+00 0.00000E+00 0.00000E+00 0.00000E+00 0.00000E+00 1.27002E-02 0.00000E+00 2.53134E-02
      439  3.24765E-07 0.00000E+00-8.65938E-05 0.00000E+00 0.00000E+00 0.00000E+00 0.00000E+00 0.00000E+00 0.00000E+00 1.18839E-02 0.00000E+00 2.53134E-02
      440  3.56594E-07 0.00000E+00-8.65938E-05 0.00000E+00 0.00000E+00 0.00000E+00 0.00000E+00 0.00000E+00 0.00000E+00 1.10675E-02 0.00000E+00 2.53134E-02
      441  3.73079E-07 0.00000E+00-8.65938E-05 0.00000E+00 0.00000E+00 0.00000E+00 0.00000E+00 0.00000E+00 0.00000E+00 1.02511E-02 0.00000E+00 2.53134E-02
      442  4.04369E-07 0.00000E+00-8.65938E-05 0.00000E+00 0.00000E+00 0.00000E+00 0.00000E+00 0.00000E+00 0.00000E+00 9.43470E-03 0.00000E+00 2.53134E-02
      443  4.64524E-07 0.00000E+00-8.65938E-05 0.00000E+00 0.00000E+00 0.00000E+00 0.00000E+00 0.00000E+00 0.00000E+00 8.61836E-03 0.00000E+00 2.53134E-02
      444  6.09590E-07 0.00000E+00-8.65938E-05 0.00000E+00 0.00000E+00 0.00000E+00 0.00000E+00 0.00000E+00 0.00000E+00 7.80201E-03 0.00000E+00 2.53134E-02
      591  4.35858E-07 1.42762E-06-8.65938E-05 0.00000E+00 0.00000E+00 0.00000E+00 0.00000E+00 0.00000E+00 0.00000E+00 7.97314E-03 3.27293E-03 2.53134E-02
      592  4.78017E-07 1.41558E-06-8.65938E-05 0.00000E+00 0.00000E+00 0.00000E+00 0.00000E+00 0.00000E+00 0.00000E+00 8.73278E-03 3.57222E-03 2.53134E-02
      595  4.93168E-07 1.29707E-06-8.65938E-05 0.00000E+00 0.00000E+00 0.00000E+00 0.00000E+00 0.00000E+00 0.00000E+00 6.09649E-03 6.09280E-03 2.53134E-02
      596  5.57579E-07 1.25101E-06-8.65938E-05 0.00000E+00 0.00000E+00 0.00000E+00 0.00000E+00 0.00000E+00 0.00000E+00 6.67506E-03 6.66885E-03 2.53134E-02
      599  3.13802E-07 1.40561E-06-8.65938E-05 0.00000E+00 0.00000E+00 0.00000E+00 0.00000E+00 0.00000E+00 0.00000E+00 3.27661E-03 7.97211E-03 2.53134E-02
      600  3.62278E-07 1.42734E-06-8.65938E-05 0.00000E+00 0.00000E+00 0.00000E+00 0.00000E+00 0.00000E+00 0.00000E+00 3.57816E-03 8.73093E-03 2.53134E-02
      603  0.00000E+00 2.42018E-06-8.65938E-05 0.00000E+00 0.00000E+00 0.00000E+00 0.00000E+00 0.00000E+00 0.00000E+00 5.27700E-19 8.62032E-03 2.53134E-02
      604  0.00000E+00 2.16466E-06-8.65938E-05 0.00000E+00 0.00000E+00 0.00000E+00 0.00000E+00 0.00000E+00 0.00000E+00 5.77700E-19 9.43646E-03 2.53134E-02
      638  5.63847E-07 1.39464E-06-8.65938E-05 0.00000E+00 0.00000E+00 0.00000E+00 0.00000E+00 0.00000E+00 0.00000E+00 1.02523E-02 4.17079E-03 2.53134E-02
      639  5.65814E-07 1.34404E-06-8.65938E-05 0.00000E+00 0.00000E+00 0.00000E+00 0.00000E+00 0.00000E+00 0.00000E+00 1.10119E-02 4.47004E-03 2.53134E-02
      641  7.04610E-07 1.20936E-06-8.65938E-05 0.00000E+00 0.00000E+00 0.00000E+00 0.00000E+00 0.00000E+00 0.00000E+00 7.83210E-03 7.82111E-03 2.53134E-02
      642  8.02468E-07 1.24208E-06-8.65938E-05 0.00000E+00 0.00000E+00 0.00000E+00 0.00000E+00 0.00000E+00 0.00000E+00 8.41070E-03 8.39724E-03 2.53134E-02
      644  3.81683E-07 1.31405E-06-8.65938E-05 0.00000E+00 0.00000E+00 0.00000E+00 0.00000E+00 0.00000E+00 0.00000E+00 4.18108E-03 1.02484E-02 2.53134E-02
      645  2.79409E-07 1.29863E-06-8.65938E-05 0.00000E+00 0.00000E+00 0.00000E+00 0.00000E+00 0.00000E+00 0.00000E+00 4.48248E-03 1.10071E-02 2.53134E-02
      647  0.00000E+00 2.02504E-06-8.65938E-05 0.00000E+00 0.00000E+00 0.00000E+00 0.00000E+00 0.00000E+00 0.00000E+00 6.77700E-19 1.10691E-02 2.53134E-02
      648  0.00000E+00 2.04749E-06-8.65938E-05 0.00000E+00 0.00000E+00 0.00000E+00 0.00000E+00 0.00000E+00 0.00000E+00 7.27700E-19 1.18856E-02 2.53134E-02
      674  3.77474E-07 1.43042E-06-8.65938E-05 0.00000E+00 0.00000E+00 0.00000E+00 0.00000E+00 0.00000E+00 0.00000E+00 7.21338E-03 2.97363E-03 2.53134E-02
      676  4.20229E-07 1.33451E-06-8.65938E-05 0.00000E+00 0.00000E+00 0.00000E+00 0.00000E+00 0.00000E+00 0.00000E+00 5.51802E-03 5.51663E-03 2.53134E-02
      678  2.30558E-07 1.40014E-06-8.65938E-05 0.00000E+00 0.00000E+00 0.00000E+00 0.00000E+00 0.00000E+00 0.00000E+00 2.97503E-03 7.21340E-03 2.53134E-02
      680  0.00000E+00 2.72607E-06-8.65938E-05 0.00000E+00 0.00000E+00 0.00000E+00 0.00000E+00 0.00000E+00 0.00000E+00 4.77700E-19 7.80413E-03 2.53134E-02
      821  5.22699E-07 1.41127E-06-8.65938E-05 0.00000E+00 0.00000E+00 0.00000E+00 0.00000E+00 0.00000E+00 0.00000E+00 9.49252E-03 3.87151E-03 2.53134E-02
      822  6.14883E-07 1.21184E-06-8.65938E-05 0.00000E+00 0.00000E+00 0.00000E+00 0.00000E+00 0.00000E+00 0.00000E+00 7.25351E-03 7.24501E-03 2.53134E-02
      823  3.95299E-07 1.40474E-06-8.65938E-05 0.00000E+00 0.00000E+00 0.00000E+00 0.00000E+00 0.00000E+00 0.00000E+00 3.87970E-03 9.48970E-03 2.53134E-02
      824  0.00000E+00 2.04814E-06-8.65938E-05 0.00000E+00 0.00000E+00 0.00000E+00 0.00000E+00 0.00000E+00 0.00000E+00 6.27700E-19 1.02527E-02 2.53134E-02
      850  3.82879E-07 1.20088E-06-8.65938E-05 0.00000E+00 0.00000E+00 0.00000E+00 0.00000E+00 0.00000E+00 0.00000E+00 1.17714E-02 4.76930E-03 2.53134E-02
      852  4.58251E-07 1.13363E-06-8.65938E-05 0.00000E+00 0.00000E+00 0.00000E+00 0.00000E+00 0.00000E+00 0.00000E+00 8.98876E-03 8.97333E-03 2.53134E-02
      854  3.46148E-07 1.58268E-06-8.65938E-05 0.00000E+00 0.00000E+00 0.00000E+00 0.00000E+00 0.00000E+00 0.00000E+00 4.78405E-03 1.17662E-02 2.53134E-02
      856  0.00000E+00 2.47295E-06-8.65938E-05 0.00000E+00 0.00000E+00 0.00000E+00 0.00000E+00 0.00000E+00 0.00000E+00 7.77700E-19 1.27025E-02 2.53134E-02



 n o d a l   p r i n t   o u t   f o r   t i m e  s t e p     472                              ( at time 5.4928428E+00 )

 nodal point  x-disp     y-disp      z-disp      x-vel       y-vel       z-vel      x-accl      y-accl      z-accl      x-coor      y-coor      z-coor
        1  1.02902E-04 0.00000E+00 0.00000E+00 0.00000E+00 0.00000E+00 0.00000E+00 0.00000E+00 0.00000E+00 0.00000E+00 3.27790E-03 0.00000E+00-1.78000E-18
        2  5.85488E-05 0.00000E+00 0.00000E+00 0.00000E+00 0.00000E+00 0.00000E+00 0.00000E+00 0.00000E+00 0.00000E+00 2.43985E-03 0.00000E+00 0.00000E+00
        3  3.91991E-05 0.00000E+00 0.00000E+00 0.00000E+00 0.00000E+00 0.00000E+00 0.00000E+00 0.00000E+00 0.00000E+00 1.62670E-03 0.00000E+00 0.00000E+00
        4  2.57375E-05 0.00000E+00 0.00000E+00 0.00000E+00 0.00000E+00 0.00000E+00 0.00000E+00 0.00000E+00 0.00000E+00 8.19488E-04 0.00000E+00 0.00000E+00
        5  0.00000E+00 0.00000E+00 0.00000E+00 0.00000E+00 0.00000E+00 0.00000E+00 0.00000E+00 0.00000E+00 0.00000E+00 0.00000E+00 0.00000E+00 0.00000E+00
        6  0.00000E+00 3.76882E-05 0.00000E+00 0.00000E+00 0.00000E+00 0.00000E+00 0.00000E+00 0.00000E+00 0.00000E+00 4.86000E-20 8.31438E-04 0.00000E+00
        7  0.00000E+00 6.13405E-05 0.00000E+00 0.00000E+00 0.00000E+00 0.00000E+00 0.00000E+00 0.00000E+00 0.00000E+00 9.72100E-20 1.64884E-03 0.00000E+00
        8  0.00000E+00 1.03153E-04 0.00000E+00 0.00000E+00 0.00000E+00 0.00000E+00 0.00000E+00 0.00000E+00 0.00000E+00 1.45800E-19 2.48445E-03 0.00000E+00
        9  0.00000E+00 1.63977E-04 0.00000E+00 0.00000E+00 0.00000E+00 0.00000E+00 0.00000E+00 0.00000E+00 0.00000E+00 1.94400E-19 3.33898E-03 0.00000E+00
       10  3.67068E-05 1.10183E-04 0.00000E+00 0.00000E+00 0.00000E+00 0.00000E+00 0.00000E+00 0.00000E+00 0.00000E+00 1.25171E-03 3.04348E-03 0.00000E+00
       11  6.44211E-05 7.88654E-05 0.00000E+00 0.00000E+00 0.00000E+00 0.00000E+00 0.00000E+00 0.00000E+00 0.00000E+00 2.30952E-03 2.32397E-03 0.00000E+00
       12  9.05637E-05 4.75264E-05 0.00000E+00 0.00000E+00 0.00000E+00 0.00000E+00 0.00000E+00 0.00000E+00 0.00000E+00 3.02386E-03 1.26253E-03 0.00000E+00
       13  2.83127E-05 3.84842E-05 0.00000E+00 0.00000E+00 0.00000E+00 0.00000E+00 0.00000E+00 0.00000E+00 0.00000E+00 1.33661E-03 1.39038E-03 0.00000E+00
       14  3.67296E-05 1.70898E-05 0.00000E+00 0.00000E+00 0.00000E+00 0.00000E+00 0.00000E+00 0.00000E+00 0.00000E+00 1.52503E-03 7.24067E-04 0.00000E+00
       15  1.47445E-05 4.42729E-05 0.00000E+00 0.00000E+00 0.00000E+00 0.00000E+00 0.00000E+00 0.00000E+00 0.00000E+00 6.84255E-04 1.55127E-03 0.00000E+00
       16  2.12161E-05 2.52083E-05 0.00000E+00 0.00000E+00 0.00000E+00 0.00000E+00 0.00000E+00 0.00000E+00 0.00000E+00 7.74854E-04 8.07545E-04 0.00000E+00
       17  5.03458E-05 5.60091E-05 0.00000E+00 0.00000E+00 0.00000E+00 0.00000E+00 0.00000E+00 0.00000E+00 0.00000E+00 1.78665E-03 1.82351E-03 0.00000E+00
       18  2.86394E-05 6.57247E-05 0.00000E+00 0.00000E+00 0.00000E+00 0.00000E+00 0.00000E+00 0.00000E+00 0.00000E+00 9.48770E-04 2.25682E-03 0.00000E+00
       19  5.26016E-05 2.87805E-05 0.00000E+00 0.00000E+00 0.00000E+00 0.00000E+00 0.00000E+00 0.00000E+00 0.00000E+00 2.21590E-03 9.79639E-04 0.00000E+00
       26  3.17999E-05 1.11878E-05-7.57468E-05 0.00000E+00 0.00000E+00 0.00000E+00 0.00000E+00 0.00000E+00 0.00000E+00 3.18210E-03 1.32279E-03 1.81155E-03
       27  2.22097E-05 2.27537E-05-7.34155E-05 0.00000E+00 0.00000E+00 0.00000E+00 0.00000E+00 0.00000E+00 0.00000E+00 2.44271E-03 2.44635E-03 1.86358E-03
       54  1.20040E-05 3.07995E-05-7.46091E-05 0.00000E+00 0.00000E+00 0.00000E+00 0.00000E+00 0.00000E+00 0.00000E+00 1.31960E-03 3.18560E-03 1.82299E-03
      127  3.76126E-05 0.00000E+00-8.01013E-05 0.00000E+00 0.00000E+00 0.00000E+00 0.00000E+00 0.00000E+00 0.00000E+00 3.42421E-03 0.00000E+00 1.70310E-03
      165  0.00000E+00 3.67325E-05-7.82811E-05 0.00000E+00 0.00000E+00 0.00000E+00 0.00000E+00 0.00000E+00 0.00000E+00 2.39400E-19 3.42343E-03 1.70562E-03
      220  0.00000E+00 1.68724E-06-1.09857E-04 0.00000E+00 0.00000E+00 0.00000E+00 0.00000E+00 0.00000E+00 0.00000E+00 2.13900E-19 3.49419E-03 2.52901E-02
      221  1.54960E-07 8.23787E-07-1.09857E-04 0.00000E+00 0.00000E+00 0.00000E+00 0.00000E+00 0.00000E+00 0.00000E+00 1.47265E-03 3.31522E-03 2.52901E-02
      222  1.24727E-07 1.00589E-06-1.09857E-04 0.00000E+00 0.00000E+00 0.00000E+00 0.00000E+00 0.00000E+00 0.00000E+00 2.02392E-03 4.82021E-03 2.52901E-02
      223  0.00000E+00 2.46833E-06-1.09857E-04 0.00000E+00 0.00000E+00 0.00000E+00 0.00000E+00 0.00000E+00 0.00000E+00 3.20800E-19 5.24127E-03 2.52901E-02
      248  2.40139E-07 1.30932E-06-1.09857E-04 0.00000E+00 0.00000E+00 0.00000E+00 0.00000E+00 0.00000E+00 0.00000E+00 2.67364E-03 6.45451E-03 2.52901E-02
      249  0.00000E+00 3.01566E-06-1.09857E-04 0.00000E+00 0.00000E+00 0.00000E+00 0.00000E+00 0.00000E+00 0.00000E+00 4.27700E-19 6.98802E-03 2.52901E-02
      286  1.35164E-08 3.58058E-07-1.09857E-04 0.00000E+00 0.00000E+00 0.00000E+00 0.00000E+00 0.00000E+00 0.00000E+00 3.27331E-03 1.55516E-03 2.52901E-02
      287  2.94589E-07 4.56541E-07-1.09857E-04 0.00000E+00 0.00000E+00 0.00000E+00 0.00000E+00 0.00000E+00 0.00000E+00 2.87799E-03 2.97386E-03 2.52901E-02
      288 -1.36475E-08 2.16051E-07-1.09857E-04 0.00000E+00 0.00000E+00 0.00000E+00 0.00000E+00 0.00000E+00 0.00000E+00 1.65769E-03 1.72102E-03 2.52901E-02
      301  2.57915E-07 1.01149E-06-1.09857E-04 0.00000E+00 0.00000E+00 0.00000E+00 0.00000E+00 0.00000E+00 0.00000E+00 3.81956E-03 3.88871E-03 2.52901E-02
      314  5.37692E-07 1.25275E-06-1.09857E-04 0.00000E+00 0.00000E+00 0.00000E+00 0.00000E+00 0.00000E+00 0.00000E+00 4.93964E-03 4.94035E-03 2.52901E-02
      363  3.48496E-07 1.08728E-06-1.09857E-04 0.00000E+00 0.00000E+00 0.00000E+00 0.00000E+00 0.00000E+00 0.00000E+00 6.45375E-03 2.67399E-03 2.52901E-02
      364 -2.44589E-08 1.03238E-06-1.09857E-04 0.00000E+00 0.00000E+00 0.00000E+00 0.00000E+00 0.00000E+00 0.00000E+00 4.75808E-03 2.09223E-03 2.52901E-02
      365  1.32216E-06 0.00000E+00-1.09857E-04 0.00000E+00 0.00000E+00 0.00000E+00 0.00000E+00 0.00000E+00 0.00000E+00 5.24012E-03 0.00000E+00 2.52901E-02
      366  1.02182E-06 0.00000E+00-1.09857E-04 0.00000E+00 0.00000E+00 0.00000E+00 0.00000E+00 0.00000E+00 0.00000E+00 6.98602E-03 0.00000E+00 2.52901E-02
      379  0.00000E+00 5.03724E-07-1.09857E-04 0.00000E+00 0.00000E+00 0.00000E+00 0.00000E+00 0.00000E+00 0.00000E+00 1.06900E-19 1.74680E-03 2.52901E-02
      404  1.32822E-06 0.00000E+00-1.09857E-04 0.00000E+00 0.00000E+00 0.00000E+00 0.00000E+00 0.00000E+00 0.00000E+00 1.74763E-03 0.00000E+00 2.52901E-02
      405  0.00000E+00 0.00000E+00-1.09857E-04 0.00000E+00 0.00000E+00 0.00000E+00 0.00000E+00 0.00000E+00 0.00000E+00 0.00000E+00 0.00000E+00 2.52901E-02
      418  1.91759E-06 0.00000E+00-1.09857E-04 0.00000E+00 0.00000E+00 0.00000E+00 0.00000E+00 0.00000E+00 0.00000E+00 3.49442E-03 0.00000E+00 2.52901E-02
      438  3.56970E-07 0.00000E+00-1.09857E-04 0.00000E+00 0.00000E+00 0.00000E+00 0.00000E+00 0.00000E+00 0.00000E+00 1.27004E-02 0.00000E+00 2.52901E-02
      439  4.65638E-07 0.00000E+00-1.09857E-04 0.00000E+00 0.00000E+00 0.00000E+00 0.00000E+00 0.00000E+00 0.00000E+00 1.18841E-02 0.00000E+00 2.52901E-02
      440  4.86549E-07 0.00000E+00-1.09857E-04 0.00000E+00 0.00000E+00 0.00000E+00 0.00000E+00 0.00000E+00 0.00000E+00 1.10676E-02 0.00000E+00 2.52901E-02
      441  4.91900E-07 0.00000E+00-1.09857E-04 0.00000E+00 0.00000E+00 0.00000E+00 0.00000E+00 0.00000E+00 0.00000E+00 1.02512E-02 0.00000E+00 2.52901E-02
      442  5.08110E-07 0.00000E+00-1.09857E-04 0.00000E+00 0.00000E+00 0.00000E+00 0.00000E+00 0.00000E+00 0.00000E+00 9.43481E-03 0.00000E+00 2.52901E-02
      443  5.50826E-07 0.00000E+00-1.09857E-04 0.00000E+00 0.00000E+00 0.00000E+00 0.00000E+00 0.00000E+00 0.00000E+00 8.61845E-03 0.00000E+00 2.52901E-02
      444  6.37574E-07 0.00000E+00-1.09857E-04 0.00000E+00 0.00000E+00 0.00000E+00 0.00000E+00 0.00000E+00 0.00000E+00 7.80204E-03 0.00000E+00 2.52901E-02
      591  5.37416E-07 1.15499E-06-1.09857E-04 0.00000E+00 0.00000E+00 0.00000E+00 0.00000E+00 0.00000E+00 0.00000E+00 7.97324E-03 3.27265E-03 2.52901E-02
      592  5.86696E-07 1.14776E-06-1.09857E-04 0.00000E+00 0.00000E+00 0.00000E+00 0.00000E+00 0.00000E+00 0.00000E+00 8.73289E-03 3.57195E-03 2.52901E-02
      595  5.45327E-07 1.18245E-06-1.09857E-04 0.00000E+00 0.00000E+00 0.00000E+00 0.00000E+00 0.00000E+00 0.00000E+00 6.09655E-03 6.09268E-03 2.52901E-02
      596  6.02148E-07 1.15053E-06-1.09857E-04 0.00000E+00 0.00000E+00 0.00000E+00 0.00000E+00 0.00000E+00 0.00000E+00 6.67510E-03 6.66875E-03 2.52901E-02
      599  3.40950E-07 1.38550E-06-1.09857E-04 0.00000E+00 0.00000E+00 0.00000E+00 0.00000E+00 0.00000E+00 0.00000E+00 3.27664E-03 7.97209E-03 2.52901E-02
      600  3.79237E-07 1.39369E-06-1.09857E-04 0.00000E+00 0.00000E+00 0.00000E+00 0.00000E+00 0.00000E+00 0.00000E+00 3.57818E-03 8.73089E-03 2.52901E-02
      603  0.00000E+00 2.46738E-06-1.09857E-04 0.00000E+00 0.00000E+00 0.00000E+00 0.00000E+00 0.00000E+00 0.00000E+00 5.27700E-19 8.62037E-03 2.52901E-02
      604  0.00000E+00 2.18817E-06-1.09857E-04 0.00000E+00 0.00000E+00 0.00000E+00 0.00000E+00 0.00000E+00 0.00000E+00 5.77700E-19 9.43649E-03 2.52901E-02
      638  6.81839E-07 1.13187E-06-1.09857E-04 0.00000E+00 0.00000E+00 0.00000E+00 0.00000E+00 0.00000E+00 0.00000E+00 1.02524E-02 4.17053E-03 2.52901E-02
      639  6.83293E-07 1.09148E-06-1.09857E-04 0.00000E+00 0.00000E+00 0.00000E+00 0.00000E+00 0.00000E+00 0.00000E+00 1.10120E-02 4.46979E-03 2.52901E-02
      641  7.32876E-07 1.12985E-06-1.09857E-04 0.00000E+00 0.00000E+00 0.00000E+00 0.00000E+00 0.00000E+00 0.00000E+00 7.83213E-03 7.82103E-03 2.52901E-02
      642  8.36964E-07 1.18614E-06-1.09857E-04 0.00000E+00 0.00000E+00 0.00000E+00 0.00000E+00 0.00000E+00 0.00000E+00 8.41074E-03 8.39719E-03 2.52901E-02
      644  3.91691E-07 1.28573E-06-1.09857E-04 0.00000E+00 0.00000E+00 0.00000E+00 0.00000E+00 0.00000E+00 0.00000E+00 4.18109E-03 1.02484E-02 2.52901E-02
      645  2.82722E-07 1.26050E-06-1.09857E-04 0.00000E+00 0.00000E+00 0.00000E+00 0.00000E+00 0.00000E+00 0.00000E+00 4.48248E-03 1.10071E-02 2.52901E-02
      647  0.00000E+00 2.06025E-06-1.09857E-04 0.00000E+00 0.00000E+00 0.00000E+00 0.00000E+00 0.00000E+00 0.00000E+00 6.77700E-19 1.10692E-02 2.52901E-02
      648  0.00000E+00 2.11678E-06-1.09857E-04 0.00000E+00 0.00000E+00 0.00000E+00 0.00000E+00 0.00000E+00 0.00000E+00 7.27700E-19 1.18857E-02 2.52901E-02
[...]
      249  0.00000E+00 4.12019E-07-1.95359E-03 0.00000E+00 0.00000E+00 0.00000E+00 0.00000E+00 0.00000E+00 0.00000E+00 4.27700E-19 6.98541E-03 2.34464E-02
      286  2.94048E-07-5.86432E-07-1.95359E-03 0.00000E+00 0.00000E+00 0.00000E+00 0.00000E+00 0.00000E+00 0.00000E+00 3.27359E-03 1.55421E-03 2.34464E-02
      287  2.07091E-07-2.22035E-07-1.95359E-03 0.00000E+00 0.00000E+00 0.00000E+00 0.00000E+00 0.00000E+00 0.00000E+00 2.87791E-03 2.97318E-03 2.34464E-02
      288  2.11954E-07-9.46034E-07-1.95359E-03 0.00000E+00 0.00000E+00 0.00000E+00 0.00000E+00 0.00000E+00 0.00000E+00 1.65791E-03 1.71985E-03 2.34464E-02
      301  1.98242E-07 2.41777E-08-1.95359E-03 0.00000E+00 0.00000E+00 0.00000E+00 0.00000E+00 0.00000E+00 0.00000E+00 3.81950E-03 3.88772E-03 2.34464E-02
      314  1.77482E-07 7.64942E-08-1.95359E-03 0.00000E+00 0.00000E+00 0.00000E+00 0.00000E+00 0.00000E+00 0.00000E+00 4.93928E-03 4.93918E-03 2.34464E-02
      363  2.13056E-07 3.61004E-08-1.95359E-03 0.00000E+00 0.00000E+00 0.00000E+00 0.00000E+00 0.00000E+00 0.00000E+00 6.45361E-03 2.67294E-03 2.34464E-02
      364  2.59572E-08-1.48650E-07-1.95359E-03 0.00000E+00 0.00000E+00 0.00000E+00 0.00000E+00 0.00000E+00 0.00000E+00 4.75813E-03 2.09105E-03 2.34464E-02
      365  7.90612E-07 0.00000E+00-1.95359E-03 0.00000E+00 0.00000E+00 0.00000E+00 0.00000E+00 0.00000E+00 0.00000E+00 5.23959E-03 0.00000E+00 2.34464E-02
      366  3.42932E-07 0.00000E+00-1.95359E-03 0.00000E+00 0.00000E+00 0.00000E+00 0.00000E+00 0.00000E+00 0.00000E+00 6.98534E-03 0.00000E+00 2.34464E-02
      379  0.00000E+00-7.94469E-07-1.95359E-03 0.00000E+00 0.00000E+00 0.00000E+00 0.00000E+00 0.00000E+00 0.00000E+00 1.06900E-19 1.74551E-03 2.34464E-02
      404  1.04353E-06 0.00000E+00-1.95359E-03 0.00000E+00 0.00000E+00 0.00000E+00 0.00000E+00 0.00000E+00 0.00000E+00 1.74734E-03 0.00000E+00 2.34464E-02
      405  0.00000E+00 0.00000E+00-1.95359E-03 0.00000E+00 0.00000E+00 0.00000E+00 0.00000E+00 0.00000E+00 0.00000E+00 0.00000E+00 0.00000E+00 2.34464E-02
      418  1.50618E-06 0.00000E+00-1.95359E-03 0.00000E+00 0.00000E+00 0.00000E+00 0.00000E+00 0.00000E+00 0.00000E+00 3.49401E-03 0.00000E+00 2.34464E-02
      438  1.35600E-07 0.00000E+00-1.95359E-03 0.00000E+00 0.00000E+00 0.00000E+00 0.00000E+00 0.00000E+00 0.00000E+00 1.27001E-02 0.00000E+00 2.34464E-02
      439  1.48243E-07 0.00000E+00-1.95359E-03 0.00000E+00 0.00000E+00 0.00000E+00 0.00000E+00 0.00000E+00 0.00000E+00 1.18837E-02 0.00000E+00 2.34464E-02
      440  1.51379E-07 0.00000E+00-1.95359E-03 0.00000E+00 0.00000E+00 0.00000E+00 0.00000E+00 0.00000E+00 0.00000E+00 1.10673E-02 0.00000E+00 2.34464E-02
      441  1.45941E-07 0.00000E+00-1.95359E-03 0.00000E+00 0.00000E+00 0.00000E+00 0.00000E+00 0.00000E+00 0.00000E+00 1.02508E-02 0.00000E+00 2.34464E-02
      442  1.65329E-07 0.00000E+00-1.95359E-03 0.00000E+00 0.00000E+00 0.00000E+00 0.00000E+00 0.00000E+00 0.00000E+00 9.43447E-03 0.00000E+00 2.34464E-02
      443  2.09509E-07 0.00000E+00-1.95359E-03 0.00000E+00 0.00000E+00 0.00000E+00 0.00000E+00 0.00000E+00 0.00000E+00 8.61811E-03 0.00000E+00 2.34464E-02
      444  2.91644E-07 0.00000E+00-1.95359E-03 0.00000E+00 0.00000E+00 0.00000E+00 0.00000E+00 0.00000E+00 0.00000E+00 7.80169E-03 0.00000E+00 2.34464E-02
      591  1.73548E-07-2.15547E-08-1.95359E-03 0.00000E+00 0.00000E+00 0.00000E+00 0.00000E+00 0.00000E+00 0.00000E+00 7.97287E-03 3.27148E-03 2.34464E-02
      592  1.73727E-07-4.82508E-08-1.95359E-03 0.00000E+00 0.00000E+00 0.00000E+00 0.00000E+00 0.00000E+00 0.00000E+00 8.73247E-03 3.57075E-03 2.34464E-02
      595  1.17694E-07 1.10353E-07-1.95359E-03 0.00000E+00 0.00000E+00 0.00000E+00 0.00000E+00 0.00000E+00 0.00000E+00 6.09612E-03 6.09161E-03 2.34464E-02
      596  1.08657E-07 9.07581E-08-1.95359E-03 0.00000E+00 0.00000E+00 0.00000E+00 0.00000E+00 0.00000E+00 0.00000E+00 6.67461E-03 6.66769E-03 2.34464E-02
      599  1.03432E-07 2.59833E-07-1.95359E-03 0.00000E+00 0.00000E+00 0.00000E+00 0.00000E+00 0.00000E+00 0.00000E+00 3.27640E-03 7.97096E-03 2.34464E-02
      600  6.27909E-08 2.31838E-07-1.95359E-03 0.00000E+00 0.00000E+00 0.00000E+00 0.00000E+00 0.00000E+00 0.00000E+00 3.57786E-03 8.72973E-03 2.34464E-02
      603  0.00000E+00 7.67246E-07-1.95359E-03 0.00000E+00 0.00000E+00 0.00000E+00 0.00000E+00 0.00000E+00 0.00000E+00 5.27700E-19 8.61867E-03 2.34464E-02
      604  0.00000E+00 7.07714E-07-1.95359E-03 0.00000E+00 0.00000E+00 0.00000E+00 0.00000E+00 0.00000E+00 0.00000E+00 5.77700E-19 9.43501E-03 2.34464E-02
      638  1.57231E-07-8.36270E-08-1.95359E-03 0.00000E+00 0.00000E+00 0.00000E+00 0.00000E+00 0.00000E+00 0.00000E+00 1.02519E-02 4.16932E-03 2.34464E-02
      639  1.51894E-07-8.46632E-08-1.95359E-03 0.00000E+00 0.00000E+00 0.00000E+00 0.00000E+00 0.00000E+00 0.00000E+00 1.10115E-02 4.46862E-03 2.34464E-02
      641  1.62442E-07 1.18759E-07-1.95359E-03 0.00000E+00 0.00000E+00 0.00000E+00 0.00000E+00 0.00000E+00 0.00000E+00 7.83156E-03 7.82002E-03 2.34464E-02
      642  1.52198E-07 1.25140E-07-1.95359E-03 0.00000E+00 0.00000E+00 0.00000E+00 0.00000E+00 0.00000E+00 0.00000E+00 8.41005E-03 8.39613E-03 2.34464E-02
      644 -2.85033E-08 1.03581E-08-1.95359E-03 0.00000E+00 0.00000E+00 0.00000E+00 0.00000E+00 0.00000E+00 0.00000E+00 4.18067E-03 1.02471E-02 2.34464E-02
      645 -3.73621E-08 1.59044E-07-1.95359E-03 0.00000E+00 0.00000E+00 0.00000E+00 0.00000E+00 0.00000E+00 0.00000E+00 4.48216E-03 1.10060E-02 2.34464E-02
      647  0.00000E+00 7.06322E-07-1.95359E-03 0.00000E+00 0.00000E+00 0.00000E+00 0.00000E+00 0.00000E+00 0.00000E+00 6.77700E-19 1.10678E-02 2.34464E-02
      648  0.00000E+00 2.17540E-07-1.95359E-03 0.00000E+00 0.00000E+00 0.00000E+00 0.00000E+00 0.00000E+00 0.00000E+00 7.27700E-19 1.18838E-02 2.34464E-02
      674  1.77247E-07 1.42649E-08-1.95359E-03 0.00000E+00 0.00000E+00 0.00000E+00 0.00000E+00 0.00000E+00 0.00000E+00 7.21318E-03 2.97221E-03 2.34464E-02
      676  1.25160E-07 1.19606E-07-1.95359E-03 0.00000E+00 0.00000E+00 0.00000E+00 0.00000E+00 0.00000E+00 0.00000E+00 5.51773E-03 5.51542E-03 2.34464E-02
      678  1.40847E-07 3.17631E-07-1.95359E-03 0.00000E+00 0.00000E+00 0.00000E+00 0.00000E+00 0.00000E+00 0.00000E+00 2.97494E-03 7.21232E-03 2.34464E-02
      680  0.00000E+00 6.80136E-07-1.95359E-03 0.00000E+00 0.00000E+00 0.00000E+00 0.00000E+00 0.00000E+00 0.00000E+00 4.77700E-19 7.80208E-03 2.34464E-02
      821  1.76550E-07-6.61489E-08-1.95359E-03 0.00000E+00 0.00000E+00 0.00000E+00 0.00000E+00 0.00000E+00 0.00000E+00 9.49218E-03 3.87003E-03 2.34464E-02
      822  1.10023E-07 7.94257E-08-1.95359E-03 0.00000E+00 0.00000E+00 0.00000E+00 0.00000E+00 0.00000E+00 0.00000E+00 7.25301E-03 7.24388E-03 2.34464E-02
      823  2.40438E-08 1.50143E-07-1.95359E-03 0.00000E+00 0.00000E+00 0.00000E+00 0.00000E+00 0.00000E+00 0.00000E+00 3.87932E-03 9.48845E-03 2.34464E-02
      824  0.00000E+00 7.26322E-07-1.95359E-03 0.00000E+00 0.00000E+00 0.00000E+00 0.00000E+00 0.00000E+00 0.00000E+00 6.27700E-19 1.02514E-02 2.34464E-02
      850  2.29129E-07-7.56880E-08-1.95359E-03 0.00000E+00 0.00000E+00 0.00000E+00 0.00000E+00 0.00000E+00 0.00000E+00 1.17712E-02 4.76802E-03 2.34464E-02
      852  3.18160E-08 3.68683E-08-1.95359E-03 0.00000E+00 0.00000E+00 0.00000E+00 0.00000E+00 0.00000E+00 0.00000E+00 8.98833E-03 8.97224E-03 2.34464E-02
      854  2.89390E-07 3.96344E-07-1.95359E-03 0.00000E+00 0.00000E+00 0.00000E+00 0.00000E+00 0.00000E+00 0.00000E+00 4.78399E-03 1.17650E-02 2.34464E-02
      856  0.00000E+00-5.83098E-07-1.95359E-03 0.00000E+00 0.00000E+00 0.00000E+00 0.00000E+00 0.00000E+00 0.00000E+00 7.77700E-19 1.26994E-02 2.34464E-02



 n o d a l   p r i n t   o u t   f o r   t i m e  s t e p     912                              ( at time 1.0000000E+02 )

 nodal point  x-disp     y-disp      z-disp      x-vel       y-vel       z-vel      x-accl      y-accl      z-accl      x-coor      y-coor      z-coor
        1  1.71763E-03 0.00000E+00 0.00000E+00 0.00000E+00 0.00000E+00 0.00000E+00 0.00000E+00 0.00000E+00 0.00000E+00 4.89263E-03 0.00000E+00-1.78000E-18
        2  1.31151E-03 0.00000E+00 0.00000E+00 0.00000E+00 0.00000E+00 0.00000E+00 0.00000E+00 0.00000E+00 0.00000E+00 3.69281E-03 0.00000E+00 0.00000E+00
        3  1.02347E-03 0.00000E+00 0.00000E+00 0.00000E+00 0.00000E+00 0.00000E+00 0.00000E+00 0.00000E+00 0.00000E+00 2.61097E-03 0.00000E+00 0.00000E+00
        4  4.81732E-04 0.00000E+00 0.00000E+00 0.00000E+00 0.00000E+00 0.00000E+00 0.00000E+00 0.00000E+00 0.00000E+00 1.27548E-03 0.00000E+00 0.00000E+00
        5  0.00000E+00 0.00000E+00 0.00000E+00 0.00000E+00 0.00000E+00 0.00000E+00 0.00000E+00 0.00000E+00 0.00000E+00 0.00000E+00 0.00000E+00 0.00000E+00
        6  0.00000E+00 4.53202E-04 0.00000E+00 0.00000E+00 0.00000E+00 0.00000E+00 0.00000E+00 0.00000E+00 0.00000E+00 4.86000E-20 1.24695E-03 0.00000E+00
        7  0.00000E+00 8.36570E-04 0.00000E+00 0.00000E+00 0.00000E+00 0.00000E+00 0.00000E+00 0.00000E+00 0.00000E+00 9.72100E-20 2.42407E-03 0.00000E+00
        8  0.00000E+00 1.11990E-03 0.00000E+00 0.00000E+00 0.00000E+00 0.00000E+00 0.00000E+00 0.00000E+00 0.00000E+00 1.45800E-19 3.50120E-03 0.00000E+00
        9  0.00000E+00 1.49437E-03 0.00000E+00 0.00000E+00 0.00000E+00 0.00000E+00 0.00000E+00 0.00000E+00 0.00000E+00 1.94400E-19 4.66937E-03 0.00000E+00
       10  5.52783E-04 1.50569E-03 0.00000E+00 0.00000E+00 0.00000E+00 0.00000E+00 0.00000E+00 0.00000E+00 0.00000E+00 1.76778E-03 4.43899E-03 0.00000E+00
       11  1.18907E-03 1.20570E-03 0.00000E+00 0.00000E+00 0.00000E+00 0.00000E+00 0.00000E+00 0.00000E+00 0.00000E+00 3.43417E-03 3.45080E-03 0.00000E+00
       12  1.58798E-03 6.24325E-04 0.00000E+00 0.00000E+00 0.00000E+00 0.00000E+00 0.00000E+00 0.00000E+00 0.00000E+00 4.52128E-03 1.83932E-03 0.00000E+00
       13  9.34253E-04 7.63508E-04 0.00000E+00 0.00000E+00 0.00000E+00 0.00000E+00 0.00000E+00 0.00000E+00 0.00000E+00 2.24255E-03 2.11541E-03 0.00000E+00
       14  1.08866E-03 5.54756E-04 0.00000E+00 0.00000E+00 0.00000E+00 0.00000E+00 0.00000E+00 0.00000E+00 0.00000E+00 2.57696E-03 1.26173E-03 0.00000E+00
       15  4.74575E-04 7.22431E-04 0.00000E+00 0.00000E+00 0.00000E+00 0.00000E+00 0.00000E+00 0.00000E+00 0.00000E+00 1.14408E-03 2.22943E-03 0.00000E+00
       16  5.34135E-04 4.48441E-04 0.00000E+00 0.00000E+00 0.00000E+00 0.00000E+00 0.00000E+00 0.00000E+00 0.00000E+00 1.28777E-03 1.23078E-03 0.00000E+00
       17  1.18289E-03 9.98900E-04 0.00000E+00 0.00000E+00 0.00000E+00 0.00000E+00 0.00000E+00 0.00000E+00 0.00000E+00 2.91919E-03 2.76640E-03 0.00000E+00
       18  4.70799E-04 9.84063E-04 0.00000E+00 0.00000E+00 0.00000E+00 0.00000E+00 0.00000E+00 0.00000E+00 0.00000E+00 1.39093E-03 3.17516E-03 0.00000E+00
       19  1.30328E-03 5.07091E-04 0.00000E+00 0.00000E+00 0.00000E+00 0.00000E+00 0.00000E+00 0.00000E+00 0.00000E+00 3.46658E-03 1.45795E-03 0.00000E+00
       26  1.10603E-03 4.89535E-04-1.55920E-03 0.00000E+00 0.00000E+00 0.00000E+00 0.00000E+00 0.00000E+00 0.00000E+00 4.25633E-03 1.80114E-03 3.28099E-04
       27  3.41705E-04 4.09830E-04-1.82405E-03 0.00000E+00 0.00000E+00 0.00000E+00 0.00000E+00 0.00000E+00 0.00000E+00 2.76220E-03 2.83343E-03 1.12953E-04
       54  1.34348E-04 3.87485E-04-1.86415E-03 0.00000E+00 0.00000E+00 0.00000E+00 0.00000E+00 0.00000E+00 0.00000E+00 1.44195E-03 3.54228E-03 3.34488E-05
      127  1.54999E-03 0.00000E+00-1.44609E-03 0.00000E+00 0.00000E+00 0.00000E+00 0.00000E+00 0.00000E+00 0.00000E+00 4.93659E-03 0.00000E+00 3.37107E-04
      165  0.00000E+00 4.20319E-04-1.87984E-03 0.00000E+00 0.00000E+00 0.00000E+00 0.00000E+00 0.00000E+00 0.00000E+00 2.39400E-19 3.80702E-03-9.59361E-05
      220  0.00000E+00-1.48763E-08-2.00000E-03 0.00000E+00 0.00000E+00 0.00000E+00 0.00000E+00 0.00000E+00 0.00000E+00 2.13900E-19 3.49249E-03 2.34000E-02
      221  1.56011E-07-1.00168E-07-2.00000E-03 0.00000E+00 0.00000E+00 0.00000E+00 0.00000E+00 0.00000E+00 0.00000E+00 1.47266E-03 3.31430E-03 2.34000E-02
      222  1.65590E-07 1.45935E-07-2.00000E-03 0.00000E+00 0.00000E+00 0.00000E+00 0.00000E+00 0.00000E+00 0.00000E+00 2.02397E-03 4.81935E-03 2.34000E-02
      223  0.00000E+00 2.01025E-07-2.00000E-03 0.00000E+00 0.00000E+00 0.00000E+00 0.00000E+00 0.00000E+00 0.00000E+00 3.20800E-19 5.23900E-03 2.34000E-02
      248  2.20121E-07 3.51569E-07-2.00000E-03 0.00000E+00 0.00000E+00 0.00000E+00 0.00000E+00 0.00000E+00 0.00000E+00 2.67362E-03 6.45355E-03 2.34000E-02
      249  0.00000E+00 3.88476E-07-2.00000E-03 0.00000E+00 0.00000E+00 0.00000E+00 0.00000E+00 0.00000E+00 0.00000E+00 4.27700E-19 6.98539E-03 2.34000E-02
      286  3.00832E-07-6.09904E-07-2.00000E-03 0.00000E+00 0.00000E+00 0.00000E+00 0.00000E+00 0.00000E+00 0.00000E+00 3.27360E-03 1.55419E-03 2.34000E-02
      287  2.05414E-07-2.25276E-07-2.00000E-03 0.00000E+00 0.00000E+00 0.00000E+00 0.00000E+00 0.00000E+00 0.00000E+00 2.87791E-03 2.97317E-03 2.34000E-02
      288  2.21010E-07-9.93073E-07-2.00000E-03 0.00000E+00 0.00000E+00 0.00000E+00 0.00000E+00 0.00000E+00 0.00000E+00 1.65792E-03 1.71981E-03 2.34000E-02
      301  2.04436E-07 1.29947E-08-2.00000E-03 0.00000E+00 0.00000E+00 0.00000E+00 0.00000E+00 0.00000E+00 0.00000E+00 3.81950E-03 3.88771E-03 2.34000E-02
      314  1.79524E-07 6.32059E-08-2.00000E-03 0.00000E+00 0.00000E+00 0.00000E+00 0.00000E+00 0.00000E+00 0.00000E+00 4.93928E-03 4.93916E-03 2.34000E-02
      363  2.19505E-07 1.37122E-08-2.00000E-03 0.00000E+00 0.00000E+00 0.00000E+00 0.00000E+00 0.00000E+00 0.00000E+00 6.45362E-03 2.67291E-03 2.34000E-02
      364  3.60665E-08-1.82199E-07-2.00000E-03 0.00000E+00 0.00000E+00 0.00000E+00 0.00000E+00 0.00000E+00 0.00000E+00 4.75814E-03 2.09102E-03 2.34000E-02
      365  7.57448E-07 0.00000E+00-2.00000E-03 0.00000E+00 0.00000E+00 0.00000E+00 0.00000E+00 0.00000E+00 0.00000E+00 5.23956E-03 0.00000E+00 2.34000E-02
      366  3.21123E-07 0.00000E+00-2.00000E-03 0.00000E+00 0.00000E+00 0.00000E+00 0.00000E+00 0.00000E+00 0.00000E+00 6.98532E-03 0.00000E+00 2.34000E-02
      379  0.00000E+00-8.36270E-07-2.00000E-03 0.00000E+00 0.00000E+00 0.00000E+00 0.00000E+00 0.00000E+00 0.00000E+00 1.06900E-19 1.74546E-03 2.34000E-02
      404  9.97991E-07 0.00000E+00-2.00000E-03 0.00000E+00 0.00000E+00 0.00000E+00 0.00000E+00 0.00000E+00 0.00000E+00 1.74730E-03 0.00000E+00 2.34000E-02
      405  0.00000E+00 0.00000E+00-2.00000E-03 0.00000E+00 0.00000E+00 0.00000E+00 0.00000E+00 0.00000E+00 0.00000E+00 0.00000E+00 0.00000E+00 2.34000E-02
      418  1.48588E-06 0.00000E+00-2.00000E-03 0.00000E+00 0.00000E+00 0.00000E+00 0.00000E+00 0.00000E+00 0.00000E+00 3.49399E-03 0.00000E+00 2.34000E-02
      438  1.42199E-07 0.00000E+00-2.00000E-03 0.00000E+00 0.00000E+00 0.00000E+00 0.00000E+00 0.00000E+00 0.00000E+00 1.27001E-02 0.00000E+00 2.34000E-02
      439  1.51100E-07 0.00000E+00-2.00000E-03 0.00000E+00 0.00000E+00 0.00000E+00 0.00000E+00 0.00000E+00 0.00000E+00 1.18838E-02 0.00000E+00 2.34000E-02
      440  1.52970E-07 0.00000E+00-2.00000E-03 0.00000E+00 0.00000E+00 0.00000E+00 0.00000E+00 0.00000E+00 0.00000E+00 1.10673E-02 0.00000E+00 2.34000E-02
      441  1.45515E-07 0.00000E+00-2.00000E-03 0.00000E+00 0.00000E+00 0.00000E+00 0.00000E+00 0.00000E+00 0.00000E+00 1.02508E-02 0.00000E+00 2.34000E-02
      442  1.63118E-07 0.00000E+00-2.00000E-03 0.00000E+00 0.00000E+00 0.00000E+00 0.00000E+00 0.00000E+00 0.00000E+00 9.43446E-03 0.00000E+00 2.34000E-02
      443  2.04836E-07 0.00000E+00-2.00000E-03 0.00000E+00 0.00000E+00 0.00000E+00 0.00000E+00 0.00000E+00 0.00000E+00 8.61810E-03 0.00000E+00 2.34000E-02
      444  2.85106E-07 0.00000E+00-2.00000E-03 0.00000E+00 0.00000E+00 0.00000E+00 0.00000E+00 0.00000E+00 0.00000E+00 7.80169E-03 0.00000E+00 2.34000E-02
      591  1.74250E-07-4.22742E-08-2.00000E-03 0.00000E+00 0.00000E+00 0.00000E+00 0.00000E+00 0.00000E+00 0.00000E+00 7.97287E-03 3.27146E-03 2.34000E-02
      592  1.75103E-07-6.89761E-08-2.00000E-03 0.00000E+00 0.00000E+00 0.00000E+00 0.00000E+00 0.00000E+00 0.00000E+00 8.73248E-03 3.57073E-03 2.34000E-02
      595  1.20113E-07 1.03117E-07-2.00000E-03 0.00000E+00 0.00000E+00 0.00000E+00 0.00000E+00 0.00000E+00 0.00000E+00 6.09612E-03 6.09160E-03 2.34000E-02
      596  1.10919E-07 8.32864E-08-2.00000E-03 0.00000E+00 0.00000E+00 0.00000E+00 0.00000E+00 0.00000E+00 0.00000E+00 6.67461E-03 6.66768E-03 2.34000E-02
      599  1.03970E-07 2.57219E-07-2.00000E-03 0.00000E+00 0.00000E+00 0.00000E+00 0.00000E+00 0.00000E+00 0.00000E+00 3.27640E-03 7.97096E-03 2.34000E-02
      600  6.39079E-08 2.28294E-07-2.00000E-03 0.00000E+00 0.00000E+00 0.00000E+00 0.00000E+00 0.00000E+00 0.00000E+00 3.57786E-03 8.72973E-03 2.34000E-02
      603  0.00000E+00 7.52515E-07-2.00000E-03 0.00000E+00 0.00000E+00 0.00000E+00 0.00000E+00 0.00000E+00 0.00000E+00 5.27700E-19 8.61865E-03 2.34000E-02
      604  0.00000E+00 6.90482E-07-2.00000E-03 0.00000E+00 0.00000E+00 0.00000E+00 0.00000E+00 0.00000E+00 0.00000E+00 5.77700E-19 9.43499E-03 2.34000E-02
      638  1.58911E-07-1.03180E-07-2.00000E-03 0.00000E+00 0.00000E+00 0.00000E+00 0.00000E+00 0.00000E+00 0.00000E+00 1.02519E-02 4.16930E-03 2.34000E-02
      639  1.54549E-07-1.03619E-07-2.00000E-03 0.00000E+00 0.00000E+00 0.00000E+00 0.00000E+00 0.00000E+00 0.00000E+00 1.10115E-02 4.46860E-03 2.34000E-02
      641  1.63828E-07 1.14281E-07-2.00000E-03 0.00000E+00 0.00000E+00 0.00000E+00 0.00000E+00 0.00000E+00 0.00000E+00 7.83156E-03 7.82001E-03 2.34000E-02
      642  1.52704E-07 1.20231E-07-2.00000E-03 0.00000E+00 0.00000E+00 0.00000E+00 0.00000E+00 0.00000E+00 0.00000E+00 8.41005E-03 8.39612E-03 2.34000E-02
      644 -2.81389E-08 7.55817E-09-2.00000E-03 0.00000E+00 0.00000E+00 0.00000E+00 0.00000E+00 0.00000E+00 0.00000E+00 4.18067E-03 1.02471E-02 2.34000E-02
      645 -3.35554E-08 1.58970E-07-2.00000E-03 0.00000E+00 0.00000E+00 0.00000E+00 0.00000E+00 0.00000E+00 0.00000E+00 4.48217E-03 1.10060E-02 2.34000E-02
      647  0.00000E+00 7.03345E-07-2.00000E-03 0.00000E+00 0.00000E+00 0.00000E+00 0.00000E+00 0.00000E+00 0.00000E+00 6.77700E-19 1.10678E-02 2.34000E-02
      648  0.00000E+00 2.06048E-07-2.00000E-03 0.00000E+00 0.00000E+00 0.00000E+00 0.00000E+00 0.00000E+00 0.00000E+00 7.27700E-19 1.18838E-02 2.34000E-02
      674  1.77253E-07-8.58977E-09-2.00000E-03 0.00000E+00 0.00000E+00 0.00000E+00 0.00000E+00 0.00000E+00 0.00000E+00 7.21318E-03 2.97219E-03 2.34000E-02
      676  1.28761E-07 1.11912E-07-2.00000E-03 0.00000E+00 0.00000E+00 0.00000E+00 0.00000E+00 0.00000E+00 0.00000E+00 5.51773E-03 5.51541E-03 2.34000E-02
      678  1.42756E-07 3.16319E-07-2.00000E-03 0.00000E+00 0.00000E+00 0.00000E+00 0.00000E+00 0.00000E+00 0.00000E+00 2.97494E-03 7.21232E-03 2.34000E-02
      680  0.00000E+00 6.56801E-07-2.00000E-03 0.00000E+00 0.00000E+00 0.00000E+00 0.00000E+00 0.00000E+00 0.00000E+00 4.77700E-19 7.80206E-03 2.34000E-02
      821  1.78158E-07-8.60008E-08-2.00000E-03 0.00000E+00 0.00000E+00 0.00000E+00 0.00000E+00 0.00000E+00 0.00000E+00 9.49218E-03 3.87001E-03 2.34000E-02
      822  1.10699E-07 7.28119E-08-2.00000E-03 0.00000E+00 0.00000E+00 0.00000E+00 0.00000E+00 0.00000E+00 0.00000E+00 7.25301E-03 7.24387E-03 2.34000E-02
      823  2.38405E-08 1.47085E-07-2.00000E-03 0.00000E+00 0.00000E+00 0.00000E+00 0.00000E+00 0.00000E+00 0.00000E+00 3.87932E-03 9.48845E-03 2.34000E-02
      824  0.00000E+00 7.16812E-07-2.00000E-03 0.00000E+00 0.00000E+00 0.00000E+00 0.00000E+00 0.00000E+00 0.00000E+00 6.27700E-19 1.02514E-02 2.34000E-02
      850  2.36752E-07-9.26119E-08-2.00000E-03 0.00000E+00 0.00000E+00 0.00000E+00 0.00000E+00 0.00000E+00 0.00000E+00 1.17712E-02 4.76801E-03 2.34000E-02
      852  3.61012E-08 3.26166E-08-2.00000E-03 0.00000E+00 0.00000E+00 0.00000E+00 0.00000E+00 0.00000E+00 0.00000E+00 8.98834E-03 8.97223E-03 2.34000E-02
      854  2.99497E-07 3.97743E-07-2.00000E-03 0.00000E+00 0.00000E+00 0.00000E+00 0.00000E+00 0.00000E+00 0.00000E+00 4.78400E-03 1.17650E-02 2.34000E-02
      856  0.00000E+00-6.22742E-07-2.00000E-03 0.00000E+00 0.00000E+00 0.00000E+00 0.00000E+00 0.00000E+00 0.00000E+00 7.77700E-19 1.26994E-02 2.34000E-02
