 LS-DYNA keyword deck by LS-PrePost                                      
                    ls-dyna smp d R14 R14.1.1s_1_ef50e1 date 06/16/2024



 n o d a l  s t r e s s  c a l c u l a t i o n s   f o r   t i m e  s t e p        1   ( at time 0.00000E+00 )

 node (global)
          stress       sig-xx      sig-yy      sig-zz      sig-xy      sig-yz      sig-zx       plastic
                                                                                                 strain 
      94-
 mid.  surface     2.6058E-05  2.6058E-05  2.6058E-05  0.0000E+00  0.0000E+00  0.0000E+00  0.0000E+00
      98-
 mid.  surface     3.6315E-05  3.6315E-05  3.6315E-05  0.0000E+00  0.0000E+00  0.0000E+00  0.0000E+00
     100-
 mid.  surface    -1.6011E-04 -1.6011E-04 -1.6011E-04  0.0000E+00  0.0000E+00  0.0000E+00  0.0000E+00
     101-
 mid.  surface    -1.1843E-04 -1.1843E-04 -1.1843E-04  0.0000E+00  0.0000E+00  0.0000E+00  0.0000E+00
     104-
 mid.  surface     2.6058E-05  2.6058E-05  2.6058E-05  0.0000E+00  0.0000E+00  0.0000E+00  0.0000E+00
     105-
 mid.  surface     3.6315E-05  3.6315E-05  3.6315E-05  0.0000E+00  0.0000E+00  0.0000E+00  0.0000E+00
     108-
 mid.  surface    -8.4835E-05 -8.4835E-05 -8.4835E-05  0.0000E+00  0.0000E+00  0.0000E+00  0.0000E+00
     109-
 mid.  surface    -1.2220E-04 -1.2220E-04 -1.2220E-04  0.0000E+00  0.0000E+00  0.0000E+00  0.0000E+00
     112-
 mid.  surface    -4.3161E-05 -4.3161E-05 -4.3161E-05  0.0000E+00  0.0000E+00  0.0000E+00  0.0000E+00
     113-
 mid.  surface    -8.4835E-05 -8.4835E-05 -8.4835E-05  0.0000E+00  0.0000E+00  0.0000E+00  0.0000E+00
     131-
 mid.  surface    -5.2982E-05 -5.2982E-05 -5.2982E-05  0.0000E+00  0.0000E+00  0.0000E+00  0.0000E+00
     134-
 mid.  surface    -1.5617E-05 -1.5617E-05 -1.5617E-05  0.0000E+00  0.0000E+00  0.0000E+00  0.0000E+00
     135-
 mid.  surface     1.2887E-04  1.2887E-04  1.2887E-04  0.0000E+00  0.0000E+00  0.0000E+00  0.0000E+00
     138-
 mid.  surface     1.7055E-04  1.7055E-04  1.7055E-04  0.0000E+00  0.0000E+00  0.0000E+00  0.0000E+00
     139-
 mid.  surface     1.0133E-04  1.0133E-04  1.0133E-04  0.0000E+00  0.0000E+00  0.0000E+00  0.0000E+00
     142-
 mid.  surface     5.9654E-05  5.9654E-05  5.9654E-05  0.0000E+00  0.0000E+00  0.0000E+00  0.0000E+00
     143-
 mid.  surface     1.1159E-04  1.1159E-04  1.1159E-04  0.0000E+00  0.0000E+00  0.0000E+00  0.0000E+00
     146-
 mid.  surface     1.0133E-04  1.0133E-04  1.0133E-04  0.0000E+00  0.0000E+00  0.0000E+00  0.0000E+00
     155-
 mid.  surface     2.1942E-06  2.1942E-06  2.1942E-06  0.0000E+00  0.0000E+00  0.0000E+00  0.0000E+00
     156-
 mid.  surface     3.0263E-05  3.0263E-05  3.0263E-05  0.0000E+00  0.0000E+00  0.0000E+00  0.0000E+00
     157-
 mid.  surface     2.0005E-05  2.0005E-05  2.0005E-05  0.0000E+00  0.0000E+00  0.0000E+00  0.0000E+00
     158-
 mid.  surface    -3.7326E-05 -3.7326E-05 -3.7326E-05  0.0000E+00  0.0000E+00  0.0000E+00  0.0000E+00
     159-
 mid.  surface     2.1940E-06  2.1940E-06  2.1940E-06  0.0000E+00  0.0000E+00  0.0000E+00  0.0000E+00
     160-
 mid.  surface     2.0005E-05  2.0005E-05  2.0005E-05  0.0000E+00  0.0000E+00  0.0000E+00  0.0000E+00
     161-
 mid.  surface    -2.1669E-05 -2.1669E-05 -2.1669E-05  0.0000E+00  0.0000E+00  0.0000E+00  0.0000E+00
     162-
 mid.  surface    -3.7326E-05 -3.7326E-05 -3.7326E-05  0.0000E+00  0.0000E+00  0.0000E+00  0.0000E+00
     163-
 mid.  surface    -1.6644E-06 -1.6644E-06 -1.6644E-06  0.0000E+00  0.0000E+00  0.0000E+00  0.0000E+00
     164-
 mid.  surface    -1.6644E-06 -1.6644E-06 -1.6644E-06  0.0000E+00  0.0000E+00  0.0000E+00  0.0000E+00
     165-
 mid.  surface    -2.8772E-05 -2.8772E-05 -2.8772E-05  0.0000E+00  0.0000E+00  0.0000E+00  0.0000E+00
     166-
 mid.  surface    -1.6644E-06 -1.6644E-06 -1.6644E-06  0.0000E+00  0.0000E+00  0.0000E+00  0.0000E+00
     167-
 mid.  surface    -2.8772E-05 -2.8772E-05 -2.8772E-05  0.0000E+00  0.0000E+00  0.0000E+00  0.0000E+00
     168-
 mid.  surface    -1.6645E-06 -1.6645E-06 -1.6645E-06  0.0000E+00  0.0000E+00  0.0000E+00  0.0000E+00
     169-
 mid.  surface    -1.6645E-06 -1.6645E-06 -1.6645E-06  0.0000E+00  0.0000E+00  0.0000E+00  0.0000E+00
     170-
 mid.  surface    -1.6645E-06 -1.6645E-06 -1.6645E-06  0.0000E+00  0.0000E+00  0.0000E+00  0.0000E+00
     187-
 mid.  surface    -1.5617E-05 -1.5617E-05 -1.5617E-05  0.0000E+00  0.0000E+00  0.0000E+00  0.0000E+00
     188-
 mid.  surface     2.6058E-05  2.6058E-05  2.6058E-05  0.0000E+00  0.0000E+00  0.0000E+00  0.0000E+00
     195-
 mid.  surface     5.0268E-05  5.0268E-05  5.0268E-05  0.0000E+00  0.0000E+00  0.0000E+00  0.0000E+00
     196-
 mid.  surface    -1.6644E-06 -1.6644E-06 -1.6644E-06  0.0000E+00  0.0000E+00  0.0000E+00  0.0000E+00
     197-
 mid.  surface    -8.0704E-05 -8.0704E-05 -8.0704E-05  0.0000E+00  0.0000E+00  0.0000E+00  0.0000E+00
     198-
 mid.  surface    -1.6644E-06 -1.6644E-06 -1.6644E-06  0.0000E+00  0.0000E+00  0.0000E+00  0.0000E+00
     199-
 mid.  surface     5.0268E-05  5.0268E-05  5.0268E-05  0.0000E+00  0.0000E+00  0.0000E+00  0.0000E+00
     200-
 mid.  surface    -1.6645E-06 -1.6645E-06 -1.6645E-06  0.0000E+00  0.0000E+00  0.0000E+00  0.0000E+00
     201-
 mid.  surface    -8.0704E-05 -8.0704E-05 -8.0704E-05  0.0000E+00  0.0000E+00  0.0000E+00  0.0000E+00
     202-
 mid.  surface    -1.6645E-06 -1.6645E-06 -1.6645E-06  0.0000E+00  0.0000E+00  0.0000E+00  0.0000E+00
     219-
 mid.  surface     2.0005E-05  2.0005E-05  2.0005E-05  0.0000E+00  0.0000E+00  0.0000E+00  0.0000E+00
     220-
 mid.  surface    -2.1669E-05 -2.1669E-05 -2.1669E-05  0.0000E+00  0.0000E+00  0.0000E+00  0.0000E+00
     221-
 mid.  surface    -5.9035E-05 -5.9035E-05 -5.9035E-05  0.0000E+00  0.0000E+00  0.0000E+00  0.0000E+00
     222-
 mid.  surface    -2.1669E-05 -2.1669E-05 -2.1669E-05  0.0000E+00  0.0000E+00  0.0000E+00  0.0000E+00
     223-
 mid.  surface     3.0263E-05  3.0263E-05  3.0263E-05  0.0000E+00  0.0000E+00  0.0000E+00  0.0000E+00
     224-
 mid.  surface     2.0005E-05  2.0005E-05  2.0005E-05  0.0000E+00  0.0000E+00  0.0000E+00  0.0000E+00
     225-
 mid.  surface    -2.1669E-05 -2.1669E-05 -2.1669E-05  0.0000E+00  0.0000E+00  0.0000E+00  0.0000E+00
     226-
 mid.  surface     2.0005E-05  2.0005E-05  2.0005E-05  0.0000E+00  0.0000E+00  0.0000E+00  0.0000E+00



 n o d a l  s t r a i n  c a l c u l a t i o n s   f o r   t i m e  s t e p        1   ( at time 0.00000E+00 )

 node (global)
          strain       eps-xx      eps-yy      eps-zz      eps-xy      eps-yz      eps-zx       
      94-
 mid.  surface     0.0000E+00  0.0000E+00  0.0000E+00  0.0000E+00  0.0000E+00  0.0000E+00
      98-
 mid.  surface     0.0000E+00  0.0000E+00  0.0000E+00  0.0000E+00  0.0000E+00  0.0000E+00
     100-
 mid.  surface     0.0000E+00  0.0000E+00  0.0000E+00  0.0000E+00  0.0000E+00  0.0000E+00
     101-
 mid.  surface     0.0000E+00  0.0000E+00  0.0000E+00  0.0000E+00  0.0000E+00  0.0000E+00
     104-
 mid.  surface     0.0000E+00  0.0000E+00  0.0000E+00  0.0000E+00  0.0000E+00  0.0000E+00
     105-
 mid.  surface     0.0000E+00  0.0000E+00  0.0000E+00  0.0000E+00  0.0000E+00  0.0000E+00
     108-
 mid.  surface     0.0000E+00  0.0000E+00  0.0000E+00  0.0000E+00  0.0000E+00  0.0000E+00
     109-
 mid.  surface     0.0000E+00  0.0000E+00  0.0000E+00  0.0000E+00  0.0000E+00  0.0000E+00
     112-
 mid.  surface     0.0000E+00  0.0000E+00  0.0000E+00  0.0000E+00  0.0000E+00  0.0000E+00
     113-
 mid.  surface     0.0000E+00  0.0000E+00  0.0000E+00  0.0000E+00  0.0000E+00  0.0000E+00
     131-
 mid.  surface     0.0000E+00  0.0000E+00  0.0000E+00  0.0000E+00  0.0000E+00  0.0000E+00
     134-
 mid.  surface     0.0000E+00  0.0000E+00  0.0000E+00  0.0000E+00  0.0000E+00  0.0000E+00
     135-
 mid.  surface     0.0000E+00  0.0000E+00  0.0000E+00  0.0000E+00  0.0000E+00  0.0000E+00
     138-
 mid.  surface     0.0000E+00  0.0000E+00  0.0000E+00  0.0000E+00  0.0000E+00  0.0000E+00
     139-
 mid.  surface     0.0000E+00  0.0000E+00  0.0000E+00  0.0000E+00  0.0000E+00  0.0000E+00
     142-
 mid.  surface     0.0000E+00  0.0000E+00  0.0000E+00  0.0000E+00  0.0000E+00  0.0000E+00
     143-
 mid.  surface     0.0000E+00  0.0000E+00  0.0000E+00  0.0000E+00  0.0000E+00  0.0000E+00
     146-
 mid.  surface     0.0000E+00  0.0000E+00  0.0000E+00  0.0000E+00  0.0000E+00  0.0000E+00
     155-
 mid.  surface     0.0000E+00  0.0000E+00  0.0000E+00  0.0000E+00  0.0000E+00  0.0000E+00
     156-
 mid.  surface     0.0000E+00  0.0000E+00  0.0000E+00  0.0000E+00  0.0000E+00  0.0000E+00
     157-
 mid.  surface     0.0000E+00  0.0000E+00  0.0000E+00  0.0000E+00  0.0000E+00  0.0000E+00
     158-
 mid.  surface     0.0000E+00  0.0000E+00  0.0000E+00  0.0000E+00  0.0000E+00  0.0000E+00
     159-
 mid.  surface     0.0000E+00  0.0000E+00  0.0000E+00  0.0000E+00  0.0000E+00  0.0000E+00
     160-
 mid.  surface     0.0000E+00  0.0000E+00  0.0000E+00  0.0000E+00  0.0000E+00  0.0000E+00
     161-
 mid.  surface     0.0000E+00  0.0000E+00  0.0000E+00  0.0000E+00  0.0000E+00  0.0000E+00
     162-
 mid.  surface     0.0000E+00  0.0000E+00  0.0000E+00  0.0000E+00  0.0000E+00  0.0000E+00
     163-
 mid.  surface     0.0000E+00  0.0000E+00  0.0000E+00  0.0000E+00  0.0000E+00  0.0000E+00
     164-
 mid.  surface     0.0000E+00  0.0000E+00  0.0000E+00  0.0000E+00  0.0000E+00  0.0000E+00
     165-
 mid.  surface     0.0000E+00  0.0000E+00  0.0000E+00  0.0000E+00  0.0000E+00  0.0000E+00
     166-
 mid.  surface     0.0000E+00  0.0000E+00  0.0000E+00  0.0000E+00  0.0000E+00  0.0000E+00
     167-
 mid.  surface     0.0000E+00  0.0000E+00  0.0000E+00  0.0000E+00  0.0000E+00  0.0000E+00
     168-
 mid.  surface     0.0000E+00  0.0000E+00  0.0000E+00  0.0000E+00  0.0000E+00  0.0000E+00
     169-
 mid.  surface     0.0000E+00  0.0000E+00  0.0000E+00  0.0000E+00  0.0000E+00  0.0000E+00
     170-
 mid.  surface     0.0000E+00  0.0000E+00  0.0000E+00  0.0000E+00  0.0000E+00  0.0000E+00
     187-
 mid.  surface     0.0000E+00  0.0000E+00  0.0000E+00  0.0000E+00  0.0000E+00  0.0000E+00
     188-
 mid.  surface     0.0000E+00  0.0000E+00  0.0000E+00  0.0000E+00  0.0000E+00  0.0000E+00
     195-
 mid.  surface     0.0000E+00  0.0000E+00  0.0000E+00  0.0000E+00  0.0000E+00  0.0000E+00
     196-
 mid.  surface     0.0000E+00  0.0000E+00  0.0000E+00  0.0000E+00  0.0000E+00  0.0000E+00
     197-
 mid.  surface     0.0000E+00  0.0000E+00  0.0000E+00  0.0000E+00  0.0000E+00  0.0000E+00
     198-
 mid.  surface     0.0000E+00  0.0000E+00  0.0000E+00  0.0000E+00  0.0000E+00  0.0000E+00
     199-
 mid.  surface     0.0000E+00  0.0000E+00  0.0000E+00  0.0000E+00  0.0000E+00  0.0000E+00
     200-
 mid.  surface     0.0000E+00  0.0000E+00  0.0000E+00  0.0000E+00  0.0000E+00  0.0000E+00
     201-
 mid.  surface     0.0000E+00  0.0000E+00  0.0000E+00  0.0000E+00  0.0000E+00  0.0000E+00
     202-
 mid.  surface     0.0000E+00  0.0000E+00  0.0000E+00  0.0000E+00  0.0000E+00  0.0000E+00
     219-
 mid.  surface     0.0000E+00  0.0000E+00  0.0000E+00  0.0000E+00  0.0000E+00  0.0000E+00
     220-
 mid.  surface     0.0000E+00  0.0000E+00  0.0000E+00  0.0000E+00  0.0000E+00  0.0000E+00
     221-
 mid.  surface     0.0000E+00  0.0000E+00  0.0000E+00  0.0000E+00  0.0000E+00  0.0000E+00
     222-
 mid.  surface     0.0000E+00  0.0000E+00  0.0000E+00  0.0000E+00  0.0000E+00  0.0000E+00
     223-
 mid.  surface     0.0000E+00  0.0000E+00  0.0000E+00  0.0000E+00  0.0000E+00  0.0000E+00
     224-
 mid.  surface     0.0000E+00  0.0000E+00  0.0000E+00  0.0000E+00  0.0000E+00  0.0000E+00
     225-
 mid.  surface     0.0000E+00  0.0000E+00  0.0000E+00  0.0000E+00  0.0000E+00  0.0000E+00
     226-
 mid.  surface     0.0000E+00  0.0000E+00  0.0000E+00  0.0000E+00  0.0000E+00  0.0000E+00



 n o d a l  s t r e s s  c a l c u l a t i o n s   f o r   t i m e  s t e p        6   ( at time 2.50000E+00 )

 node (global)
          stress       sig-xx      sig-yy      sig-zz      sig-xy      sig-yz      sig-zx       plastic
                                                                                                 strain 
      94-
 mid.  surface    -9.6674E+07 -9.3951E+07 -2.0646E+08 -7.0202E+06 -4.3954E+07 -4.7252E+07  0.0000E+00
      98-
 mid.  surface    -9.6138E+07 -9.3394E+07 -2.0613E+08 -7.1788E+06  1.5809E+07  1.3151E+07  0.0000E+00
     100-
 mid.  surface    -8.8096E+07 -8.8671E+07 -2.5234E+08  4.1309E+06 -1.0707E+07 -2.3151E+07  0.0000E+00
     101-
 mid.  surface    -8.5166E+07 -8.0243E+07 -2.4600E+08  4.0096E+06 -2.5799E+07 -1.0870E+07  0.0000E+00
     104-
 mid.  surface    -8.7174E+07 -8.7879E+07 -2.5193E+08  3.9427E+06  5.6696E+07  2.4813E+07  0.0000E+00
     105-
 mid.  surface    -8.4253E+07 -7.9319E+07 -2.4555E+08  3.8207E+06  4.7760E+07  4.0158E+07  0.0000E+00
     108-
 mid.  surface    -8.4265E+07 -8.4646E+07 -2.4811E+08  3.7600E+06  4.5291E+06 -1.9907E+07  0.0000E+00
     109-
 mid.  surface    -8.1032E+07 -7.6372E+07 -2.4087E+08  3.5532E+06 -1.6915E+07 -6.3116E+05  0.0000E+00
     112-
 mid.  surface    -8.2891E+07 -8.3431E+07 -2.4746E+08  3.5148E+06  6.5207E+07  2.2631E+07  0.0000E+00
     113-
 mid.  surface    -7.9643E+07 -7.4981E+07 -2.4016E+08  3.3212E+06  5.0906E+07  4.5492E+07  0.0000E+00
     131-
 mid.  surface    -9.4205E+07 -9.4682E+07 -2.7123E+08  2.0587E+06 -5.3848E+07 -4.4801E+07  0.0000E+00
     134-
 mid.  surface    -9.1522E+07 -8.6539E+07 -2.6540E+08  2.1095E+06 -5.5726E+07 -4.0601E+07  0.0000E+00
     135-
 mid.  surface    -9.3003E+07 -9.3468E+07 -2.7026E+08  2.0414E+06  1.0141E+07  6.8498E+06  0.0000E+00
     138-
 mid.  surface    -9.0302E+07 -8.5228E+07 -2.6440E+08  2.1008E+06  1.5362E+07  1.5548E+07  0.0000E+00
     139-
 mid.  surface    -8.9363E+07 -8.9902E+07 -2.6457E+08  1.8219E+06 -6.1877E+07 -5.1348E+07  0.0000E+00
     142-
 mid.  surface    -8.6358E+07 -8.1879E+07 -2.5782E+08  1.7926E+06 -6.3667E+07 -4.4540E+07  0.0000E+00
     143-
 mid.  surface    -8.7622E+07 -8.8062E+07 -2.6314E+08  1.7977E+06 -4.1120E+06 -5.6704E+06  0.0000E+00
     146-
 mid.  surface    -8.4565E+07 -7.9921E+07 -2.5635E+08  1.7920E+06  1.9485E+06  6.1356E+06  0.0000E+00
     155-
 mid.  surface    -8.9055E+07 -7.9269E+07 -2.1385E+08  9.6508E+05  2.1578E+06 -2.0911E+07  0.0000E+00
     156-
 mid.  surface    -9.8930E+07 -8.3941E+07 -2.4396E+08  3.5091E+06  4.8879E+07 -1.5705E+06  0.0000E+00
     157-
 mid.  surface    -9.3528E+07 -9.4572E+07 -2.8452E+08  1.3032E+07  4.2855E+05 -1.5184E+07  0.0000E+00
     158-
 mid.  surface    -7.4605E+07 -8.4498E+07 -2.5066E+08  1.2106E+07 -1.0584E+07 -1.1245E+07  0.0000E+00
     159-
 mid.  surface    -8.8473E+07 -7.8605E+07 -2.1357E+08  8.5740E+05  3.1605E+06  1.7832E+07  0.0000E+00
     160-
 mid.  surface    -9.8109E+07 -8.2892E+07 -2.4332E+08  3.5384E+06 -8.1307E+06  2.0740E+07  0.0000E+00
     161-
 mid.  surface    -9.2796E+07 -9.3870E+07 -2.8419E+08  1.3025E+07 -5.7033E+07 -5.2272E+06  0.0000E+00
     162-
 mid.  surface    -7.3898E+07 -8.3763E+07 -2.5029E+08  1.2029E+07 -1.1937E+07  1.9911E+05  0.0000E+00
     163-
 mid.  surface    -7.8611E+07 -8.0131E+07 -1.8594E+08 -5.0466E+06  5.3713E+06 -4.5742E+07  0.0000E+00
     164-
 mid.  surface    -9.6345E+07 -8.2133E+07 -2.4239E+08  3.4320E+06  7.4062E+07  1.1324E+07  0.0000E+00
     165-
 mid.  surface    -9.1417E+07 -9.2227E+07 -2.8106E+08  1.2522E+07 -3.7631E+07 -2.8243E+07  0.0000E+00
     166-
 mid.  surface    -7.2829E+07 -8.9599E+07 -2.2288E+08  3.9387E+06 -2.0758E+07 -4.3420E+06  0.0000E+00
     167-
 mid.  surface    -7.7053E+07 -7.8474E+07 -1.8500E+08 -5.2212E+06  4.4291E+06 -1.8300E+07  0.0000E+00
     168-
 mid.  surface    -9.4511E+07 -7.9870E+07 -2.4095E+08  3.4705E+06  1.9621E+07  3.2653E+07  0.0000E+00
     169-
 mid.  surface    -8.9741E+07 -9.0708E+07 -2.8031E+08  1.2497E+07 -9.2505E+07 -1.8687E+07  0.0000E+00
     170-
 mid.  surface    -7.1081E+07 -8.7807E+07 -2.2186E+08  3.8719E+06 -2.3073E+07  8.5172E+06  0.0000E+00
     187-
 mid.  surface    -7.5969E+07 -9.6476E+07 -2.4475E+08  5.7211E+06 -2.0301E+07 -5.3498E+06  0.0000E+00
     188-
 mid.  surface    -7.5428E+07 -9.5979E+07 -2.4459E+08  5.5338E+06  3.2283E+07  1.0643E+07  0.0000E+00
     195-
 mid.  surface    -7.1610E+07 -7.6108E+07 -2.3490E+08  4.9521E+06 -1.8420E+07  3.9043E+06  0.0000E+00
     196-
 mid.  surface    -9.0814E+07 -9.4367E+07 -2.6721E+08  3.6191E+06 -7.0025E+06  2.9402E+07  0.0000E+00
     197-
 mid.  surface    -1.0427E+08 -1.0487E+08 -2.9397E+08  4.1929E+06 -3.6201E+06  4.2131E+07  0.0000E+00
     198-
 mid.  surface    -8.4650E+07 -8.6303E+07 -2.6059E+08  5.2703E+06 -1.8803E+07  3.3378E+06  0.0000E+00
     199-
 mid.  surface    -7.1472E+07 -7.5793E+07 -2.3478E+08  4.8624E+06  1.2281E+07 -9.1231E+06  0.0000E+00
     200-
 mid.  surface    -9.0784E+07 -9.4127E+07 -2.6719E+08  3.4991E+06 -7.2326E+04 -4.6763E+07  0.0000E+00
     201-
 mid.  surface    -1.0420E+08 -1.0472E+08 -2.9393E+08  4.0777E+06  4.0953E+06 -3.4084E+07  0.0000E+00
     202-
 mid.  surface    -8.4567E+07 -8.6102E+07 -2.6054E+08  5.1900E+06  1.4551E+07 -1.1116E+07  0.0000E+00
     219-
 mid.  surface    -6.3637E+07 -6.5744E+07 -2.2076E+08  3.3760E+06 -2.4308E+07 -5.7826E+06  0.0000E+00
     220-
 mid.  surface    -7.8658E+07 -8.0625E+07 -2.4801E+08  2.5486E+06 -1.8906E+07 -9.7229E+06  0.0000E+00
     221-
 mid.  surface    -8.7542E+07 -8.7757E+07 -2.6622E+08  2.8115E+06 -1.1041E+06  5.1556E+07  0.0000E+00
     222-
 mid.  surface    -7.3009E+07 -7.3407E+07 -2.3959E+08  3.4655E+06 -1.8735E+07 -8.4930E+06  0.0000E+00
     223-
 mid.  surface    -6.2286E+07 -6.4246E+07 -2.1987E+08  3.0121E+06 -2.3475E+06 -1.8772E+07  0.0000E+00
     224-
 mid.  surface    -7.8055E+07 -7.9342E+07 -2.4758E+08  2.2311E+06 -1.4435E+07 -6.9109E+07  0.0000E+00
     225-
 mid.  surface    -8.6780E+07 -8.6454E+07 -2.6557E+08  2.6969E+06  3.3807E+06 -7.6897E+06  0.0000E+00
     226-
 mid.  surface    -7.2120E+07 -7.2174E+07 -2.3898E+08  3.2731E+06  4.6733E+06 -2.2210E+07  0.0000E+00



 n o d a l  s t r a i n  c a l c u l a t i o n s   f o r   t i m e  s t e p        6   ( at time 2.50000E+00 )

 node (global)
          strain       eps-xx      eps-yy      eps-zz      eps-xy      eps-yz      eps-zx       
      94-
 mid.  surface     5.3384E-05  1.0536E-04 -2.0425E-03 -1.3367E-04 -8.3923E-04 -9.0216E-04
      98-
 mid.  surface     5.6697E-05  1.0911E-04 -2.0428E-03 -1.3675E-04  3.0272E-04  2.5216E-04
     100-
 mid.  surface     3.6970E-04  3.5816E-04 -2.7628E-03  7.8253E-05 -2.0564E-04 -4.4234E-04
     101-
 mid.  surface     3.4097E-04  4.3514E-04 -2.7274E-03  7.6143E-05 -4.9350E-04 -2.0826E-04
     104-
 mid.  surface     3.7627E-04  3.6211E-04 -2.7653E-03  7.4404E-05  1.0822E-03  4.7420E-04
     105-
 mid.  surface     3.4667E-04  4.4078E-04 -2.7296E-03  7.2316E-05  9.1219E-04  7.6657E-04
     108-
 mid.  surface     3.8516E-04  3.7716E-04 -2.7399E-03  7.1276E-05  8.4909E-05 -3.8035E-04
     109-
 mid.  surface     3.5715E-04  4.4658E-04 -2.6926E-03  6.7577E-05 -3.2403E-04 -1.3019E-05
     112-
 mid.  surface     3.9471E-04  3.8347E-04 -2.7431E-03  6.6242E-05  1.2443E-03  4.3254E-04
     113-
 mid.  surface     3.6590E-04  4.5492E-04 -2.6956E-03  6.2843E-05  9.7203E-04  8.6814E-04
     131-
 mid.  surface     4.0035E-04  3.9078E-04 -2.9785E-03  3.9389E-05 -1.0281E-03 -8.5522E-04
     134-
 mid.  surface     3.7171E-04  4.6750E-04 -2.9476E-03  4.0452E-05 -1.0641E-03 -7.7527E-04
     135-
 mid.  surface     4.0863E-04  3.9905E-04 -2.9740E-03  3.8901E-05  1.9541E-04  1.3222E-04
     138-
 mid.  surface     3.7954E-04  4.7691E-04 -2.9433E-03  4.0090E-05  2.9510E-04  2.9799E-04
     139-
 mid.  surface     4.1513E-04  4.0431E-04 -2.9303E-03  3.5265E-05 -1.1808E-03 -9.7976E-04
     142-
 mid.  surface     3.8705E-04  4.7405E-04 -2.8877E-03  3.4683E-05 -1.2152E-03 -8.5015E-04
     143-
 mid.  surface     4.2650E-04  4.1721E-04 -2.9241E-03  3.4581E-05 -7.6344E-05 -1.0650E-04
     146-
 mid.  surface     3.9826E-04  4.8819E-04 -2.8816E-03  3.4399E-05  3.9358E-05  1.1851E-04
     155-
 mid.  surface     1.2742E-04  3.1415E-04 -2.2543E-03  1.8457E-05  4.1562E-05 -3.9913E-04
     156-
 mid.  surface     1.5166E-04  4.3853E-04 -2.6170E-03  6.6767E-05  9.3387E-04 -2.9882E-05
     157-
 mid.  surface     4.7444E-04  4.5444E-04 -3.1709E-03  2.4879E-04  9.7569E-06 -2.8932E-04
     158-
 mid.  surface     5.3488E-04  3.4556E-04 -2.8244E-03  2.3109E-04 -2.0130E-04 -2.1414E-04
     159-
 mid.  surface     1.3046E-04  3.1860E-04 -2.2563E-03  1.6247E-05  5.9811E-05  3.4048E-04
     160-
 mid.  surface     1.5563E-04  4.4662E-04 -2.6158E-03  6.7262E-05 -1.5715E-04  3.9521E-04
     161-
 mid.  surface     4.7906E-04  4.5835E-04 -3.1735E-03  2.4856E-04 -1.0883E-03 -9.9627E-05
     162-
 mid.  surface     5.3905E-04  3.5019E-04 -2.8260E-03  2.2949E-04 -2.2775E-04  3.8077E-06
     163-
 mid.  surface     1.4675E-04  1.2110E-04 -1.9031E-03 -9.5715E-05  1.0266E-04 -8.7231E-04
     164-
 mid.  surface     1.7200E-04  4.4379E-04 -2.6152E-03  6.4490E-05  1.4138E-03  2.1584E-04
     165-
 mid.  surface     4.7845E-04  4.6058E-04 -3.1420E-03  2.3885E-04 -7.1548E-04 -5.3816E-04
     166-
 mid.  surface     4.5282E-04  1.3284E-04 -2.4130E-03  7.6829E-05 -3.9536E-04 -8.2680E-05
     167-
 mid.  surface     1.5616E-04  1.3157E-04 -1.9040E-03 -9.9379E-05  8.3906E-05 -3.4807E-04
     168-
 mid.  surface     1.8127E-04  4.6075E-04 -2.6123E-03  6.5087E-05  3.7192E-04  6.2223E-04
     169-
 mid.  surface     4.8947E-04  4.6836E-04 -3.1474E-03  2.3814E-04 -1.7641E-03 -3.5610E-04
     170-
 mid.  surface     4.6363E-04  1.4385E-04 -2.4144E-03  7.5286E-05 -4.4011E-04  1.6229E-04
     187-
 mid.  surface     5.4463E-04  1.5337E-04 -2.6768E-03  1.0936E-04 -3.8769E-04 -1.0188E-04
     188-
 mid.  surface     5.4799E-04  1.5596E-04 -2.6801E-03  1.0562E-04  6.1598E-04  2.0276E-04
     195-
 mid.  surface     4.6079E-04  3.7616E-04 -2.6534E-03  9.4592E-05 -3.5186E-04  7.4694E-05
     196-
 mid.  surface     4.2967E-04  3.6113E-04 -2.9375E-03  6.9099E-05 -1.3356E-04  5.6237E-04
     197-
 mid.  surface     4.1513E-04  4.0295E-04 -3.2062E-03  8.0027E-05 -6.9084E-05  8.0519E-04
     198-
 mid.  surface     4.4585E-04  4.1535E-04 -2.9101E-03  1.0065E-04 -3.5926E-04  6.3907E-05
     199-
 mid.  surface     4.6060E-04  3.7935E-04 -2.6539E-03  9.2868E-05  2.3494E-04 -1.7407E-04
     200-
 mid.  surface     4.2849E-04  3.6390E-04 -2.9389E-03  6.6818E-05 -1.1912E-06 -8.9298E-04
     201-
 mid.  surface     4.1514E-04  4.0442E-04 -3.2067E-03  7.7824E-05  7.8172E-05 -6.5172E-04
     202-
 mid.  surface     4.4569E-04  4.1742E-04 -2.9108E-03  9.9110E-05  2.7831E-04 -2.1201E-04
     219-
 mid.  surface     4.5892E-04  4.1891E-04 -2.5397E-03  6.4842E-05 -4.6371E-04 -1.0974E-04
     220-
 mid.  surface     4.4644E-04  4.0865E-04 -2.7862E-03  4.8802E-05 -3.6025E-04 -1.8337E-04
     221-
 mid.  surface     4.3905E-04  4.3516E-04 -2.9701E-03  5.3374E-05 -2.1016E-05  9.8446E-04
     222-
 mid.  surface     4.5167E-04  4.4398E-04 -2.7277E-03  6.6324E-05 -3.5754E-04 -1.6135E-04
     223-
 mid.  surface     4.6649E-04  4.2929E-04 -2.5409E-03  5.7854E-05 -4.4004E-05 -3.5785E-04
     224-
 mid.  surface     4.4553E-04  4.2053E-04 -2.7907E-03  4.2763E-05 -2.7486E-04 -1.3181E-03
     225-
 mid.  surface     4.4035E-04  4.4668E-04 -2.9709E-03  5.1162E-05  6.4540E-05 -1.4808E-04
     226-
 mid.  surface     4.5500E-04  4.5386E-04 -2.7296E-03  6.2605E-05  8.9817E-05 -4.2333E-04
