 LS-DYNA keyword deck by LS-PrePost                                      
                    ls-dyna smp d R14 R14.1.1s_1_ef50e1 date 06/16/2024



 e l e m e n t   s t r e s s   c a l c u l a t i o n s   f o r   t i m e  s t e p        1   ( at time 0.00000E+00 )

 element  materl
     ipt  stress       sig-xx      sig-yy      sig-zz      sig-xy      sig-yz      sig-zx                       yield
           state                                                                                  effsg      function
      45-      1
       1          -1.9509E-06 -1.9509E-06 -1.9509E-06  0.0000E+00  0.0000E+00  0.0000E+00    0.0000E+00    0.0000E+00
      47-      1
       1          -3.9019E-06 -3.9019E-06 -3.9019E-06  0.0000E+00  0.0000E+00  0.0000E+00    0.0000E+00    0.0000E+00
      53-      1
       1          -1.9509E-06 -1.9509E-06 -1.9509E-06  0.0000E+00  0.0000E+00  0.0000E+00    0.0000E+00    0.0000E+00
      61-      1
       1          -3.9019E-06 -3.9019E-06 -3.9019E-06  0.0000E+00  0.0000E+00  0.0000E+00    0.0000E+00    0.0000E+00
      67-      1
       1          -1.9509E-06 -1.9509E-06 -1.9509E-06  0.0000E+00  0.0000E+00  0.0000E+00    0.0000E+00    0.0000E+00
      79-      1
       1          -1.9509E-06 -1.9509E-06 -1.9509E-06  0.0000E+00  0.0000E+00  0.0000E+00    0.0000E+00    0.0000E+00
      81-      1
       1          -1.9509E-06 -1.9509E-06 -1.9509E-06  0.0000E+00  0.0000E+00  0.0000E+00    0.0000E+00    0.0000E+00



 e l e m e n t   s t r a i n   c a l c u l a t i o n s   f o r   t i m e  s t e p        1   ( at time  0.00000E+00 )

 element  strain       eps-xx      eps-yy      eps-zz      eps-xy      eps-yz      eps-zx                            yield
 num/ipt   state
      45-      1
      1            0.0000E+00  0.0000E+00  0.0000E+00  0.0000E+00  0.0000E+00  0.0000E+00
      47-      1
      1            0.0000E+00  0.0000E+00  0.0000E+00  0.0000E+00  0.0000E+00  0.0000E+00
      53-      1
      1            0.0000E+00  0.0000E+00  0.0000E+00  0.0000E+00  0.0000E+00  0.0000E+00
      61-      1
      1            0.0000E+00  0.0000E+00  0.0000E+00  0.0000E+00  0.0000E+00  0.0000E+00
      67-      1
      1            0.0000E+00  0.0000E+00  0.0000E+00  0.0000E+00  0.0000E+00  0.0000E+00
      79-      1
      1            0.0000E+00  0.0000E+00  0.0000E+00  0.0000E+00  0.0000E+00  0.0000E+00
      81-      1
      1            0.0000E+00  0.0000E+00  0.0000E+00  0.0000E+00  0.0000E+00  0.0000E+00



 e l e m e n t   s t r e s s   c a l c u l a t i o n s   f o r   t i m e  s t e p        6   ( at time 2.50000E+00 )

 element  materl
     ipt  stress       sig-xx      sig-yy      sig-zz      sig-xy      sig-yz      sig-zx                       yield
           state                                                                                  effsg      function
      45-      1
       1          -8.9227E+07 -8.8572E+07 -2.3798E+08  1.5463E+06 -2.0928E+06 -1.3751E+06    1.4917E+08    0.0000E+00
      47-      1
       1          -8.6625E+07 -8.6049E+07 -2.3613E+08  1.4884E+06 -4.8152E+06 -3.1708E+06    1.5015E+08    0.0000E+00
      53-      1
       1          -8.8823E+07 -8.8013E+07 -2.4148E+08  2.7687E+06 -2.2741E+06 -1.7681E+06    1.5322E+08    0.0000E+00
      61-      1
       1          -8.6661E+07 -9.1462E+07 -2.6458E+08  3.4197E+06 -1.7359E+06 -3.1966E+06    1.7578E+08    0.0000E+00
      67-      1
       1          -7.4681E+07 -7.7353E+07 -2.4439E+08  2.1925E+06 -7.2407E+06 -1.3162E+07    1.7043E+08    0.0000E+00
      79-      1
       1          -8.8115E+07 -8.6371E+07 -2.5406E+08  2.6495E+06 -3.3943E+06 -4.1872E+06    1.6715E+08    0.0000E+00
      81-      1
       1          -8.3442E+07 -8.1902E+07 -2.4845E+08  2.3455E+06 -5.0738E+06 -6.2819E+06    1.6642E+08    0.0000E+00



 e l e m e n t   s t r a i n   c a l c u l a t i o n s   f o r   t i m e  s t e p        6   ( at time  2.50000E+00 )

 element  strain       eps-xx      eps-yy      eps-zz      eps-xy      eps-yz      eps-zx                            yield
 num/ipt   state
      45-      1
      1            2.8439E-04  2.9682E-04 -2.5543E-03  2.9533E-05 -3.9853E-05 -2.6199E-05
      47-      1
      1            3.0078E-04  3.1185E-04 -2.5528E-03  2.8485E-05 -9.1696E-05 -6.0410E-05
      53-      1
      1            3.0418E-04  3.1964E-04 -2.6091E-03  5.2824E-05 -4.3305E-05 -3.3674E-05
      61-      1
      1            4.6165E-04  3.7011E-04 -2.9334E-03  6.5292E-05 -3.3052E-05 -6.0846E-05
      67-      1
      1            4.6928E-04  4.1823E-04 -2.7696E-03  4.1924E-05 -1.3788E-04 -2.5056E-04
      79-      1
      1            3.6638E-04  3.9960E-04 -2.8002E-03  5.0413E-05 -6.4583E-05 -7.9711E-05
      81-      1
      1            3.8508E-04  4.1449E-04 -2.7638E-03  4.4728E-05 -9.6546E-05 -1.1959E-04
