 LS-DYNA keyword deck by LS-PrePost                                      
                    ls-dyna smp d R14 R14.1.1s_1_ef50e1 date 06/16/2024
 single point constraint forces

 output at time =   0.00000E+00
 node=    54 local x,y,z forces =    0.0000E+00    0.0000E+00    0.0000E+00  setid=       0
 node=    54 local x,y,z moments=    0.0000E+00    0.0000E+00    0.0000E+00  setid=       0
 node=    55 local x,y,z forces =    0.0000E+00    0.0000E+00    0.0000E+00  setid=       0
 node=    55 local x,y,z moments=    0.0000E+00    0.0000E+00    0.0000E+00  setid=       0
 node=    56 local x,y,z forces =    0.0000E+00    0.0000E+00    0.0000E+00  setid=       0
 node=    56 local x,y,z moments=    0.0000E+00    0.0000E+00    0.0000E+00  setid=       0
 node=    57 local x,y,z forces =    0.0000E+00    0.0000E+00    0.0000E+00  setid=       0
 node=    57 local x,y,z moments=    0.0000E+00    0.0000E+00    0.0000E+00  setid=       0
 node=    58 local x,y,z forces =    0.0000E+00    0.0000E+00    0.0000E+00  setid=       0
 node=    58 local x,y,z moments=    0.0000E+00    0.0000E+00    0.0000E+00  setid=       0
 node=    59 local x,y,z forces =    0.0000E+00    0.0000E+00    0.0000E+00  setid=       0
 node=    59 local x,y,z moments=    0.0000E+00    0.0000E+00    0.0000E+00  setid=       0
 node=    60 local x,y,z forces =    0.0000E+00    0.0000E+00    0.0000E+00  setid=       0
 node=    60 local x,y,z moments=    0.0000E+00    0.0000E+00    0.0000E+00  setid=       0
 node=    61 local x,y,z forces =    0.0000E+00    0.0000E+00    0.0000E+00  setid=       0
 node=    61 local x,y,z moments=    0.0000E+00    0.0000E+00    0.0000E+00  setid=       0
 node=    62 local x,y,z forces =    0.0000E+00    0.0000E+00    0.0000E+00  setid=       0
 node=    62 local x,y,z moments=    0.0000E+00    0.0000E+00    0.0000E+00  setid=       0
 node=    63 local x,y,z forces =    0.0000E+00    0.0000E+00    0.0000E+00  setid=       0
 node=    63 local x,y,z moments=    0.0000E+00    0.0000E+00    0.0000E+00  setid=       0
 node=    64 local x,y,z forces =    0.0000E+00    0.0000E+00    0.0000E+00  setid=       0
 node=    64 local x,y,z moments=    0.0000E+00    0.0000E+00    0.0000E+00  setid=       0
 node=    65 local x,y,z forces =    0.0000E+00    0.0000E+00    0.0000E+00  setid=       0
 node=    65 local x,y,z moments=    0.0000E+00    0.0000E+00    0.0000E+00  setid=       0
 node=    66 local x,y,z forces =    0.0000E+00    0.0000E+00    0.0000E+00  setid=       0
 node=    66 local x,y,z moments=    0.0000E+00    0.0000E+00    0.0000E+00  setid=       0
 node=    67 local x,y,z forces =    0.0000E+00    0.0000E+00    0.0000E+00  setid=       0
 node=    67 local x,y,z moments=    0.0000E+00    0.0000E+00    0.0000E+00  setid=       0
 node=    68 local x,y,z forces =    0.0000E+00    0.0000E+00    0.0000E+00  setid=       0
 node=    68 local x,y,z moments=    0.0000E+00    0.0000E+00    0.0000E+00  setid=       0
 node=    69 local x,y,z forces =    0.0000E+00    0.0000E+00    0.0000E+00  setid=       0
 node=    69 local x,y,z moments=    0.0000E+00    0.0000E+00    0.0000E+00  setid=       0
 node=    70 local x,y,z forces =    0.0000E+00    0.0000E+00    0.0000E+00  setid=       0
 node=    70 local x,y,z moments=    0.0000E+00    0.0000E+00    0.0000E+00  setid=       0
 node=    71 local x,y,z forces =    0.0000E+00    0.0000E+00    0.0000E+00  setid=       0
 node=    71 local x,y,z moments=    0.0000E+00    0.0000E+00    0.0000E+00  setid=       0
 node=    72 local x,y,z forces =    0.0000E+00    0.0000E+00    0.0000E+00  setid=       0
 node=    72 local x,y,z moments=    0.0000E+00    0.0000E+00    0.0000E+00  setid=       0
 node=    73 local x,y,z forces =    0.0000E+00    0.0000E+00    0.0000E+00  setid=       0
 node=    73 local x,y,z moments=    0.0000E+00    0.0000E+00    0.0000E+00  setid=       0
 node=    74 local x,y,z forces =    0.0000E+00    0.0000E+00    0.0000E+00  setid=       0
 node=    74 local x,y,z moments=    0.0000E+00    0.0000E+00    0.0000E+00  setid=       0
 node=    75 local x,y,z forces =    0.0000E+00    0.0000E+00    0.0000E+00  setid=       0
 node=    75 local x,y,z moments=    0.0000E+00    0.0000E+00    0.0000E+00  setid=       0
 node=    76 local x,y,z forces =    0.0000E+00    0.0000E+00    0.0000E+00  setid=       0
 node=    76 local x,y,z moments=    0.0000E+00    0.0000E+00    0.0000E+00  setid=       0
 node=    77 local x,y,z forces =    0.0000E+00    0.0000E+00    0.0000E+00  setid=       0
 node=    77 local x,y,z moments=    0.0000E+00    0.0000E+00    0.0000E+00  setid=       0
 node=    78 local x,y,z forces =    0.0000E+00    0.0000E+00    0.0000E+00  setid=       0
 node=    78 local x,y,z moments=    0.0000E+00    0.0000E+00    0.0000E+00  setid=       0
 node=    79 local x,y,z forces =    0.0000E+00    0.0000E+00    0.0000E+00  setid=       0
 node=    79 local x,y,z moments=    0.0000E+00    0.0000E+00    0.0000E+00  setid=       0
 node=    80 local x,y,z forces =    0.0000E+00    0.0000E+00    0.0000E+00  setid=       0
 node=    80 local x,y,z moments=    0.0000E+00    0.0000E+00    0.0000E+00  setid=       0
 node=    81 local x,y,z forces =    0.0000E+00    0.0000E+00    0.0000E+00  setid=       0
 node=    81 local x,y,z moments=    0.0000E+00    0.0000E+00    0.0000E+00  setid=       0
 node=    82 local x,y,z forces =    0.0000E+00    0.0000E+00    0.0000E+00  setid=       0
 node=    82 local x,y,z moments=    0.0000E+00    0.0000E+00    0.0000E+00  setid=       0
 node=    83 local x,y,z forces =    0.0000E+00    0.0000E+00    0.0000E+00  setid=       0
 node=    83 local x,y,z moments=    0.0000E+00    0.0000E+00    0.0000E+00  setid=       0
 node=    84 local x,y,z forces =    0.0000E+00    0.0000E+00    0.0000E+00  setid=       0
 node=    84 local x,y,z moments=    0.0000E+00    0.0000E+00    0.0000E+00  setid=       0
 node=    85 local x,y,z forces =    0.0000E+00    0.0000E+00    0.0000E+00  setid=       0
 node=    85 local x,y,z moments=    0.0000E+00    0.0000E+00    0.0000E+00  setid=       0
 node=    86 local x,y,z forces =    0.0000E+00    0.0000E+00    0.0000E+00  setid=       0
 node=    86 local x,y,z moments=    0.0000E+00    0.0000E+00    0.0000E+00  setid=       0
 node=    87 local x,y,z forces =    0.0000E+00    0.0000E+00    0.0000E+00  setid=       0
 node=    87 local x,y,z moments=    0.0000E+00    0.0000E+00    0.0000E+00  setid=       0
 node=    88 local x,y,z forces =    0.0000E+00    0.0000E+00    0.0000E+00  setid=       0
 node=    88 local x,y,z moments=    0.0000E+00    0.0000E+00    0.0000E+00  setid=       0
 node=    89 local x,y,z forces =    0.0000E+00    0.0000E+00    0.0000E+00  setid=       0
 node=    89 local x,y,z moments=    0.0000E+00    0.0000E+00    0.0000E+00  setid=       0
 node=    90 local x,y,z forces =    0.0000E+00    0.0000E+00    0.0000E+00  setid=       0
 node=    90 local x,y,z moments=    0.0000E+00    0.0000E+00    0.0000E+00  setid=       0
 node=   156 local x,y,z forces =    0.0000E+00    0.0000E+00    0.0000E+00  setid=       0
 node=   156 local x,y,z moments=    0.0000E+00    0.0000E+00    0.0000E+00  setid=       0
 node=   157 local x,y,z forces =    0.0000E+00    0.0000E+00    0.0000E+00  setid=       0
 node=   157 local x,y,z moments=    0.0000E+00    0.0000E+00    0.0000E+00  setid=       0
 node=   160 local x,y,z forces =    0.0000E+00    0.0000E+00    0.0000E+00  setid=       0
 node=   160 local x,y,z moments=    0.0000E+00    0.0000E+00    0.0000E+00  setid=       0
 node=   161 local x,y,z forces =    0.0000E+00    0.0000E+00    0.0000E+00  setid=       0
 node=   161 local x,y,z moments=    0.0000E+00    0.0000E+00    0.0000E+00  setid=       0
 node=   164 local x,y,z forces =    0.0000E+00    0.0000E+00    0.0000E+00  setid=       0
 node=   164 local x,y,z moments=    0.0000E+00    0.0000E+00    0.0000E+00  setid=       0
 node=   165 local x,y,z forces =    0.0000E+00    0.0000E+00    0.0000E+00  setid=       0
 node=   165 local x,y,z moments=    0.0000E+00    0.0000E+00    0.0000E+00  setid=       0
 node=   168 local x,y,z forces =    0.0000E+00    0.0000E+00    0.0000E+00  setid=       0
 node=   168 local x,y,z moments=    0.0000E+00    0.0000E+00    0.0000E+00  setid=       0
 node=   169 local x,y,z forces =    0.0000E+00    0.0000E+00    0.0000E+00  setid=       0
 node=   169 local x,y,z moments=    0.0000E+00    0.0000E+00    0.0000E+00  setid=       0
 node=   172 local x,y,z forces =    0.0000E+00    0.0000E+00    0.0000E+00  setid=       0
 node=   172 local x,y,z moments=    0.0000E+00    0.0000E+00    0.0000E+00  setid=       0
 node=   173 local x,y,z forces =    0.0000E+00    0.0000E+00    0.0000E+00  setid=       0
 node=   173 local x,y,z moments=    0.0000E+00    0.0000E+00    0.0000E+00  setid=       0
 node=   176 local x,y,z forces =    0.0000E+00    0.0000E+00    0.0000E+00  setid=       0
 node=   176 local x,y,z moments=    0.0000E+00    0.0000E+00    0.0000E+00  setid=       0
 node=   177 local x,y,z forces =    0.0000E+00    0.0000E+00    0.0000E+00  setid=       0
 node=   177 local x,y,z moments=    0.0000E+00    0.0000E+00    0.0000E+00  setid=       0
 node=   180 local x,y,z forces =    0.0000E+00    0.0000E+00    0.0000E+00  setid=       0
 node=   180 local x,y,z moments=    0.0000E+00    0.0000E+00    0.0000E+00  setid=       0
 node=   181 local x,y,z forces =    0.0000E+00    0.0000E+00    0.0000E+00  setid=       0
 node=   181 local x,y,z moments=    0.0000E+00    0.0000E+00    0.0000E+00  setid=       0
 node=   184 local x,y,z forces =    0.0000E+00    0.0000E+00    0.0000E+00  setid=       0
 node=   184 local x,y,z moments=    0.0000E+00    0.0000E+00    0.0000E+00  setid=       0
 node=   185 local x,y,z forces =    0.0000E+00    0.0000E+00    0.0000E+00  setid=       0
 node=   185 local x,y,z moments=    0.0000E+00    0.0000E+00    0.0000E+00  setid=       0
 node=   228 local x,y,z forces =    0.0000E+00    0.0000E+00    0.0000E+00  setid=       0
 node=   228 local x,y,z moments=    0.0000E+00    0.0000E+00    0.0000E+00  setid=       0
 node=   229 local x,y,z forces =    0.0000E+00    0.0000E+00    0.0000E+00  setid=       0
 node=   229 local x,y,z moments=    0.0000E+00    0.0000E+00    0.0000E+00  setid=       0
 node=   230 local x,y,z forces =    0.0000E+00    0.0000E+00    0.0000E+00  setid=       0
 node=   230 local x,y,z moments=    0.0000E+00    0.0000E+00    0.0000E+00  setid=       0
 node=   232 local x,y,z forces =    0.0000E+00    0.0000E+00    0.0000E+00  setid=       0
 node=   232 local x,y,z moments=    0.0000E+00    0.0000E+00    0.0000E+00  setid=       0
 node=   233 local x,y,z forces =    0.0000E+00    0.0000E+00    0.0000E+00  setid=       0
 node=   233 local x,y,z moments=    0.0000E+00    0.0000E+00    0.0000E+00  setid=       0
 node=   234 local x,y,z forces =    0.0000E+00    0.0000E+00    0.0000E+00  setid=       0
 node=   234 local x,y,z moments=    0.0000E+00    0.0000E+00    0.0000E+00  setid=       0
 node=   236 local x,y,z forces =    0.0000E+00    0.0000E+00    0.0000E+00  setid=       0
 node=   236 local x,y,z moments=    0.0000E+00    0.0000E+00    0.0000E+00  setid=       0
 node=   237 local x,y,z forces =    0.0000E+00    0.0000E+00    0.0000E+00  setid=       0
 node=   237 local x,y,z moments=    0.0000E+00    0.0000E+00    0.0000E+00  setid=       0
 node=   238 local x,y,z forces =    0.0000E+00    0.0000E+00    0.0000E+00  setid=       0
 node=   238 local x,y,z moments=    0.0000E+00    0.0000E+00    0.0000E+00  setid=       0
 node=   240 local x,y,z forces =    0.0000E+00    0.0000E+00    0.0000E+00  setid=       0
 node=   240 local x,y,z moments=    0.0000E+00    0.0000E+00    0.0000E+00  setid=       0
 node=   241 local x,y,z forces =    0.0000E+00    0.0000E+00    0.0000E+00  setid=       0
 node=   241 local x,y,z moments=    0.0000E+00    0.0000E+00    0.0000E+00  setid=       0
 node=   242 local x,y,z forces =    0.0000E+00    0.0000E+00    0.0000E+00  setid=       0
 node=   242 local x,y,z moments=    0.0000E+00    0.0000E+00    0.0000E+00  setid=       0
 node=   244 local x,y,z forces =    0.0000E+00    0.0000E+00    0.0000E+00  setid=       0
 node=   244 local x,y,z moments=    0.0000E+00    0.0000E+00    0.0000E+00  setid=       0
 node=   245 local x,y,z forces =    0.0000E+00    0.0000E+00    0.0000E+00  setid=       0
 node=   245 local x,y,z moments=    0.0000E+00    0.0000E+00    0.0000E+00  setid=       0
 node=   246 local x,y,z forces =    0.0000E+00    0.0000E+00    0.0000E+00  setid=       0
 node=   246 local x,y,z moments=    0.0000E+00    0.0000E+00    0.0000E+00  setid=       0
 node=   248 local x,y,z forces =    0.0000E+00    0.0000E+00    0.0000E+00  setid=       0
 node=   248 local x,y,z moments=    0.0000E+00    0.0000E+00    0.0000E+00  setid=       0
 node=   249 local x,y,z forces =    0.0000E+00    0.0000E+00    0.0000E+00  setid=       0
 node=   249 local x,y,z moments=    0.0000E+00    0.0000E+00    0.0000E+00  setid=       0
 node=   250 local x,y,z forces =    0.0000E+00    0.0000E+00    0.0000E+00  setid=       0
 node=   250 local x,y,z moments=    0.0000E+00    0.0000E+00    0.0000E+00  setid=       0
 node=   252 local x,y,z forces =    0.0000E+00    0.0000E+00    0.0000E+00  setid=       0
 node=   252 local x,y,z moments=    0.0000E+00    0.0000E+00    0.0000E+00  setid=       0
 node=   253 local x,y,z forces =    0.0000E+00    0.0000E+00    0.0000E+00  setid=       0
 node=   253 local x,y,z moments=    0.0000E+00    0.0000E+00    0.0000E+00  setid=       0
 node=   254 local x,y,z forces =    0.0000E+00    0.0000E+00    0.0000E+00  setid=       0
 node=   254 local x,y,z moments=    0.0000E+00    0.0000E+00    0.0000E+00  setid=       0
 node=   256 local x,y,z forces =    0.0000E+00    0.0000E+00    0.0000E+00  setid=       0
 node=   256 local x,y,z moments=    0.0000E+00    0.0000E+00    0.0000E+00  setid=       0
 node=   257 local x,y,z forces =    0.0000E+00    0.0000E+00    0.0000E+00  setid=       0
 node=   257 local x,y,z moments=    0.0000E+00    0.0000E+00    0.0000E+00  setid=       0
 node=   258 local x,y,z forces =    0.0000E+00    0.0000E+00    0.0000E+00  setid=       0
 node=   258 local x,y,z moments=    0.0000E+00    0.0000E+00    0.0000E+00  setid=       0
 node=   292 local x,y,z forces =    0.0000E+00    0.0000E+00    0.0000E+00  setid=       0
 node=   292 local x,y,z moments=    0.0000E+00    0.0000E+00    0.0000E+00  setid=       0
 node=   293 local x,y,z forces =    0.0000E+00    0.0000E+00    0.0000E+00  setid=       0
 node=   293 local x,y,z moments=    0.0000E+00    0.0000E+00    0.0000E+00  setid=       0
 node=   295 local x,y,z forces =    0.0000E+00    0.0000E+00    0.0000E+00  setid=       0
 node=   295 local x,y,z moments=    0.0000E+00    0.0000E+00    0.0000E+00  setid=       0
 node=   296 local x,y,z forces =    0.0000E+00    0.0000E+00    0.0000E+00  setid=       0
 node=   296 local x,y,z moments=    0.0000E+00    0.0000E+00    0.0000E+00  setid=       0
 node=   298 local x,y,z forces =    0.0000E+00    0.0000E+00    0.0000E+00  setid=       0
 node=   298 local x,y,z moments=    0.0000E+00    0.0000E+00    0.0000E+00  setid=       0
 node=   299 local x,y,z forces =    0.0000E+00    0.0000E+00    0.0000E+00  setid=       0
 node=   299 local x,y,z moments=    0.0000E+00    0.0000E+00    0.0000E+00  setid=       0
 node=   301 local x,y,z forces =    0.0000E+00    0.0000E+00    0.0000E+00  setid=       0
 node=   301 local x,y,z moments=    0.0000E+00    0.0000E+00    0.0000E+00  setid=       0
 node=   302 local x,y,z forces =    0.0000E+00    0.0000E+00    0.0000E+00  setid=       0
 node=   302 local x,y,z moments=    0.0000E+00    0.0000E+00    0.0000E+00  setid=       0
 node=   304 local x,y,z forces =    0.0000E+00    0.0000E+00    0.0000E+00  setid=       0
 node=   304 local x,y,z moments=    0.0000E+00    0.0000E+00    0.0000E+00  setid=       0
 node=   305 local x,y,z forces =    0.0000E+00    0.0000E+00    0.0000E+00  setid=       0
 node=   305 local x,y,z moments=    0.0000E+00    0.0000E+00    0.0000E+00  setid=       0
 node=   307 local x,y,z forces =    0.0000E+00    0.0000E+00    0.0000E+00  setid=       0
 node=   307 local x,y,z moments=    0.0000E+00    0.0000E+00    0.0000E+00  setid=       0
 node=   308 local x,y,z forces =    0.0000E+00    0.0000E+00    0.0000E+00  setid=       0
 node=   308 local x,y,z moments=    0.0000E+00    0.0000E+00    0.0000E+00  setid=       0
 node=   310 local x,y,z forces =    0.0000E+00    0.0000E+00    0.0000E+00  setid=       0
 node=   310 local x,y,z moments=    0.0000E+00    0.0000E+00    0.0000E+00  setid=       0
 node=   311 local x,y,z forces =    0.0000E+00    0.0000E+00    0.0000E+00  setid=       0
 node=   311 local x,y,z moments=    0.0000E+00    0.0000E+00    0.0000E+00  setid=       0
 node=   313 local x,y,z forces =    0.0000E+00    0.0000E+00    0.0000E+00  setid=       0
 node=   313 local x,y,z moments=    0.0000E+00    0.0000E+00    0.0000E+00  setid=       0
 node=   314 local x,y,z forces =    0.0000E+00    0.0000E+00    0.0000E+00  setid=       0
 node=   314 local x,y,z moments=    0.0000E+00    0.0000E+00    0.0000E+00  setid=       0
 node=   316 local x,y,z forces =    0.0000E+00    0.0000E+00    0.0000E+00  setid=       0
 node=   316 local x,y,z moments=    0.0000E+00    0.0000E+00    0.0000E+00  setid=       0
 node=   317 local x,y,z forces =    0.0000E+00    0.0000E+00    0.0000E+00  setid=       0
 node=   317 local x,y,z moments=    0.0000E+00    0.0000E+00    0.0000E+00  setid=       0
 node=   320 local x,y,z forces =    0.0000E+00    0.0000E+00    0.0000E+00  setid=       0
 node=   320 local x,y,z moments=    0.0000E+00    0.0000E+00    0.0000E+00  setid=       0
 node=   321 local x,y,z forces =    0.0000E+00    0.0000E+00    0.0000E+00  setid=       0
 node=   321 local x,y,z moments=    0.0000E+00    0.0000E+00    0.0000E+00  setid=       0
 node=   324 local x,y,z forces =    0.0000E+00    0.0000E+00    0.0000E+00  setid=       0
 node=   324 local x,y,z moments=    0.0000E+00    0.0000E+00    0.0000E+00  setid=       0
 node=   325 local x,y,z forces =    0.0000E+00    0.0000E+00    0.0000E+00  setid=       0
 node=   325 local x,y,z moments=    0.0000E+00    0.0000E+00    0.0000E+00  setid=       0
 node=   328 local x,y,z forces =    0.0000E+00    0.0000E+00    0.0000E+00  setid=       0
 node=   328 local x,y,z moments=    0.0000E+00    0.0000E+00    0.0000E+00  setid=       0
 node=   329 local x,y,z forces =    0.0000E+00    0.0000E+00    0.0000E+00  setid=       0
 node=   329 local x,y,z moments=    0.0000E+00    0.0000E+00    0.0000E+00  setid=       0
 node=   332 local x,y,z forces =    0.0000E+00    0.0000E+00    0.0000E+00  setid=       0
 node=   332 local x,y,z moments=    0.0000E+00    0.0000E+00    0.0000E+00  setid=       0
 node=   333 local x,y,z forces =    0.0000E+00    0.0000E+00    0.0000E+00  setid=       0
 node=   333 local x,y,z moments=    0.0000E+00    0.0000E+00    0.0000E+00  setid=       0
 node=   336 local x,y,z forces =    0.0000E+00    0.0000E+00    0.0000E+00  setid=       0
 node=   336 local x,y,z moments=    0.0000E+00    0.0000E+00    0.0000E+00  setid=       0
 node=   337 local x,y,z forces =    0.0000E+00    0.0000E+00    0.0000E+00  setid=       0
 node=   337 local x,y,z moments=    0.0000E+00    0.0000E+00    0.0000E+00  setid=       0
 node=   340 local x,y,z forces =    0.0000E+00    0.0000E+00    0.0000E+00  setid=       0
 node=   340 local x,y,z moments=    0.0000E+00    0.0000E+00    0.0000E+00  setid=       0
 node=   341 local x,y,z forces =    0.0000E+00    0.0000E+00    0.0000E+00  setid=       0
 node=   341 local x,y,z moments=    0.0000E+00    0.0000E+00    0.0000E+00  setid=       0
 node=   344 local x,y,z forces =    0.0000E+00    0.0000E+00    0.0000E+00  setid=       0
 node=   344 local x,y,z moments=    0.0000E+00    0.0000E+00    0.0000E+00  setid=       0
 node=   345 local x,y,z forces =    0.0000E+00    0.0000E+00    0.0000E+00  setid=       0
 node=   345 local x,y,z moments=    0.0000E+00    0.0000E+00    0.0000E+00  setid=       0
 node=   355 local x,y,z forces =    0.0000E+00    0.0000E+00    0.0000E+00  setid=       0
 node=   355 local x,y,z moments=    0.0000E+00    0.0000E+00    0.0000E+00  setid=       0
 node=   356 local x,y,z forces =    0.0000E+00    0.0000E+00    0.0000E+00  setid=       0
 node=   356 local x,y,z moments=    0.0000E+00    0.0000E+00    0.0000E+00  setid=       0
 node=   357 local x,y,z forces =    0.0000E+00    0.0000E+00    0.0000E+00  setid=       0
 node=   357 local x,y,z moments=    0.0000E+00    0.0000E+00    0.0000E+00  setid=       0
 node=   358 local x,y,z forces =    0.0000E+00    0.0000E+00    0.0000E+00  setid=       0
 node=   358 local x,y,z moments=    0.0000E+00    0.0000E+00    0.0000E+00  setid=       0
 node=   359 local x,y,z forces =    0.0000E+00    0.0000E+00    0.0000E+00  setid=       0
 node=   359 local x,y,z moments=    0.0000E+00    0.0000E+00    0.0000E+00  setid=       0
 node=   360 local x,y,z forces =    0.0000E+00    0.0000E+00    0.0000E+00  setid=       0
 node=   360 local x,y,z moments=    0.0000E+00    0.0000E+00    0.0000E+00  setid=       0
 node=   361 local x,y,z forces =    0.0000E+00    0.0000E+00    0.0000E+00  setid=       0
 node=   361 local x,y,z moments=    0.0000E+00    0.0000E+00    0.0000E+00  setid=       0
 node=   362 local x,y,z forces =    0.0000E+00    0.0000E+00    0.0000E+00  setid=       0
 node=   362 local x,y,z moments=    0.0000E+00    0.0000E+00    0.0000E+00  setid=       0
 node=   363 local x,y,z forces =    0.0000E+00    0.0000E+00    0.0000E+00  setid=       0
 node=   363 local x,y,z moments=    0.0000E+00    0.0000E+00    0.0000E+00  setid=       0
 node=   364 local x,y,z forces =    0.0000E+00    0.0000E+00    0.0000E+00  setid=       0
 node=   364 local x,y,z moments=    0.0000E+00    0.0000E+00    0.0000E+00  setid=       0
 node=   365 local x,y,z forces =    0.0000E+00    0.0000E+00    0.0000E+00  setid=       0
 node=   365 local x,y,z moments=    0.0000E+00    0.0000E+00    0.0000E+00  setid=       0
 node=   366 local x,y,z forces =    0.0000E+00    0.0000E+00    0.0000E+00  setid=       0
 node=   366 local x,y,z moments=    0.0000E+00    0.0000E+00    0.0000E+00  setid=       0
 node=   367 local x,y,z forces =    0.0000E+00    0.0000E+00    0.0000E+00  setid=       0
 node=   367 local x,y,z moments=    0.0000E+00    0.0000E+00    0.0000E+00  setid=       0
 node=   368 local x,y,z forces =    0.0000E+00    0.0000E+00    0.0000E+00  setid=       0
 node=   368 local x,y,z moments=    0.0000E+00    0.0000E+00    0.0000E+00  setid=       0
 node=   369 local x,y,z forces =    0.0000E+00    0.0000E+00    0.0000E+00  setid=       0
 node=   369 local x,y,z moments=    0.0000E+00    0.0000E+00    0.0000E+00  setid=       0
 node=   370 local x,y,z forces =    0.0000E+00    0.0000E+00    0.0000E+00  setid=       0
 node=   370 local x,y,z moments=    0.0000E+00    0.0000E+00    0.0000E+00  setid=       0
 node=   371 local x,y,z forces =    0.0000E+00    0.0000E+00    0.0000E+00  setid=       0
 node=   371 local x,y,z moments=    0.0000E+00    0.0000E+00    0.0000E+00  setid=       0
 node=   372 local x,y,z forces =    0.0000E+00    0.0000E+00    0.0000E+00  setid=       0
 node=   372 local x,y,z moments=    0.0000E+00    0.0000E+00    0.0000E+00  setid=       0
 node=   373 local x,y,z forces =    0.0000E+00    0.0000E+00    0.0000E+00  setid=       0
 node=   373 local x,y,z moments=    0.0000E+00    0.0000E+00    0.0000E+00  setid=       0
 node=   374 local x,y,z forces =    0.0000E+00    0.0000E+00    0.0000E+00  setid=       0
 node=   374 local x,y,z moments=    0.0000E+00    0.0000E+00    0.0000E+00  setid=       0
 node=   375 local x,y,z forces =    0.0000E+00    0.0000E+00    0.0000E+00  setid=       0
 node=   375 local x,y,z moments=    0.0000E+00    0.0000E+00    0.0000E+00  setid=       0
 node=   376 local x,y,z forces =    0.0000E+00    0.0000E+00    0.0000E+00  setid=       0
 node=   376 local x,y,z moments=    0.0000E+00    0.0000E+00    0.0000E+00  setid=       0
 node=   377 local x,y,z forces =    0.0000E+00    0.0000E+00    0.0000E+00  setid=       0
 node=   377 local x,y,z moments=    0.0000E+00    0.0000E+00    0.0000E+00  setid=       0
 node=   378 local x,y,z forces =    0.0000E+00    0.0000E+00    0.0000E+00  setid=       0
 node=   378 local x,y,z moments=    0.0000E+00    0.0000E+00    0.0000E+00  setid=       0
 node=   379 local x,y,z forces =    0.0000E+00    0.0000E+00    0.0000E+00  setid=       0
 node=   379 local x,y,z moments=    0.0000E+00    0.0000E+00    0.0000E+00  setid=       0
 node=   380 local x,y,z forces =    0.0000E+00    0.0000E+00    0.0000E+00  setid=       0
 node=   380 local x,y,z moments=    0.0000E+00    0.0000E+00    0.0000E+00  setid=       0
 node=   381 local x,y,z forces =    0.0000E+00    0.0000E+00    0.0000E+00  setid=       0
 node=   381 local x,y,z moments=    0.0000E+00    0.0000E+00    0.0000E+00  setid=       0
 node=   382 local x,y,z forces =    0.0000E+00    0.0000E+00    0.0000E+00  setid=       0
 node=   382 local x,y,z moments=    0.0000E+00    0.0000E+00    0.0000E+00  setid=       0
 node=   383 local x,y,z forces =    0.0000E+00    0.0000E+00    0.0000E+00  setid=       0
 node=   383 local x,y,z moments=    0.0000E+00    0.0000E+00    0.0000E+00  setid=       0
 node=   384 local x,y,z forces =    0.0000E+00    0.0000E+00    0.0000E+00  setid=       0
 node=   384 local x,y,z moments=    0.0000E+00    0.0000E+00    0.0000E+00  setid=       0
 node=   385 local x,y,z forces =    0.0000E+00    0.0000E+00    0.0000E+00  setid=       0
 node=   385 local x,y,z moments=    0.0000E+00    0.0000E+00    0.0000E+00  setid=       0
 node=   386 local x,y,z forces =    0.0000E+00    0.0000E+00    0.0000E+00  setid=       0
 node=   386 local x,y,z moments=    0.0000E+00    0.0000E+00    0.0000E+00  setid=       0
 node=   387 local x,y,z forces =    0.0000E+00    0.0000E+00    0.0000E+00  setid=       0
 node=   387 local x,y,z moments=    0.0000E+00    0.0000E+00    0.0000E+00  setid=       0
 node=   390 local x,y,z forces =    0.0000E+00    0.0000E+00    0.0000E+00  setid=       0
 node=   390 local x,y,z moments=    0.0000E+00    0.0000E+00    0.0000E+00  setid=       0
 node=   391 local x,y,z forces =    0.0000E+00    0.0000E+00    0.0000E+00  setid=       0
 node=   391 local x,y,z moments=    0.0000E+00    0.0000E+00    0.0000E+00  setid=       0
 node=   394 local x,y,z forces =    0.0000E+00    0.0000E+00    0.0000E+00  setid=       0
 node=   394 local x,y,z moments=    0.0000E+00    0.0000E+00    0.0000E+00  setid=       0
 node=   395 local x,y,z forces =    0.0000E+00    0.0000E+00    0.0000E+00  setid=       0
 node=   395 local x,y,z moments=    0.0000E+00    0.0000E+00    0.0000E+00  setid=       0
 node=   398 local x,y,z forces =    0.0000E+00    0.0000E+00    0.0000E+00  setid=       0
 node=   398 local x,y,z moments=    0.0000E+00    0.0000E+00    0.0000E+00  setid=       0
 node=   399 local x,y,z forces =    0.0000E+00    0.0000E+00    0.0000E+00  setid=       0
 node=   399 local x,y,z moments=    0.0000E+00    0.0000E+00    0.0000E+00  setid=       0
 node=   402 local x,y,z forces =    0.0000E+00    0.0000E+00    0.0000E+00  setid=       0
 node=   402 local x,y,z moments=    0.0000E+00    0.0000E+00    0.0000E+00  setid=       0
 node=   403 local x,y,z forces =    0.0000E+00    0.0000E+00    0.0000E+00  setid=       0
 node=   403 local x,y,z moments=    0.0000E+00    0.0000E+00    0.0000E+00  setid=       0
 node=   406 local x,y,z forces =    0.0000E+00    0.0000E+00    0.0000E+00  setid=       0
 node=   406 local x,y,z moments=    0.0000E+00    0.0000E+00    0.0000E+00  setid=       0
 node=   407 local x,y,z forces =    0.0000E+00    0.0000E+00    0.0000E+00  setid=       0
 node=   407 local x,y,z moments=    0.0000E+00    0.0000E+00    0.0000E+00  setid=       0
 node=   410 local x,y,z forces =    0.0000E+00    0.0000E+00    0.0000E+00  setid=       0
 node=   410 local x,y,z moments=    0.0000E+00    0.0000E+00    0.0000E+00  setid=       0
 node=   483 local x,y,z forces =    0.0000E+00    0.0000E+00    0.0000E+00  setid=       0
 node=   483 local x,y,z moments=    0.0000E+00    0.0000E+00    0.0000E+00  setid=       0
 node=   485 local x,y,z forces =    0.0000E+00    0.0000E+00    0.0000E+00  setid=       0
 node=   485 local x,y,z moments=    0.0000E+00    0.0000E+00    0.0000E+00  setid=       0
 node=   487 local x,y,z forces =    0.0000E+00    0.0000E+00    0.0000E+00  setid=       0
 node=   487 local x,y,z moments=    0.0000E+00    0.0000E+00    0.0000E+00  setid=       0
 node=   489 local x,y,z forces =    0.0000E+00    0.0000E+00    0.0000E+00  setid=       0
 node=   489 local x,y,z moments=    0.0000E+00    0.0000E+00    0.0000E+00  setid=       0
 node=   491 local x,y,z forces =    0.0000E+00    0.0000E+00    0.0000E+00  setid=       0
 node=   491 local x,y,z moments=    0.0000E+00    0.0000E+00    0.0000E+00  setid=       0
 node=   493 local x,y,z forces =    0.0000E+00    0.0000E+00    0.0000E+00  setid=       0
 node=   493 local x,y,z moments=    0.0000E+00    0.0000E+00    0.0000E+00  setid=       0
 node=   519 local x,y,z forces =    0.0000E+00    0.0000E+00    0.0000E+00  setid=       0
 node=   519 local x,y,z moments=    0.0000E+00    0.0000E+00    0.0000E+00  setid=       0
 node=   521 local x,y,z forces =    0.0000E+00    0.0000E+00    0.0000E+00  setid=       0
 node=   521 local x,y,z moments=    0.0000E+00    0.0000E+00    0.0000E+00  setid=       0
 node=   522 local x,y,z forces =    0.0000E+00    0.0000E+00    0.0000E+00  setid=       0
 node=   522 local x,y,z moments=    0.0000E+00    0.0000E+00    0.0000E+00  setid=       0
 node=   523 local x,y,z forces =    0.0000E+00    0.0000E+00    0.0000E+00  setid=       0
 node=   523 local x,y,z moments=    0.0000E+00    0.0000E+00    0.0000E+00  setid=       0
 node=   525 local x,y,z forces =    0.0000E+00    0.0000E+00    0.0000E+00  setid=       0
 node=   525 local x,y,z moments=    0.0000E+00    0.0000E+00    0.0000E+00  setid=       0
 node=   526 local x,y,z forces =    0.0000E+00    0.0000E+00    0.0000E+00  setid=       0
 node=   526 local x,y,z moments=    0.0000E+00    0.0000E+00    0.0000E+00  setid=       0
 node=   527 local x,y,z forces =    0.0000E+00    0.0000E+00    0.0000E+00  setid=       0
 node=   527 local x,y,z moments=    0.0000E+00    0.0000E+00    0.0000E+00  setid=       0
 node=   529 local x,y,z forces =    0.0000E+00    0.0000E+00    0.0000E+00  setid=       0
 node=   529 local x,y,z moments=    0.0000E+00    0.0000E+00    0.0000E+00  setid=       0
 node=   530 local x,y,z forces =    0.0000E+00    0.0000E+00    0.0000E+00  setid=       0
 node=   530 local x,y,z moments=    0.0000E+00    0.0000E+00    0.0000E+00  setid=       0
 node=   531 local x,y,z forces =    0.0000E+00    0.0000E+00    0.0000E+00  setid=       0
 node=   531 local x,y,z moments=    0.0000E+00    0.0000E+00    0.0000E+00  setid=       0
 node=   533 local x,y,z forces =    0.0000E+00    0.0000E+00    0.0000E+00  setid=       0
 node=   533 local x,y,z moments=    0.0000E+00    0.0000E+00    0.0000E+00  setid=       0
 node=   534 local x,y,z forces =    0.0000E+00    0.0000E+00    0.0000E+00  setid=       0
 node=   534 local x,y,z moments=    0.0000E+00    0.0000E+00    0.0000E+00  setid=       0
 node=   535 local x,y,z forces =    0.0000E+00    0.0000E+00    0.0000E+00  setid=       0
 node=   535 local x,y,z moments=    0.0000E+00    0.0000E+00    0.0000E+00  setid=       0
 node=   537 local x,y,z forces =    0.0000E+00    0.0000E+00    0.0000E+00  setid=       0
 node=   537 local x,y,z moments=    0.0000E+00    0.0000E+00    0.0000E+00  setid=       0
 node=   538 local x,y,z forces =    0.0000E+00    0.0000E+00    0.0000E+00  setid=       0
 node=   538 local x,y,z moments=    0.0000E+00    0.0000E+00    0.0000E+00  setid=       0
 node=   539 local x,y,z forces =    0.0000E+00    0.0000E+00    0.0000E+00  setid=       0
 node=   539 local x,y,z moments=    0.0000E+00    0.0000E+00    0.0000E+00  setid=       0
 node=   541 local x,y,z forces =    0.0000E+00    0.0000E+00    0.0000E+00  setid=       0
 node=   541 local x,y,z moments=    0.0000E+00    0.0000E+00    0.0000E+00  setid=       0
 node=   542 local x,y,z forces =    0.0000E+00    0.0000E+00    0.0000E+00  setid=       0
 node=   542 local x,y,z moments=    0.0000E+00    0.0000E+00    0.0000E+00  setid=       0
 node=   543 local x,y,z forces =    0.0000E+00    0.0000E+00    0.0000E+00  setid=       0
 node=   543 local x,y,z moments=    0.0000E+00    0.0000E+00    0.0000E+00  setid=       0
 node=   544 local x,y,z forces =    0.0000E+00    0.0000E+00    0.0000E+00  setid=       0
 node=   544 local x,y,z moments=    0.0000E+00    0.0000E+00    0.0000E+00  setid=       0
 node=   545 local x,y,z forces =    0.0000E+00    0.0000E+00    0.0000E+00  setid=       0
 node=   545 local x,y,z moments=    0.0000E+00    0.0000E+00    0.0000E+00  setid=       0
 node=   546 local x,y,z forces =    0.0000E+00    0.0000E+00    0.0000E+00  setid=       0
 node=   546 local x,y,z moments=    0.0000E+00    0.0000E+00    0.0000E+00  setid=       0
 node=   547 local x,y,z forces =    0.0000E+00    0.0000E+00    0.0000E+00  setid=       0
 node=   547 local x,y,z moments=    0.0000E+00    0.0000E+00    0.0000E+00  setid=       0
 node=   548 local x,y,z forces =    0.0000E+00    0.0000E+00    0.0000E+00  setid=       0
 node=   548 local x,y,z moments=    0.0000E+00    0.0000E+00    0.0000E+00  setid=       0
 node=   556 local x,y,z forces =    0.0000E+00    0.0000E+00    0.0000E+00  setid=       0
 node=   556 local x,y,z moments=    0.0000E+00    0.0000E+00    0.0000E+00  setid=       0
 node=   557 local x,y,z forces =    0.0000E+00    0.0000E+00    0.0000E+00  setid=       0
 node=   557 local x,y,z moments=    0.0000E+00    0.0000E+00    0.0000E+00  setid=       0
 node=   559 local x,y,z forces =    0.0000E+00    0.0000E+00    0.0000E+00  setid=       0
 node=   559 local x,y,z moments=    0.0000E+00    0.0000E+00    0.0000E+00  setid=       0
 node=   560 local x,y,z forces =    0.0000E+00    0.0000E+00    0.0000E+00  setid=       0
 node=   560 local x,y,z moments=    0.0000E+00    0.0000E+00    0.0000E+00  setid=       0
 node=   562 local x,y,z forces =    0.0000E+00    0.0000E+00    0.0000E+00  setid=       0
 node=   562 local x,y,z moments=    0.0000E+00    0.0000E+00    0.0000E+00  setid=       0
 node=   563 local x,y,z forces =    0.0000E+00    0.0000E+00    0.0000E+00  setid=       0
 node=   563 local x,y,z moments=    0.0000E+00    0.0000E+00    0.0000E+00  setid=       0
 node=   565 local x,y,z forces =    0.0000E+00    0.0000E+00    0.0000E+00  setid=       0
 node=   565 local x,y,z moments=    0.0000E+00    0.0000E+00    0.0000E+00  setid=       0
 node=   566 local x,y,z forces =    0.0000E+00    0.0000E+00    0.0000E+00  setid=       0
 node=   566 local x,y,z moments=    0.0000E+00    0.0000E+00    0.0000E+00  setid=       0
 node=   568 local x,y,z forces =    0.0000E+00    0.0000E+00    0.0000E+00  setid=       0
 node=   568 local x,y,z moments=    0.0000E+00    0.0000E+00    0.0000E+00  setid=       0
 node=   569 local x,y,z forces =    0.0000E+00    0.0000E+00    0.0000E+00  setid=       0
 node=   569 local x,y,z moments=    0.0000E+00    0.0000E+00    0.0000E+00  setid=       0
 node=   571 local x,y,z forces =    0.0000E+00    0.0000E+00    0.0000E+00  setid=       0
 node=   571 local x,y,z moments=    0.0000E+00    0.0000E+00    0.0000E+00  setid=       0
 node=   572 local x,y,z forces =    0.0000E+00    0.0000E+00    0.0000E+00  setid=       0
 node=   572 local x,y,z moments=    0.0000E+00    0.0000E+00    0.0000E+00  setid=       0
 node=   573 local x,y,z forces =    0.0000E+00    0.0000E+00    0.0000E+00  setid=       0
 node=   573 local x,y,z moments=    0.0000E+00    0.0000E+00    0.0000E+00  setid=       0
 node=   574 local x,y,z forces =    0.0000E+00    0.0000E+00    0.0000E+00  setid=       0
 node=   574 local x,y,z moments=    0.0000E+00    0.0000E+00    0.0000E+00  setid=       0
 node=   575 local x,y,z forces =    0.0000E+00    0.0000E+00    0.0000E+00  setid=       0
 node=   575 local x,y,z moments=    0.0000E+00    0.0000E+00    0.0000E+00  setid=       0
 node=   576 local x,y,z forces =    0.0000E+00    0.0000E+00    0.0000E+00  setid=       0
 node=   576 local x,y,z moments=    0.0000E+00    0.0000E+00    0.0000E+00  setid=       0
 node=   577 local x,y,z forces =    0.0000E+00    0.0000E+00    0.0000E+00  setid=       0
 node=   577 local x,y,z moments=    0.0000E+00    0.0000E+00    0.0000E+00  setid=       0
 node=   578 local x,y,z forces =    0.0000E+00    0.0000E+00    0.0000E+00  setid=       0
 node=   578 local x,y,z moments=    0.0000E+00    0.0000E+00    0.0000E+00  setid=       0
 node=   579 local x,y,z forces =    0.0000E+00    0.0000E+00    0.0000E+00  setid=       0
 node=   579 local x,y,z moments=    0.0000E+00    0.0000E+00    0.0000E+00  setid=       0
 node=   580 local x,y,z forces =    0.0000E+00    0.0000E+00    0.0000E+00  setid=       0
 node=   580 local x,y,z moments=    0.0000E+00    0.0000E+00    0.0000E+00  setid=       0
 node=   581 local x,y,z forces =    0.0000E+00    0.0000E+00    0.0000E+00  setid=       0
 node=   581 local x,y,z moments=    0.0000E+00    0.0000E+00    0.0000E+00  setid=       0
 node=   582 local x,y,z forces =    0.0000E+00    0.0000E+00    0.0000E+00  setid=       0
 node=   582 local x,y,z moments=    0.0000E+00    0.0000E+00    0.0000E+00  setid=       0
 node=   583 local x,y,z forces =    0.0000E+00    0.0000E+00    0.0000E+00  setid=       0
 node=   583 local x,y,z moments=    0.0000E+00    0.0000E+00    0.0000E+00  setid=       0
 node=   584 local x,y,z forces =    0.0000E+00    0.0000E+00    0.0000E+00  setid=       0
 node=   584 local x,y,z moments=    0.0000E+00    0.0000E+00    0.0000E+00  setid=       0
 node=   597 local x,y,z forces =    0.0000E+00    0.0000E+00    0.0000E+00  setid=       0
 node=   597 local x,y,z moments=    0.0000E+00    0.0000E+00    0.0000E+00  setid=       0
 node=   598 local x,y,z forces =    0.0000E+00    0.0000E+00    0.0000E+00  setid=       0
 node=   598 local x,y,z moments=    0.0000E+00    0.0000E+00    0.0000E+00  setid=       0
 node=   599 local x,y,z forces =    0.0000E+00    0.0000E+00    0.0000E+00  setid=       0
 node=   599 local x,y,z moments=    0.0000E+00    0.0000E+00    0.0000E+00  setid=       0
 node=   600 local x,y,z forces =    0.0000E+00    0.0000E+00    0.0000E+00  setid=       0
 node=   600 local x,y,z moments=    0.0000E+00    0.0000E+00    0.0000E+00  setid=       0
 node=   601 local x,y,z forces =    0.0000E+00    0.0000E+00    0.0000E+00  setid=       0
 node=   601 local x,y,z moments=    0.0000E+00    0.0000E+00    0.0000E+00  setid=       0
 node=   602 local x,y,z forces =    0.0000E+00    0.0000E+00    0.0000E+00  setid=       0
 node=   602 local x,y,z moments=    0.0000E+00    0.0000E+00    0.0000E+00  setid=       0
 node=   603 local x,y,z forces =    0.0000E+00    0.0000E+00    0.0000E+00  setid=       0
 node=   603 local x,y,z moments=    0.0000E+00    0.0000E+00    0.0000E+00  setid=       0
 node=   604 local x,y,z forces =    0.0000E+00    0.0000E+00    0.0000E+00  setid=       0
 node=   604 local x,y,z moments=    0.0000E+00    0.0000E+00    0.0000E+00  setid=       0
 node=   605 local x,y,z forces =    0.0000E+00    0.0000E+00    0.0000E+00  setid=       0
 node=   605 local x,y,z moments=    0.0000E+00    0.0000E+00    0.0000E+00  setid=       0
 node=   606 local x,y,z forces =    0.0000E+00    0.0000E+00    0.0000E+00  setid=       0
 node=   606 local x,y,z moments=    0.0000E+00    0.0000E+00    0.0000E+00  setid=       0
 node=   607 local x,y,z forces =    0.0000E+00    0.0000E+00    0.0000E+00  setid=       0
 node=   607 local x,y,z moments=    0.0000E+00    0.0000E+00    0.0000E+00  setid=       0
 node=   608 local x,y,z forces =    0.0000E+00    0.0000E+00    0.0000E+00  setid=       0
 node=   608 local x,y,z moments=    0.0000E+00    0.0000E+00    0.0000E+00  setid=       0
 node=   663 local x,y,z forces =    0.0000E+00    0.0000E+00    0.0000E+00  setid=       0
 node=   663 local x,y,z moments=    0.0000E+00    0.0000E+00    0.0000E+00  setid=       0
 node=   664 local x,y,z forces =    0.0000E+00    0.0000E+00    0.0000E+00  setid=       0
 node=   664 local x,y,z moments=    0.0000E+00    0.0000E+00    0.0000E+00  setid=       0
 node=   665 local x,y,z forces =    0.0000E+00    0.0000E+00    0.0000E+00  setid=       0
 node=   665 local x,y,z moments=    0.0000E+00    0.0000E+00    0.0000E+00  setid=       0
 node=   666 local x,y,z forces =    0.0000E+00    0.0000E+00    0.0000E+00  setid=       0
 node=   666 local x,y,z moments=    0.0000E+00    0.0000E+00    0.0000E+00  setid=       0
 node=   667 local x,y,z forces =    0.0000E+00    0.0000E+00    0.0000E+00  setid=       0
 node=   667 local x,y,z moments=    0.0000E+00    0.0000E+00    0.0000E+00  setid=       0
 node=   668 local x,y,z forces =    0.0000E+00    0.0000E+00    0.0000E+00  setid=       0
 node=   668 local x,y,z moments=    0.0000E+00    0.0000E+00    0.0000E+00  setid=       0
 node=   669 local x,y,z forces =    0.0000E+00    0.0000E+00    0.0000E+00  setid=       0
 node=   669 local x,y,z moments=    0.0000E+00    0.0000E+00    0.0000E+00  setid=       0
 node=   670 local x,y,z forces =    0.0000E+00    0.0000E+00    0.0000E+00  setid=       0
 node=   670 local x,y,z moments=    0.0000E+00    0.0000E+00    0.0000E+00  setid=       0
 node=   671 local x,y,z forces =    0.0000E+00    0.0000E+00    0.0000E+00  setid=       0
 node=   671 local x,y,z moments=    0.0000E+00    0.0000E+00    0.0000E+00  setid=       0
 node=   672 local x,y,z forces =    0.0000E+00    0.0000E+00    0.0000E+00  setid=       0
 node=   672 local x,y,z moments=    0.0000E+00    0.0000E+00    0.0000E+00  setid=       0
 node=   673 local x,y,z forces =    0.0000E+00    0.0000E+00    0.0000E+00  setid=       0
 node=   673 local x,y,z moments=    0.0000E+00    0.0000E+00    0.0000E+00  setid=       0
 node=   674 local x,y,z forces =    0.0000E+00    0.0000E+00    0.0000E+00  setid=       0
 node=   674 local x,y,z moments=    0.0000E+00    0.0000E+00    0.0000E+00  setid=       0
 node=   675 local x,y,z forces =    0.0000E+00    0.0000E+00    0.0000E+00  setid=       0
 node=   675 local x,y,z moments=    0.0000E+00    0.0000E+00    0.0000E+00  setid=       0
 node=   676 local x,y,z forces =    0.0000E+00    0.0000E+00    0.0000E+00  setid=       0
 node=   676 local x,y,z moments=    0.0000E+00    0.0000E+00    0.0000E+00  setid=       0
 node=   677 local x,y,z forces =    0.0000E+00    0.0000E+00    0.0000E+00  setid=       0
 node=   677 local x,y,z moments=    0.0000E+00    0.0000E+00    0.0000E+00  setid=       0
 node=   678 local x,y,z forces =    0.0000E+00    0.0000E+00    0.0000E+00  setid=       0
 node=   678 local x,y,z moments=    0.0000E+00    0.0000E+00    0.0000E+00  setid=       0
 node=   679 local x,y,z forces =    0.0000E+00    0.0000E+00    0.0000E+00  setid=       0
 node=   679 local x,y,z moments=    0.0000E+00    0.0000E+00    0.0000E+00  setid=       0
 node=   680 local x,y,z forces =    0.0000E+00    0.0000E+00    0.0000E+00  setid=       0
 node=   680 local x,y,z moments=    0.0000E+00    0.0000E+00    0.0000E+00  setid=       0
 node=   681 local x,y,z forces =    0.0000E+00    0.0000E+00    0.0000E+00  setid=       0
 node=   681 local x,y,z moments=    0.0000E+00    0.0000E+00    0.0000E+00  setid=       0
 node=   682 local x,y,z forces =    0.0000E+00    0.0000E+00    0.0000E+00  setid=       0
 node=   682 local x,y,z moments=    0.0000E+00    0.0000E+00    0.0000E+00  setid=       0
 node=   683 local x,y,z forces =    0.0000E+00    0.0000E+00    0.0000E+00  setid=       0
 node=   683 local x,y,z moments=    0.0000E+00    0.0000E+00    0.0000E+00  setid=       0
 node=   684 local x,y,z forces =    0.0000E+00    0.0000E+00    0.0000E+00  setid=       0
 node=   684 local x,y,z moments=    0.0000E+00    0.0000E+00    0.0000E+00  setid=       0
 node=   685 local x,y,z forces =    0.0000E+00    0.0000E+00    0.0000E+00  setid=       0
 node=   685 local x,y,z moments=    0.0000E+00    0.0000E+00    0.0000E+00  setid=       0
 node=   686 local x,y,z forces =    0.0000E+00    0.0000E+00    0.0000E+00  setid=       0
 node=   686 local x,y,z moments=    0.0000E+00    0.0000E+00    0.0000E+00  setid=       0
 node=   687 local x,y,z forces =    0.0000E+00    0.0000E+00    0.0000E+00  setid=       0
 node=   687 local x,y,z moments=    0.0000E+00    0.0000E+00    0.0000E+00  setid=       0
 node=   688 local x,y,z forces =    0.0000E+00    0.0000E+00    0.0000E+00  setid=       0
 node=   688 local x,y,z moments=    0.0000E+00    0.0000E+00    0.0000E+00  setid=       0
 node=   689 local x,y,z forces =    0.0000E+00    0.0000E+00    0.0000E+00  setid=       0
 node=   689 local x,y,z moments=    0.0000E+00    0.0000E+00    0.0000E+00  setid=       0
 node=   690 local x,y,z forces =    0.0000E+00    0.0000E+00    0.0000E+00  setid=       0
 node=   690 local x,y,z moments=    0.0000E+00    0.0000E+00    0.0000E+00  setid=       0
 node=   691 local x,y,z forces =    0.0000E+00    0.0000E+00    0.0000E+00  setid=       0
 node=   691 local x,y,z moments=    0.0000E+00    0.0000E+00    0.0000E+00  setid=       0
 node=   692 local x,y,z forces =    0.0000E+00    0.0000E+00    0.0000E+00  setid=       0
 node=   692 local x,y,z moments=    0.0000E+00    0.0000E+00    0.0000E+00  setid=       0
 node=   693 local x,y,z forces =    0.0000E+00    0.0000E+00    0.0000E+00  setid=       0
 node=   693 local x,y,z moments=    0.0000E+00    0.0000E+00    0.0000E+00  setid=       0
 node=   694 local x,y,z forces =    0.0000E+00    0.0000E+00    0.0000E+00  setid=       0
 node=   694 local x,y,z moments=    0.0000E+00    0.0000E+00    0.0000E+00  setid=       0
 node=   695 local x,y,z forces =    0.0000E+00    0.0000E+00    0.0000E+00  setid=       0
 node=   695 local x,y,z moments=    0.0000E+00    0.0000E+00    0.0000E+00  setid=       0
 node=   696 local x,y,z forces =    0.0000E+00    0.0000E+00    0.0000E+00  setid=       0
 node=   696 local x,y,z moments=    0.0000E+00    0.0000E+00    0.0000E+00  setid=       0
 node=   697 local x,y,z forces =    0.0000E+00    0.0000E+00    0.0000E+00  setid=       0
 node=   697 local x,y,z moments=    0.0000E+00    0.0000E+00    0.0000E+00  setid=       0
 node=   698 local x,y,z forces =    0.0000E+00    0.0000E+00    0.0000E+00  setid=       0
 node=   698 local x,y,z moments=    0.0000E+00    0.0000E+00    0.0000E+00  setid=       0
 node=   699 local x,y,z forces =    0.0000E+00    0.0000E+00    0.0000E+00  setid=       0
 node=   699 local x,y,z moments=    0.0000E+00    0.0000E+00    0.0000E+00  setid=       0
 node=   700 local x,y,z forces =    0.0000E+00    0.0000E+00    0.0000E+00  setid=       0
 node=   700 local x,y,z moments=    0.0000E+00    0.0000E+00    0.0000E+00  setid=       0
 node=   701 local x,y,z forces =    0.0000E+00    0.0000E+00    0.0000E+00  setid=       0
 node=   701 local x,y,z moments=    0.0000E+00    0.0000E+00    0.0000E+00  setid=       0
 node=   702 local x,y,z forces =    0.0000E+00    0.0000E+00    0.0000E+00  setid=       0
 node=   702 local x,y,z moments=    0.0000E+00    0.0000E+00    0.0000E+00  setid=       0
 node=   703 local x,y,z forces =    0.0000E+00    0.0000E+00    0.0000E+00  setid=       0
 node=   703 local x,y,z moments=    0.0000E+00    0.0000E+00    0.0000E+00  setid=       0
 node=   704 local x,y,z forces =    0.0000E+00    0.0000E+00    0.0000E+00  setid=       0
 node=   704 local x,y,z moments=    0.0000E+00    0.0000E+00    0.0000E+00  setid=       0
 node=   705 local x,y,z forces =    0.0000E+00    0.0000E+00    0.0000E+00  setid=       0
 node=   705 local x,y,z moments=    0.0000E+00    0.0000E+00    0.0000E+00  setid=       0
 node=   706 local x,y,z forces =    0.0000E+00    0.0000E+00    0.0000E+00  setid=       0
 node=   706 local x,y,z moments=    0.0000E+00    0.0000E+00    0.0000E+00  setid=       0
 node=   707 local x,y,z forces =    0.0000E+00    0.0000E+00    0.0000E+00  setid=       0
 node=   707 local x,y,z moments=    0.0000E+00    0.0000E+00    0.0000E+00  setid=       0
 node=   708 local x,y,z forces =    0.0000E+00    0.0000E+00    0.0000E+00  setid=       0
 node=   708 local x,y,z moments=    0.0000E+00    0.0000E+00    0.0000E+00  setid=       0
 node=   709 local x,y,z forces =    0.0000E+00    0.0000E+00    0.0000E+00  setid=       0
 node=   709 local x,y,z moments=    0.0000E+00    0.0000E+00    0.0000E+00  setid=       0
 node=   710 local x,y,z forces =    0.0000E+00    0.0000E+00    0.0000E+00  setid=       0
 node=   710 local x,y,z moments=    0.0000E+00    0.0000E+00    0.0000E+00  setid=       0
 node=   711 local x,y,z forces =    0.0000E+00    0.0000E+00    0.0000E+00  setid=       0
 node=   711 local x,y,z moments=    0.0000E+00    0.0000E+00    0.0000E+00  setid=       0
 node=   712 local x,y,z forces =    0.0000E+00    0.0000E+00    0.0000E+00  setid=       0
 node=   712 local x,y,z moments=    0.0000E+00    0.0000E+00    0.0000E+00  setid=       0
 node=   713 local x,y,z forces =    0.0000E+00    0.0000E+00    0.0000E+00  setid=       0
 node=   713 local x,y,z moments=    0.0000E+00    0.0000E+00    0.0000E+00  setid=       0
 node=   714 local x,y,z forces =    0.0000E+00    0.0000E+00    0.0000E+00  setid=       0
 node=   714 local x,y,z moments=    0.0000E+00    0.0000E+00    0.0000E+00  setid=       0
 node=   715 local x,y,z forces =    0.0000E+00    0.0000E+00    0.0000E+00  setid=       0
 node=   715 local x,y,z moments=    0.0000E+00    0.0000E+00    0.0000E+00  setid=       0
 node=   716 local x,y,z forces =    0.0000E+00    0.0000E+00    0.0000E+00  setid=       0
 node=   716 local x,y,z moments=    0.0000E+00    0.0000E+00    0.0000E+00  setid=       0
 node=   737 local x,y,z forces =    0.0000E+00    0.0000E+00    0.0000E+00  setid=       0
 node=   737 local x,y,z moments=    0.0000E+00    0.0000E+00    0.0000E+00  setid=       0
 node=   738 local x,y,z forces =    0.0000E+00    0.0000E+00    0.0000E+00  setid=       0
 node=   738 local x,y,z moments=    0.0000E+00    0.0000E+00    0.0000E+00  setid=       0
 node=   739 local x,y,z forces =    0.0000E+00    0.0000E+00    0.0000E+00  setid=       0
 node=   739 local x,y,z moments=    0.0000E+00    0.0000E+00    0.0000E+00  setid=       0
 node=   740 local x,y,z forces =    0.0000E+00    0.0000E+00    0.0000E+00  setid=       0
 node=   740 local x,y,z moments=    0.0000E+00    0.0000E+00    0.0000E+00  setid=       0
 node=   761 local x,y,z forces =    0.0000E+00    0.0000E+00    0.0000E+00  setid=       0
 node=   761 local x,y,z moments=    0.0000E+00    0.0000E+00    0.0000E+00  setid=       0
 node=   762 local x,y,z forces =    0.0000E+00    0.0000E+00    0.0000E+00  setid=       0
 node=   762 local x,y,z moments=    0.0000E+00    0.0000E+00    0.0000E+00  setid=       0
 node=   763 local x,y,z forces =    0.0000E+00    0.0000E+00    0.0000E+00  setid=       0
 node=   763 local x,y,z moments=    0.0000E+00    0.0000E+00    0.0000E+00  setid=       0
 node=   764 local x,y,z forces =    0.0000E+00    0.0000E+00    0.0000E+00  setid=       0
 node=   764 local x,y,z moments=    0.0000E+00    0.0000E+00    0.0000E+00  setid=       0
 node=   785 local x,y,z forces =    0.0000E+00    0.0000E+00    0.0000E+00  setid=       0
 node=   785 local x,y,z moments=    0.0000E+00    0.0000E+00    0.0000E+00  setid=       0
 node=   786 local x,y,z forces =    0.0000E+00    0.0000E+00    0.0000E+00  setid=       0
 node=   786 local x,y,z moments=    0.0000E+00    0.0000E+00    0.0000E+00  setid=       0
 node=   787 local x,y,z forces =    0.0000E+00    0.0000E+00    0.0000E+00  setid=       0
 node=   787 local x,y,z moments=    0.0000E+00    0.0000E+00    0.0000E+00  setid=       0
 node=   788 local x,y,z forces =    0.0000E+00    0.0000E+00    0.0000E+00  setid=       0
 node=   788 local x,y,z moments=    0.0000E+00    0.0000E+00    0.0000E+00  setid=       0
 node=   790 local x,y,z forces =    0.0000E+00    0.0000E+00    0.0000E+00  setid=       0
 node=   790 local x,y,z moments=    0.0000E+00    0.0000E+00    0.0000E+00  setid=       0
 node=   791 local x,y,z forces =    0.0000E+00    0.0000E+00    0.0000E+00  setid=       0
 node=   791 local x,y,z moments=    0.0000E+00    0.0000E+00    0.0000E+00  setid=       0
 node=   793 local x,y,z forces =    0.0000E+00    0.0000E+00    0.0000E+00  setid=       0
 node=   793 local x,y,z moments=    0.0000E+00    0.0000E+00    0.0000E+00  setid=       0
 node=   794 local x,y,z forces =    0.0000E+00    0.0000E+00    0.0000E+00  setid=       0
 node=   794 local x,y,z moments=    0.0000E+00    0.0000E+00    0.0000E+00  setid=       0
 node=   796 local x,y,z forces =    0.0000E+00    0.0000E+00    0.0000E+00  setid=       0
 node=   796 local x,y,z moments=    0.0000E+00    0.0000E+00    0.0000E+00  setid=       0
 node=   797 local x,y,z forces =    0.0000E+00    0.0000E+00    0.0000E+00  setid=       0
 node=   797 local x,y,z moments=    0.0000E+00    0.0000E+00    0.0000E+00  setid=       0
 node=   799 local x,y,z forces =    0.0000E+00    0.0000E+00    0.0000E+00  setid=       0
 node=   799 local x,y,z moments=    0.0000E+00    0.0000E+00    0.0000E+00  setid=       0
 node=   800 local x,y,z forces =    0.0000E+00    0.0000E+00    0.0000E+00  setid=       0
 node=   800 local x,y,z moments=    0.0000E+00    0.0000E+00    0.0000E+00  setid=       0
 node=   802 local x,y,z forces =    0.0000E+00    0.0000E+00    0.0000E+00  setid=       0
 node=   802 local x,y,z moments=    0.0000E+00    0.0000E+00    0.0000E+00  setid=       0
 node=   803 local x,y,z forces =    0.0000E+00    0.0000E+00    0.0000E+00  setid=       0
 node=   803 local x,y,z moments=    0.0000E+00    0.0000E+00    0.0000E+00  setid=       0
 node=   804 local x,y,z forces =    0.0000E+00    0.0000E+00    0.0000E+00  setid=       0
 node=   804 local x,y,z moments=    0.0000E+00    0.0000E+00    0.0000E+00  setid=       0
 node=   805 local x,y,z forces =    0.0000E+00    0.0000E+00    0.0000E+00  setid=       0
 node=   805 local x,y,z moments=    0.0000E+00    0.0000E+00    0.0000E+00  setid=       0
 node=   806 local x,y,z forces =    0.0000E+00    0.0000E+00    0.0000E+00  setid=       0
 node=   806 local x,y,z moments=    0.0000E+00    0.0000E+00    0.0000E+00  setid=       0
 node=   812 local x,y,z forces =    0.0000E+00    0.0000E+00    0.0000E+00  setid=       0
 node=   812 local x,y,z moments=    0.0000E+00    0.0000E+00    0.0000E+00  setid=       0
 node=   823 local x,y,z forces =    0.0000E+00    0.0000E+00    0.0000E+00  setid=       0
 node=   823 local x,y,z moments=    0.0000E+00    0.0000E+00    0.0000E+00  setid=       0
 node=   824 local x,y,z forces =    0.0000E+00    0.0000E+00    0.0000E+00  setid=       0
 node=   824 local x,y,z moments=    0.0000E+00    0.0000E+00    0.0000E+00  setid=       0
 node=   845 local x,y,z forces =    0.0000E+00    0.0000E+00    0.0000E+00  setid=       0
 node=   845 local x,y,z moments=    0.0000E+00    0.0000E+00    0.0000E+00  setid=       0
 node=   846 local x,y,z forces =    0.0000E+00    0.0000E+00    0.0000E+00  setid=       0
 node=   846 local x,y,z moments=    0.0000E+00    0.0000E+00    0.0000E+00  setid=       0
 node=   847 local x,y,z forces =    0.0000E+00    0.0000E+00    0.0000E+00  setid=       0
 node=   847 local x,y,z moments=    0.0000E+00    0.0000E+00    0.0000E+00  setid=       0
 node=   848 local x,y,z forces =    0.0000E+00    0.0000E+00    0.0000E+00  setid=       0
 node=   848 local x,y,z moments=    0.0000E+00    0.0000E+00    0.0000E+00  setid=       0
 node=   864 local x,y,z forces =    0.0000E+00    0.0000E+00    0.0000E+00  setid=       0
 node=   864 local x,y,z moments=    0.0000E+00    0.0000E+00    0.0000E+00  setid=       0
 node=   865 local x,y,z forces =    0.0000E+00    0.0000E+00    0.0000E+00  setid=       0
 node=   865 local x,y,z moments=    0.0000E+00    0.0000E+00    0.0000E+00  setid=       0
 node=   866 local x,y,z forces =    0.0000E+00    0.0000E+00    0.0000E+00  setid=       0
 node=   866 local x,y,z moments=    0.0000E+00    0.0000E+00    0.0000E+00  setid=       0
 node=   872 local x,y,z forces =    0.0000E+00    0.0000E+00    0.0000E+00  setid=       0
 node=   872 local x,y,z moments=    0.0000E+00    0.0000E+00    0.0000E+00  setid=       0
 node=   883 local x,y,z forces =    0.0000E+00    0.0000E+00    0.0000E+00  setid=       0
 node=   883 local x,y,z moments=    0.0000E+00    0.0000E+00    0.0000E+00  setid=       0
 node=   884 local x,y,z forces =    0.0000E+00    0.0000E+00    0.0000E+00  setid=       0
 node=   884 local x,y,z moments=    0.0000E+00    0.0000E+00    0.0000E+00  setid=       0
 node=   895 local x,y,z forces =    0.0000E+00    0.0000E+00    0.0000E+00  setid=       0
 node=   895 local x,y,z moments=    0.0000E+00    0.0000E+00    0.0000E+00  setid=       0
 node=   896 local x,y,z forces =    0.0000E+00    0.0000E+00    0.0000E+00  setid=       0
 node=   896 local x,y,z moments=    0.0000E+00    0.0000E+00    0.0000E+00  setid=       0
 node=   907 local x,y,z forces =    0.0000E+00    0.0000E+00    0.0000E+00  setid=       0
 node=   907 local x,y,z moments=    0.0000E+00    0.0000E+00    0.0000E+00  setid=       0
 node=   908 local x,y,z forces =    0.0000E+00    0.0000E+00    0.0000E+00  setid=       0
 node=   908 local x,y,z moments=    0.0000E+00    0.0000E+00    0.0000E+00  setid=       0
 node=   924 local x,y,z forces =    0.0000E+00    0.0000E+00    0.0000E+00  setid=       0
 node=   924 local x,y,z moments=    0.0000E+00    0.0000E+00    0.0000E+00  setid=       0
 node=   925 local x,y,z forces =    0.0000E+00    0.0000E+00    0.0000E+00  setid=       0
 node=   925 local x,y,z moments=    0.0000E+00    0.0000E+00    0.0000E+00  setid=       0
 node=   926 local x,y,z forces =    0.0000E+00    0.0000E+00    0.0000E+00  setid=       0
 node=   926 local x,y,z moments=    0.0000E+00    0.0000E+00    0.0000E+00  setid=       0
 node=   937 local x,y,z forces =    0.0000E+00    0.0000E+00    0.0000E+00  setid=       0
 node=   937 local x,y,z moments=    0.0000E+00    0.0000E+00    0.0000E+00  setid=       0
 node=   938 local x,y,z forces =    0.0000E+00    0.0000E+00    0.0000E+00  setid=       0
 node=   938 local x,y,z moments=    0.0000E+00    0.0000E+00    0.0000E+00  setid=       0
 node=   939 local x,y,z forces =    0.0000E+00    0.0000E+00    0.0000E+00  setid=       0
 node=   939 local x,y,z moments=    0.0000E+00    0.0000E+00    0.0000E+00  setid=       0
 node=   940 local x,y,z forces =    0.0000E+00    0.0000E+00    0.0000E+00  setid=       0
 node=   940 local x,y,z moments=    0.0000E+00    0.0000E+00    0.0000E+00  setid=       0
 node=   942 local x,y,z forces =    0.0000E+00    0.0000E+00    0.0000E+00  setid=       0
 node=   942 local x,y,z moments=    0.0000E+00    0.0000E+00    0.0000E+00  setid=       0
 node=   943 local x,y,z forces =    0.0000E+00    0.0000E+00    0.0000E+00  setid=       0
 node=   943 local x,y,z moments=    0.0000E+00    0.0000E+00    0.0000E+00  setid=       0
 node=   945 local x,y,z forces =    0.0000E+00    0.0000E+00    0.0000E+00  setid=       0
 node=   945 local x,y,z moments=    0.0000E+00    0.0000E+00    0.0000E+00  setid=       0
 node=   946 local x,y,z forces =    0.0000E+00    0.0000E+00    0.0000E+00  setid=       0
 node=   946 local x,y,z moments=    0.0000E+00    0.0000E+00    0.0000E+00  setid=       0
 node=   948 local x,y,z forces =    0.0000E+00    0.0000E+00    0.0000E+00  setid=       0
 node=   948 local x,y,z moments=    0.0000E+00    0.0000E+00    0.0000E+00  setid=       0
 node=   949 local x,y,z forces =    0.0000E+00    0.0000E+00    0.0000E+00  setid=       0
 node=   949 local x,y,z moments=    0.0000E+00    0.0000E+00    0.0000E+00  setid=       0
 node=   951 local x,y,z forces =    0.0000E+00    0.0000E+00    0.0000E+00  setid=       0
 node=   951 local x,y,z moments=    0.0000E+00    0.0000E+00    0.0000E+00  setid=       0
 node=   952 local x,y,z forces =    0.0000E+00    0.0000E+00    0.0000E+00  setid=       0
 node=   952 local x,y,z moments=    0.0000E+00    0.0000E+00    0.0000E+00  setid=       0
 node=   954 local x,y,z forces =    0.0000E+00    0.0000E+00    0.0000E+00  setid=       0
 node=   954 local x,y,z moments=    0.0000E+00    0.0000E+00    0.0000E+00  setid=       0
 node=   955 local x,y,z forces =    0.0000E+00    0.0000E+00    0.0000E+00  setid=       0
 node=   955 local x,y,z moments=    0.0000E+00    0.0000E+00    0.0000E+00  setid=       0
 node=   956 local x,y,z forces =    0.0000E+00    0.0000E+00    0.0000E+00  setid=       0
 node=   956 local x,y,z moments=    0.0000E+00    0.0000E+00    0.0000E+00  setid=       0
 node=   967 local x,y,z forces =    0.0000E+00    0.0000E+00    0.0000E+00  setid=       0
 node=   967 local x,y,z moments=    0.0000E+00    0.0000E+00    0.0000E+00  setid=       0
 node=   968 local x,y,z forces =    0.0000E+00    0.0000E+00    0.0000E+00  setid=       0
 node=   968 local x,y,z moments=    0.0000E+00    0.0000E+00    0.0000E+00  setid=       0
 node=   979 local x,y,z forces =    0.0000E+00    0.0000E+00    0.0000E+00  setid=       0
 node=   979 local x,y,z moments=    0.0000E+00    0.0000E+00    0.0000E+00  setid=       0
 node=   980 local x,y,z forces =    0.0000E+00    0.0000E+00    0.0000E+00  setid=       0
 node=   980 local x,y,z moments=    0.0000E+00    0.0000E+00    0.0000E+00  setid=       0
 node=   986 local x,y,z forces =    0.0000E+00    0.0000E+00    0.0000E+00  setid=       0
 node=   986 local x,y,z moments=    0.0000E+00    0.0000E+00    0.0000E+00  setid=       0
 node=   992 local x,y,z forces =    0.0000E+00    0.0000E+00    0.0000E+00  setid=       0
 node=   992 local x,y,z moments=    0.0000E+00    0.0000E+00    0.0000E+00  setid=       0
 node=   998 local x,y,z forces =    0.0000E+00    0.0000E+00    0.0000E+00  setid=       0
 node=   998 local x,y,z moments=    0.0000E+00    0.0000E+00    0.0000E+00  setid=       0
 node=  1004 local x,y,z forces =    0.0000E+00    0.0000E+00    0.0000E+00  setid=       0
 node=  1004 local x,y,z moments=    0.0000E+00    0.0000E+00    0.0000E+00  setid=       0
 node=  1005 local x,y,z forces =    0.0000E+00    0.0000E+00    0.0000E+00  setid=       0
 node=  1005 local x,y,z moments=    0.0000E+00    0.0000E+00    0.0000E+00  setid=       0
 node=  1006 local x,y,z forces =    0.0000E+00    0.0000E+00    0.0000E+00  setid=       0
 node=  1006 local x,y,z moments=    0.0000E+00    0.0000E+00    0.0000E+00  setid=       0
 node=  1007 local x,y,z forces =    0.0000E+00    0.0000E+00    0.0000E+00  setid=       0
 node=  1007 local x,y,z moments=    0.0000E+00    0.0000E+00    0.0000E+00  setid=       0
 node=  1008 local x,y,z forces =    0.0000E+00    0.0000E+00    0.0000E+00  setid=       0
 node=  1008 local x,y,z moments=    0.0000E+00    0.0000E+00    0.0000E+00  setid=       0
 node=  1009 local x,y,z forces =    0.0000E+00    0.0000E+00    0.0000E+00  setid=       0
 node=  1009 local x,y,z moments=    0.0000E+00    0.0000E+00    0.0000E+00  setid=       0
 node=  1010 local x,y,z forces =    0.0000E+00    0.0000E+00    0.0000E+00  setid=       0
 node=  1010 local x,y,z moments=    0.0000E+00    0.0000E+00    0.0000E+00  setid=       0
 node=  1016 local x,y,z forces =    0.0000E+00    0.0000E+00    0.0000E+00  setid=       0
 node=  1016 local x,y,z moments=    0.0000E+00    0.0000E+00    0.0000E+00  setid=       0
 node=  1017 local x,y,z forces =    0.0000E+00    0.0000E+00    0.0000E+00  setid=       0
 node=  1017 local x,y,z moments=    0.0000E+00    0.0000E+00    0.0000E+00  setid=       0
 node=  1018 local x,y,z forces =    0.0000E+00    0.0000E+00    0.0000E+00  setid=       0
 node=  1018 local x,y,z moments=    0.0000E+00    0.0000E+00    0.0000E+00  setid=       0
 node=  1019 local x,y,z forces =    0.0000E+00    0.0000E+00    0.0000E+00  setid=       0
 node=  1019 local x,y,z moments=    0.0000E+00    0.0000E+00    0.0000E+00  setid=       0
 node=  1020 local x,y,z forces =    0.0000E+00    0.0000E+00    0.0000E+00  setid=       0
 node=  1020 local x,y,z moments=    0.0000E+00    0.0000E+00    0.0000E+00  setid=       0
 node=  1021 local x,y,z forces =    0.0000E+00    0.0000E+00    0.0000E+00  setid=       0
 node=  1021 local x,y,z moments=    0.0000E+00    0.0000E+00    0.0000E+00  setid=       0
 node=  1022 local x,y,z forces =    0.0000E+00    0.0000E+00    0.0000E+00  setid=       0
 node=  1022 local x,y,z moments=    0.0000E+00    0.0000E+00    0.0000E+00  setid=       0
 node=  1028 local x,y,z forces =    0.0000E+00    0.0000E+00    0.0000E+00  setid=       0
 node=  1028 local x,y,z moments=    0.0000E+00    0.0000E+00    0.0000E+00  setid=       0
 node=  1034 local x,y,z forces =    0.0000E+00    0.0000E+00    0.0000E+00  setid=       0
 node=  1034 local x,y,z moments=    0.0000E+00    0.0000E+00    0.0000E+00  setid=       0
 node=  1040 local x,y,z forces =    0.0000E+00    0.0000E+00    0.0000E+00  setid=       0
 node=  1040 local x,y,z moments=    0.0000E+00    0.0000E+00    0.0000E+00  setid=       0
 node=  1041 local x,y,z forces =    0.0000E+00    0.0000E+00    0.0000E+00  setid=       0
 node=  1041 local x,y,z moments=    0.0000E+00    0.0000E+00    0.0000E+00  setid=       0
 node=  1042 local x,y,z forces =    0.0000E+00    0.0000E+00    0.0000E+00  setid=       0
 node=  1042 local x,y,z moments=    0.0000E+00    0.0000E+00    0.0000E+00  setid=       0
 node=  1043 local x,y,z forces =    0.0000E+00    0.0000E+00    0.0000E+00  setid=       0
 node=  1043 local x,y,z moments=    0.0000E+00    0.0000E+00    0.0000E+00  setid=       0
 node=  1044 local x,y,z forces =    0.0000E+00    0.0000E+00    0.0000E+00  setid=       0
 node=  1044 local x,y,z moments=    0.0000E+00    0.0000E+00    0.0000E+00  setid=       0
 node=  1045 local x,y,z forces =    0.0000E+00    0.0000E+00    0.0000E+00  setid=       0
 node=  1045 local x,y,z moments=    0.0000E+00    0.0000E+00    0.0000E+00  setid=       0
 node=  1046 local x,y,z forces =    0.0000E+00    0.0000E+00    0.0000E+00  setid=       0
 node=  1046 local x,y,z moments=    0.0000E+00    0.0000E+00    0.0000E+00  setid=       0
 node=  1047 local x,y,z forces =    0.0000E+00    0.0000E+00    0.0000E+00  setid=       0
 node=  1047 local x,y,z moments=    0.0000E+00    0.0000E+00    0.0000E+00  setid=       0
 node=  1048 local x,y,z forces =    0.0000E+00    0.0000E+00    0.0000E+00  setid=       0
 node=  1048 local x,y,z moments=    0.0000E+00    0.0000E+00    0.0000E+00  setid=       0
 node=  1049 local x,y,z forces =    0.0000E+00    0.0000E+00    0.0000E+00  setid=       0
 node=  1049 local x,y,z moments=    0.0000E+00    0.0000E+00    0.0000E+00  setid=       0
 node=  1050 local x,y,z forces =    0.0000E+00    0.0000E+00    0.0000E+00  setid=       0
 node=  1050 local x,y,z moments=    0.0000E+00    0.0000E+00    0.0000E+00  setid=       0
 node=  1051 local x,y,z forces =    0.0000E+00    0.0000E+00    0.0000E+00  setid=       0
 node=  1051 local x,y,z moments=    0.0000E+00    0.0000E+00    0.0000E+00  setid=       0
 node=  1052 local x,y,z forces =    0.0000E+00    0.0000E+00    0.0000E+00  setid=       0
 node=  1052 local x,y,z moments=    0.0000E+00    0.0000E+00    0.0000E+00  setid=       0
 node=  1053 local x,y,z forces =    0.0000E+00    0.0000E+00    0.0000E+00  setid=       0
 node=  1053 local x,y,z moments=    0.0000E+00    0.0000E+00    0.0000E+00  setid=       0
 node=  1054 local x,y,z forces =    0.0000E+00    0.0000E+00    0.0000E+00  setid=       0
 node=  1054 local x,y,z moments=    0.0000E+00    0.0000E+00    0.0000E+00  setid=       0
 node=  1055 local x,y,z forces =    0.0000E+00    0.0000E+00    0.0000E+00  setid=       0
 node=  1055 local x,y,z moments=    0.0000E+00    0.0000E+00    0.0000E+00  setid=       0
 node=  1056 local x,y,z forces =    0.0000E+00    0.0000E+00    0.0000E+00  setid=       0
 node=  1056 local x,y,z moments=    0.0000E+00    0.0000E+00    0.0000E+00  setid=       0
 node=  1057 local x,y,z forces =    0.0000E+00    0.0000E+00    0.0000E+00  setid=       0
 node=  1057 local x,y,z moments=    0.0000E+00    0.0000E+00    0.0000E+00  setid=       0
 node=  1058 local x,y,z forces =    0.0000E+00    0.0000E+00    0.0000E+00  setid=       0
 node=  1058 local x,y,z moments=    0.0000E+00    0.0000E+00    0.0000E+00  setid=       0
 node=  1059 local x,y,z forces =    0.0000E+00    0.0000E+00    0.0000E+00  setid=       0
 node=  1059 local x,y,z moments=    0.0000E+00    0.0000E+00    0.0000E+00  setid=       0
 node=  1060 local x,y,z forces =    0.0000E+00    0.0000E+00    0.0000E+00  setid=       0
 node=  1060 local x,y,z moments=    0.0000E+00    0.0000E+00    0.0000E+00  setid=       0
 node=  1061 local x,y,z forces =    0.0000E+00    0.0000E+00    0.0000E+00  setid=       0
 node=  1061 local x,y,z moments=    0.0000E+00    0.0000E+00    0.0000E+00  setid=       0
 node=  1062 local x,y,z forces =    0.0000E+00    0.0000E+00    0.0000E+00  setid=       0
 node=  1062 local x,y,z moments=    0.0000E+00    0.0000E+00    0.0000E+00  setid=       0
 node=  1063 local x,y,z forces =    0.0000E+00    0.0000E+00    0.0000E+00  setid=       0
 node=  1063 local x,y,z moments=    0.0000E+00    0.0000E+00    0.0000E+00  setid=       0
 node=  1064 local x,y,z forces =    0.0000E+00    0.0000E+00    0.0000E+00  setid=       0
 node=  1064 local x,y,z moments=    0.0000E+00    0.0000E+00    0.0000E+00  setid=       0
 node=  1065 local x,y,z forces =    0.0000E+00    0.0000E+00    0.0000E+00  setid=       0
 node=  1065 local x,y,z moments=    0.0000E+00    0.0000E+00    0.0000E+00  setid=       0
 node=  1066 local x,y,z forces =    0.0000E+00    0.0000E+00    0.0000E+00  setid=       0
 node=  1066 local x,y,z moments=    0.0000E+00    0.0000E+00    0.0000E+00  setid=       0
 node=  1067 local x,y,z forces =    0.0000E+00    0.0000E+00    0.0000E+00  setid=       0
 node=  1067 local x,y,z moments=    0.0000E+00    0.0000E+00    0.0000E+00  setid=       0
 node=  1068 local x,y,z forces =    0.0000E+00    0.0000E+00    0.0000E+00  setid=       0
 node=  1068 local x,y,z moments=    0.0000E+00    0.0000E+00    0.0000E+00  setid=       0
 node=  1069 local x,y,z forces =    0.0000E+00    0.0000E+00    0.0000E+00  setid=       0
 node=  1069 local x,y,z moments=    0.0000E+00    0.0000E+00    0.0000E+00  setid=       0
 node=  1070 local x,y,z forces =    0.0000E+00    0.0000E+00    0.0000E+00  setid=       0
 node=  1070 local x,y,z moments=    0.0000E+00    0.0000E+00    0.0000E+00  setid=       0
 node=  1071 local x,y,z forces =    0.0000E+00    0.0000E+00    0.0000E+00  setid=       0
 node=  1071 local x,y,z moments=    0.0000E+00    0.0000E+00    0.0000E+00  setid=       0
 node=  1072 local x,y,z forces =    0.0000E+00    0.0000E+00    0.0000E+00  setid=       0
 node=  1072 local x,y,z moments=    0.0000E+00    0.0000E+00    0.0000E+00  setid=       0
 node=  1073 local x,y,z forces =    0.0000E+00    0.0000E+00    0.0000E+00  setid=       0
 node=  1073 local x,y,z moments=    0.0000E+00    0.0000E+00    0.0000E+00  setid=       0
 node=  1074 local x,y,z forces =    0.0000E+00    0.0000E+00    0.0000E+00  setid=       0
 node=  1074 local x,y,z moments=    0.0000E+00    0.0000E+00    0.0000E+00  setid=       0
 node=  1075 local x,y,z forces =    0.0000E+00    0.0000E+00    0.0000E+00  setid=       0
 node=  1075 local x,y,z moments=    0.0000E+00    0.0000E+00    0.0000E+00  setid=       0
 node=  1076 local x,y,z forces =    0.0000E+00    0.0000E+00    0.0000E+00  setid=       0
 node=  1076 local x,y,z moments=    0.0000E+00    0.0000E+00    0.0000E+00  setid=       0
 node=  1161 local x,y,z forces =    0.0000E+00    0.0000E+00    0.0000E+00  setid=       0
 node=  1161 local x,y,z moments=    0.0000E+00    0.0000E+00    0.0000E+00  setid=       0
 node=  1163 local x,y,z forces =    0.0000E+00    0.0000E+00    0.0000E+00  setid=       0
 node=  1163 local x,y,z moments=    0.0000E+00    0.0000E+00    0.0000E+00  setid=       0
 node=  1164 local x,y,z forces =    0.0000E+00    0.0000E+00    0.0000E+00  setid=       0
 node=  1164 local x,y,z moments=    0.0000E+00    0.0000E+00    0.0000E+00  setid=       0
 node=  1166 local x,y,z forces =    0.0000E+00    0.0000E+00    0.0000E+00  setid=       0
 node=  1166 local x,y,z moments=    0.0000E+00    0.0000E+00    0.0000E+00  setid=       0
 node=  1167 local x,y,z forces =    0.0000E+00    0.0000E+00    0.0000E+00  setid=       0
 node=  1167 local x,y,z moments=    0.0000E+00    0.0000E+00    0.0000E+00  setid=       0
 node=  1169 local x,y,z forces =    0.0000E+00    0.0000E+00    0.0000E+00  setid=       0
 node=  1169 local x,y,z moments=    0.0000E+00    0.0000E+00    0.0000E+00  setid=       0
 node=  1170 local x,y,z forces =    0.0000E+00    0.0000E+00    0.0000E+00  setid=       0
 node=  1170 local x,y,z moments=    0.0000E+00    0.0000E+00    0.0000E+00  setid=       0
 node=  1172 local x,y,z forces =    0.0000E+00    0.0000E+00    0.0000E+00  setid=       0
 node=  1172 local x,y,z moments=    0.0000E+00    0.0000E+00    0.0000E+00  setid=       0
 node=  1173 local x,y,z forces =    0.0000E+00    0.0000E+00    0.0000E+00  setid=       0
 node=  1173 local x,y,z moments=    0.0000E+00    0.0000E+00    0.0000E+00  setid=       0
 node=  1175 local x,y,z forces =    0.0000E+00    0.0000E+00    0.0000E+00  setid=       0
 node=  1175 local x,y,z moments=    0.0000E+00    0.0000E+00    0.0000E+00  setid=       0
 node=  1176 local x,y,z forces =    0.0000E+00    0.0000E+00    0.0000E+00  setid=       0
 node=  1176 local x,y,z moments=    0.0000E+00    0.0000E+00    0.0000E+00  setid=       0
 node=  1178 local x,y,z forces =    0.0000E+00    0.0000E+00    0.0000E+00  setid=       0
 node=  1178 local x,y,z moments=    0.0000E+00    0.0000E+00    0.0000E+00  setid=       0
 node=  1179 local x,y,z forces =    0.0000E+00    0.0000E+00    0.0000E+00  setid=       0
 node=  1179 local x,y,z moments=    0.0000E+00    0.0000E+00    0.0000E+00  setid=       0
 node=  1181 local x,y,z forces =    0.0000E+00    0.0000E+00    0.0000E+00  setid=       0
 node=  1181 local x,y,z moments=    0.0000E+00    0.0000E+00    0.0000E+00  setid=       0
 node=  1182 local x,y,z forces =    0.0000E+00    0.0000E+00    0.0000E+00  setid=       0
 node=  1182 local x,y,z moments=    0.0000E+00    0.0000E+00    0.0000E+00  setid=       0
 node=  1184 local x,y,z forces =    0.0000E+00    0.0000E+00    0.0000E+00  setid=       0
 node=  1184 local x,y,z moments=    0.0000E+00    0.0000E+00    0.0000E+00  setid=       0
 node=  1185 local x,y,z forces =    0.0000E+00    0.0000E+00    0.0000E+00  setid=       0
 node=  1185 local x,y,z moments=    0.0000E+00    0.0000E+00    0.0000E+00  setid=       0
 node=  1187 local x,y,z forces =    0.0000E+00    0.0000E+00    0.0000E+00  setid=       0
 node=  1187 local x,y,z moments=    0.0000E+00    0.0000E+00    0.0000E+00  setid=       0
 node=  1188 local x,y,z forces =    0.0000E+00    0.0000E+00    0.0000E+00  setid=       0
 node=  1188 local x,y,z moments=    0.0000E+00    0.0000E+00    0.0000E+00  setid=       0
 node=  1190 local x,y,z forces =    0.0000E+00    0.0000E+00    0.0000E+00  setid=       0
 node=  1190 local x,y,z moments=    0.0000E+00    0.0000E+00    0.0000E+00  setid=       0
 node=  1191 local x,y,z forces =    0.0000E+00    0.0000E+00    0.0000E+00  setid=       0
 node=  1191 local x,y,z moments=    0.0000E+00    0.0000E+00    0.0000E+00  setid=       0
 node=  1193 local x,y,z forces =    0.0000E+00    0.0000E+00    0.0000E+00  setid=       0
 node=  1193 local x,y,z moments=    0.0000E+00    0.0000E+00    0.0000E+00  setid=       0
 node=  1194 local x,y,z forces =    0.0000E+00    0.0000E+00    0.0000E+00  setid=       0
 node=  1194 local x,y,z moments=    0.0000E+00    0.0000E+00    0.0000E+00  setid=       0
 node=  1196 local x,y,z forces =    0.0000E+00    0.0000E+00    0.0000E+00  setid=       0
 node=  1196 local x,y,z moments=    0.0000E+00    0.0000E+00    0.0000E+00  setid=       0
 node=  1197 local x,y,z forces =    0.0000E+00    0.0000E+00    0.0000E+00  setid=       0
 node=  1197 local x,y,z moments=    0.0000E+00    0.0000E+00    0.0000E+00  setid=       0
 node=  1199 local x,y,z forces =    0.0000E+00    0.0000E+00    0.0000E+00  setid=       0
 node=  1199 local x,y,z moments=    0.0000E+00    0.0000E+00    0.0000E+00  setid=       0
 node=  1200 local x,y,z forces =    0.0000E+00    0.0000E+00    0.0000E+00  setid=       0
 node=  1200 local x,y,z moments=    0.0000E+00    0.0000E+00    0.0000E+00  setid=       0
 node=  1202 local x,y,z forces =    0.0000E+00    0.0000E+00    0.0000E+00  setid=       0
 node=  1202 local x,y,z moments=    0.0000E+00    0.0000E+00    0.0000E+00  setid=       0
 node=  1203 local x,y,z forces =    0.0000E+00    0.0000E+00    0.0000E+00  setid=       0
 node=  1203 local x,y,z moments=    0.0000E+00    0.0000E+00    0.0000E+00  setid=       0
 node=  1205 local x,y,z forces =    0.0000E+00    0.0000E+00    0.0000E+00  setid=       0
 node=  1205 local x,y,z moments=    0.0000E+00    0.0000E+00    0.0000E+00  setid=       0
 node=  1206 local x,y,z forces =    0.0000E+00    0.0000E+00    0.0000E+00  setid=       0
 node=  1206 local x,y,z moments=    0.0000E+00    0.0000E+00    0.0000E+00  setid=       0
 node=  1208 local x,y,z forces =    0.0000E+00    0.0000E+00    0.0000E+00  setid=       0
 node=  1208 local x,y,z moments=    0.0000E+00    0.0000E+00    0.0000E+00  setid=       0
 node=  1209 local x,y,z forces =    0.0000E+00    0.0000E+00    0.0000E+00  setid=       0
 node=  1209 local x,y,z moments=    0.0000E+00    0.0000E+00    0.0000E+00  setid=       0
 node=  1211 local x,y,z forces =    0.0000E+00    0.0000E+00    0.0000E+00  setid=       0
 node=  1211 local x,y,z moments=    0.0000E+00    0.0000E+00    0.0000E+00  setid=       0
 node=  1212 local x,y,z forces =    0.0000E+00    0.0000E+00    0.0000E+00  setid=       0
 node=  1212 local x,y,z moments=    0.0000E+00    0.0000E+00    0.0000E+00  setid=       0
 node=  1214 local x,y,z forces =    0.0000E+00    0.0000E+00    0.0000E+00  setid=       0
 node=  1214 local x,y,z moments=    0.0000E+00    0.0000E+00    0.0000E+00  setid=       0
 node=  1215 local x,y,z forces =    0.0000E+00    0.0000E+00    0.0000E+00  setid=       0
 node=  1215 local x,y,z moments=    0.0000E+00    0.0000E+00    0.0000E+00  setid=       0
 node=  1217 local x,y,z forces =    0.0000E+00    0.0000E+00    0.0000E+00  setid=       0
 node=  1217 local x,y,z moments=    0.0000E+00    0.0000E+00    0.0000E+00  setid=       0
 node=  1218 local x,y,z forces =    0.0000E+00    0.0000E+00    0.0000E+00  setid=       0
 node=  1218 local x,y,z moments=    0.0000E+00    0.0000E+00    0.0000E+00  setid=       0
 node=  1220 local x,y,z forces =    0.0000E+00    0.0000E+00    0.0000E+00  setid=       0
 node=  1220 local x,y,z moments=    0.0000E+00    0.0000E+00    0.0000E+00  setid=       0
 node=  1221 local x,y,z forces =    0.0000E+00    0.0000E+00    0.0000E+00  setid=       0
[...]
 node=  3944 local x,y,z forces =    0.0000E+00   -2.7056E+00    0.0000E+00  setid=       0
 node=  3944 local x,y,z moments=   -6.6477E-05    0.0000E+00    1.1469E-04  setid=       0
 node=  3955 local x,y,z forces =    0.0000E+00   -1.3025E+00    0.0000E+00  setid=       0
 node=  3955 local x,y,z moments=    1.0745E-05    0.0000E+00    1.6301E-06  setid=       0
 node=  3956 local x,y,z forces =    0.0000E+00   -8.1684E-01    0.0000E+00  setid=       0
 node=  3956 local x,y,z moments=    3.5174E-05    0.0000E+00    2.1814E-06  setid=       0
 node=  3977 local x,y,z forces =    0.0000E+00   -2.6616E+00    0.0000E+00  setid=       0
 node=  3977 local x,y,z moments=   -4.2050E-04    0.0000E+00    2.7457E-04  setid=       0
 node=  3978 local x,y,z forces =    0.0000E+00   -2.4191E+00    0.0000E+00  setid=       0
 node=  3978 local x,y,z moments=   -3.7358E-04    0.0000E+00    2.3693E-04  setid=       0
 node=  3979 local x,y,z forces =    0.0000E+00   -6.0937E+00    0.0000E+00  setid=       0
 node=  3979 local x,y,z moments=    2.3948E-04    0.0000E+00    4.5592E-04  setid=       0
 node=  3980 local x,y,z forces =    0.0000E+00   -6.5652E+00    0.0000E+00  setid=       0
 node=  3980 local x,y,z moments=    2.6297E-04    0.0000E+00    4.6588E-04  setid=       0
 node=  3986 local x,y,z forces =    0.0000E+00   -2.7035E+00    0.0000E+00  setid=       0
 node=  3986 local x,y,z moments=   -5.7532E-05    0.0000E+00    1.7126E-05  setid=       0
 node=  3992 local x,y,z forces =    0.0000E+00   -6.5263E+00    0.0000E+00  setid=       0
 node=  3992 local x,y,z moments=   -2.5587E-04    0.0000E+00    2.5245E-04  setid=       0
 node=  3998 local x,y,z forces =    0.0000E+00   -2.3936E+00    0.0000E+00  setid=       0
 node=  3998 local x,y,z moments=   -5.0773E-05    0.0000E+00    1.0541E-04  setid=       0
 node=  4019 local x,y,z forces =    0.0000E+00   -1.8502E+00    0.0000E+00  setid=       0
 node=  4019 local x,y,z moments=    3.2230E-04    0.0000E+00    6.8588E-05  setid=       0
 node=  4020 local x,y,z forces =    0.0000E+00   -4.7568E+00    0.0000E+00  setid=       0
 node=  4020 local x,y,z moments=    1.4899E-04    0.0000E+00    1.9489E-04  setid=       0
 node=  4021 local x,y,z forces =    0.0000E+00   -3.2050E+00    0.0000E+00  setid=       0
 node=  4021 local x,y,z moments=    1.4342E-04    0.0000E+00    1.5711E-04  setid=       0
 node=  4022 local x,y,z forces =    0.0000E+00   -7.8105E-01    0.0000E+00  setid=       0
 node=  4022 local x,y,z moments=    1.8122E-04    0.0000E+00    3.6458E-05  setid=       0
 node=  4028 local x,y,z forces =    0.0000E+00   -5.6502E-01    0.0000E+00  setid=       0
 node=  4028 local x,y,z moments=   -1.5196E-04    0.0000E+00    2.8415E-05  setid=       0
 node=  4034 local x,y,z forces =    0.0000E+00   -4.8908E+00    0.0000E+00  setid=       0
 node=  4034 local x,y,z moments=   -1.7247E-04    0.0000E+00    6.0958E-05  setid=       0
 node=  4040 local x,y,z forces =    0.0000E+00   -3.2130E+00    0.0000E+00  setid=       0
 node=  4040 local x,y,z moments=   -8.0487E-05    0.0000E+00    2.5895E-05  setid=       0
 node=  4051 local x,y,z forces =    0.0000E+00   -2.0113E+00    0.0000E+00  setid=       0
 node=  4051 local x,y,z moments=   -3.4655E-05    0.0000E+00    1.1986E-04  setid=       0
 node=  4052 local x,y,z forces =    0.0000E+00   -2.1500E+00    0.0000E+00  setid=       0
 node=  4052 local x,y,z moments=   -3.7752E-05    0.0000E+00    9.9151E-05  setid=       0
 node=  4063 local x,y,z forces =    0.0000E+00   -3.1306E+00    0.0000E+00  setid=       0
 node=  4063 local x,y,z moments=   -5.4470E-05    0.0000E+00    1.5575E-04  setid=       0
 node=  4064 local x,y,z forces =    0.0000E+00   -2.7405E+00    0.0000E+00  setid=       0
 node=  4064 local x,y,z moments=   -4.4541E-05    0.0000E+00    1.4140E-04  setid=       0
 node=  4070 local x,y,z forces =    0.0000E+00    4.9873E+00    0.0000E+00  setid=       0
 node=  4070 local x,y,z moments=   -5.9229E-04    0.0000E+00   -3.2931E-04  setid=       0
 node=  4076 local x,y,z forces =    0.0000E+00   -6.5928E+00    0.0000E+00  setid=       0
 node=  4076 local x,y,z moments=   -4.8350E-05    0.0000E+00    2.6157E-04  setid=       0
 node=  4082 local x,y,z forces =    0.0000E+00   -1.9533E+00    0.0000E+00  setid=       0
 node=  4082 local x,y,z moments=   -2.4001E-05    0.0000E+00    9.6515E-05  setid=       0
 node=  4088 local x,y,z forces =    0.0000E+00   -2.5883E+00    0.0000E+00  setid=       0
 node=  4088 local x,y,z moments=   -6.3149E-05    0.0000E+00    4.1427E-05  setid=       0
 node=  4094 local x,y,z forces =    0.0000E+00   -5.7228E+00    0.0000E+00  setid=       0
 node=  4094 local x,y,z moments=   -7.4212E-05    0.0000E+00    2.4528E-04  setid=       0
 node=  4105 local x,y,z forces =    0.0000E+00   -6.2348E+00    0.0000E+00  setid=       0
 node=  4105 local x,y,z moments=   -3.2643E-04    0.0000E+00    2.4137E-04  setid=       0
 node=  4106 local x,y,z forces =    0.0000E+00   -5.2240E+00    0.0000E+00  setid=       0
 node=  4106 local x,y,z moments=   -2.4254E-04    0.0000E+00    2.2818E-04  setid=       0
 node=  4117 local x,y,z forces =    0.0000E+00   -6.7107E+00    0.0000E+00  setid=       0
 node=  4117 local x,y,z moments=   -2.9075E-04    0.0000E+00    2.3872E-04  setid=       0
 node=  4118 local x,y,z forces =    0.0000E+00   -6.6995E+00    0.0000E+00  setid=       0
 node=  4118 local x,y,z moments=   -3.5451E-04    0.0000E+00    2.2620E-04  setid=       0
 node=  4124 local x,y,z forces =    0.0000E+00   -4.6161E+00    0.0000E+00  setid=       0
 node=  4124 local x,y,z moments=   -1.8811E-04    0.0000E+00    9.3650E-05  setid=       0
 node=  4140 local x,y,z forces =    0.0000E+00   -6.7400E+00    0.0000E+00  setid=       0
 node=  4140 local x,y,z moments=   -3.4735E-04    0.0000E+00    1.6891E-04  setid=       0
 node=  4141 local x,y,z forces =    0.0000E+00   -6.4036E+00    0.0000E+00  setid=       0
 node=  4141 local x,y,z moments=   -3.6001E-04    0.0000E+00    1.9172E-04  setid=       0
 node=  4142 local x,y,z forces =    0.0000E+00   -6.7801E+00    0.0000E+00  setid=       0
 node=  4142 local x,y,z moments=   -3.5056E-04    0.0000E+00    2.0134E-04  setid=       0
 node=  4163 local x,y,z forces =    0.0000E+00    4.9625E+00    0.0000E+00  setid=       0
 node=  4163 local x,y,z moments=   -9.4997E-03    0.0000E+00    6.0104E-06  setid=       0
 node=  4164 local x,y,z forces =    0.0000E+00   -1.5453E+00    0.0000E+00  setid=       0
 node=  4164 local x,y,z moments=   -8.8116E-04    0.0000E+00    1.4776E-04  setid=       0
 node=  4165 local x,y,z forces =    0.0000E+00   -2.0606E+00    0.0000E+00  setid=       0
 node=  4165 local x,y,z moments=   -1.1612E-03    0.0000E+00    2.5544E-04  setid=       0
 node=  4166 local x,y,z forces =    0.0000E+00    6.3345E+00    0.0000E+00  setid=       0
 node=  4166 local x,y,z moments=   -1.1328E-02    0.0000E+00    1.2551E-05  setid=       0
 node=  4187 local x,y,z forces =    0.0000E+00   -4.9191E+00    0.0000E+00  setid=       0
 node=  4187 local x,y,z moments=    1.8998E-04    0.0000E+00    3.8746E-04  setid=       0
 node=  4188 local x,y,z forces =    0.0000E+00   -5.5246E+00    0.0000E+00  setid=       0
 node=  4188 local x,y,z moments=    2.1946E-04    0.0000E+00    4.2589E-04  setid=       0
 node=  4189 local x,y,z forces =    0.0000E+00   -2.1585E+00    0.0000E+00  setid=       0
 node=  4189 local x,y,z moments=   -3.2734E-04    0.0000E+00    2.0598E-04  setid=       0
 node=  4190 local x,y,z forces =    0.0000E+00   -1.9022E+00    0.0000E+00  setid=       0
 node=  4190 local x,y,z moments=   -2.8385E-04    0.0000E+00    1.8020E-04  setid=       0
 node=  4196 local x,y,z forces =    0.0000E+00   -1.4454E+00    0.0000E+00  setid=       0
 node=  4196 local x,y,z moments=   -5.7916E-05    0.0000E+00    1.2025E-04  setid=       0
 node=  4207 local x,y,z forces =    0.0000E+00   -1.2300E+00    0.0000E+00  setid=       0
 node=  4207 local x,y,z moments=   -6.4328E-04    0.0000E+00    9.3014E-05  setid=       0
 node=  4208 local x,y,z forces =    0.0000E+00   -1.1693E+00    0.0000E+00  setid=       0
 node=  4208 local x,y,z moments=   -2.4886E-05    0.0000E+00    7.5057E-05  setid=       0
 node=  4229 local x,y,z forces =    0.0000E+00   -1.3201E+00    0.0000E+00  setid=       0
 node=  4229 local x,y,z moments=   -9.1264E-06    0.0000E+00    2.1923E-05  setid=       0
 node=  4230 local x,y,z forces =    0.0000E+00   -1.7414E+00    0.0000E+00  setid=       0
 node=  4230 local x,y,z moments=   -2.3626E-05    0.0000E+00    2.5764E-05  setid=       0
 node=  4231 local x,y,z forces =    0.0000E+00   -1.7189E+00    0.0000E+00  setid=       0
 node=  4231 local x,y,z moments=   -1.7735E-05    0.0000E+00    4.5236E-05  setid=       0
 node=  4232 local x,y,z forces =    0.0000E+00   -1.3603E+00    0.0000E+00  setid=       0
 node=  4232 local x,y,z moments=   -1.1183E-05    0.0000E+00    4.2393E-05  setid=       0
 node=  4238 local x,y,z forces =    0.0000E+00   -3.4523E+00    0.0000E+00  setid=       0
 node=  4238 local x,y,z moments=   -7.7222E-05    0.0000E+00    1.6941E-04  setid=       0
 node=  4244 local x,y,z forces =    0.0000E+00   -3.5878E+00    0.0000E+00  setid=       0
 node=  4244 local x,y,z moments=   -5.7636E-05    0.0000E+00    1.7450E-04  setid=       0
 node=  4255 local x,y,z forces =    0.0000E+00   -6.7161E+00    0.0000E+00  setid=       0
 node=  4255 local x,y,z moments=   -3.1641E-04    0.0000E+00    1.4270E-04  setid=       0
 node=  4256 local x,y,z forces =    0.0000E+00   -6.4284E+00    0.0000E+00  setid=       0
 node=  4256 local x,y,z moments=   -2.8018E-04    0.0000E+00    1.1795E-04  setid=       0
 node=  4262 local x,y,z forces =    0.0000E+00   -1.4458E+00    0.0000E+00  setid=       0
 node=  4262 local x,y,z moments=   -2.1261E-04    0.0000E+00    1.4051E-04  setid=       0
 node=  4268 local x,y,z forces =    0.0000E+00   -1.6621E+00    0.0000E+00  setid=       0
 node=  4268 local x,y,z moments=   -2.4513E-04    0.0000E+00    1.5897E-04  setid=       0
 node=  4279 local x,y,z forces =    0.0000E+00   -6.1688E-01    0.0000E+00  setid=       0
 node=  4279 local x,y,z moments=    2.0159E-04    0.0000E+00    4.5728E-05  setid=       0
 node=  4280 local x,y,z forces =    0.0000E+00    1.1794E+00    0.0000E+00  setid=       0
 node=  4280 local x,y,z moments=   -3.5262E-05    0.0000E+00   -5.6601E-05  setid=       0
 node=  4291 local x,y,z forces =    0.0000E+00   -8.8317E-01    0.0000E+00  setid=       0
 node=  4291 local x,y,z moments=   -7.9039E-07    0.0000E+00    2.4275E-05  setid=       0
 node=  4292 local x,y,z forces =    0.0000E+00   -7.4051E-01    0.0000E+00  setid=       0
 node=  4292 local x,y,z moments=   -3.0847E-04    0.0000E+00    3.1420E-05  setid=       0
 node=  4303 local x,y,z forces =    0.0000E+00   -9.9289E-01    0.0000E+00  setid=       0
 node=  4303 local x,y,z moments=   -6.9889E-06    0.0000E+00    4.6167E-05  setid=       0
 node=  4304 local x,y,z forces =    0.0000E+00   -9.6707E-01    0.0000E+00  setid=       0
 node=  4304 local x,y,z moments=   -4.5257E-04    0.0000E+00    5.4267E-05  setid=       0
 node=  4315 local x,y,z forces =    0.0000E+00    2.0766E+00    0.0000E+00  setid=       0
 node=  4315 local x,y,z moments=   -4.8827E-03    0.0000E+00    4.0250E-05  setid=       0
 node=  4316 local x,y,z forces =    0.0000E+00    2.8874E+00    0.0000E+00  setid=       0
 node=  4316 local x,y,z moments=   -6.2934E-03    0.0000E+00    2.6612E-05  setid=       0
 node=  4322 local x,y,z forces =    0.0000E+00   -5.1917E+00    0.0000E+00  setid=       0
 node=  4322 local x,y,z moments=   -7.4925E-05    0.0000E+00    2.3036E-04  setid=       0
 node=  4328 local x,y,z forces =    0.0000E+00    1.1699E+00    0.0000E+00  setid=       0
 node=  4328 local x,y,z moments=   -3.6004E-03    0.0000E+00    9.6344E-05  setid=       0
 node=  4334 local x,y,z forces =    0.0000E+00   -4.5385E+00    0.0000E+00  setid=       0
 node=  4334 local x,y,z moments=   -1.4313E-04    0.0000E+00    1.7755E-04  setid=       0
 node=  4340 local x,y,z forces =    0.0000E+00   -2.1544E+00    0.0000E+00  setid=       0
 node=  4340 local x,y,z moments=   -4.1364E-05    0.0000E+00    3.1975E-05  setid=       0
 node=  4346 local x,y,z forces =    0.0000E+00   -6.6114E+00    0.0000E+00  setid=       0
 node=  4346 local x,y,z moments=   -2.9326E-04    0.0000E+00    2.1812E-04  setid=       0
 node=  4352 local x,y,z forces =    0.0000E+00   -9.3182E-01    0.0000E+00  setid=       0
 node=  4352 local x,y,z moments=   -1.5730E-04    0.0000E+00    1.4786E-05  setid=       0
 node=  4363 local x,y,z forces =    0.0000E+00   -2.4667E+00    0.0000E+00  setid=       0
 node=  4363 local x,y,z moments=    6.9766E-05    0.0000E+00    2.0039E-04  setid=       0
 node=  4364 local x,y,z forces =    0.0000E+00   -9.8478E-01    0.0000E+00  setid=       0
 node=  4364 local x,y,z moments=   -1.4880E-04    0.0000E+00    9.4335E-05  setid=       0
 node=  4370 local x,y,z forces =    0.0000E+00    3.8258E+00    0.0000E+00  setid=       0
 node=  4370 local x,y,z moments=   -7.8345E-03    0.0000E+00    1.8126E-05  setid=       0
 node=  4381 local x,y,z forces =    0.0000E+00   -2.9841E+00    0.0000E+00  setid=       0
 node=  4381 local x,y,z moments=   -5.3265E-04    0.0000E+00    4.7701E-04  setid=       0
 node=  4382 local x,y,z forces =    0.0000E+00   -2.9782E+00    0.0000E+00  setid=       0
 node=  4382 local x,y,z moments=   -5.0942E-04    0.0000E+00    3.7557E-04  setid=       0
 node=  4388 local x,y,z forces =    0.0000E+00   -2.5224E+00    0.0000E+00  setid=       0
 node=  4388 local x,y,z moments=    3.8985E-04    0.0000E+00    8.1863E-05  setid=       0
 node=  4394 local x,y,z forces =    0.0000E+00   -2.8615E+00    0.0000E+00  setid=       0
 node=  4394 local x,y,z moments=   -4.6587E-04    0.0000E+00    3.1961E-04  setid=       0
 node=  4400 local x,y,z forces =    0.0000E+00   -9.0270E-01    0.0000E+00  setid=       0
 node=  4400 local x,y,z moments=   -1.3962E-04    0.0000E+00    7.8846E-05  setid=       0
 node=  4406 local x,y,z forces =    0.0000E+00   -1.2711E+00    0.0000E+00  setid=       0
 node=  4406 local x,y,z moments=    1.4510E-04    0.0000E+00    3.2744E-04  setid=       0
 node=  4417 local x,y,z forces =    0.0000E+00    3.7518E+00    0.0000E+00  setid=       0
 node=  4417 local x,y,z moments=   -3.1948E-05    0.0000E+00    9.2929E-07  setid=       0
 node=  4418 local x,y,z forces =    0.0000E+00    3.6179E+00    0.0000E+00  setid=       0
 node=  4418 local x,y,z moments=   -5.7699E-05    0.0000E+00    3.5016E-06  setid=       0
 node=  4439 local x,y,z forces =    0.0000E+00    4.6333E+00    0.0000E+00  setid=       0
 node=  4439 local x,y,z moments=   -2.8127E-04    0.0000E+00   -8.2329E-05  setid=       0
 node=  4440 local x,y,z forces =    0.0000E+00    4.2623E+00    0.0000E+00  setid=       0
 node=  4440 local x,y,z moments=   -1.1480E-04    0.0000E+00    9.1632E-07  setid=       0
 node=  4441 local x,y,z forces =    0.0000E+00    4.5202E+00    0.0000E+00  setid=       0
 node=  4441 local x,y,z moments=   -9.5263E-05    0.0000E+00   -1.2913E-05  setid=       0
 node=  4442 local x,y,z forces =    0.0000E+00    5.0996E+00    0.0000E+00  setid=       0
 node=  4442 local x,y,z moments=   -2.0070E-04    0.0000E+00   -2.0588E-04  setid=       0
 node=  4463 local x,y,z forces =    0.0000E+00    3.5040E+00    0.0000E+00  setid=       0
 node=  4463 local x,y,z moments=   -8.8330E-05    0.0000E+00   -1.8847E-05  setid=       0
 node=  4464 local x,y,z forces =    0.0000E+00    3.5181E+00    0.0000E+00  setid=       0
 node=  4464 local x,y,z moments=   -1.3411E-04    0.0000E+00   -7.9515E-06  setid=       0
 node=  4465 local x,y,z forces =    0.0000E+00    3.7330E+00    0.0000E+00  setid=       0
 node=  4465 local x,y,z moments=   -1.2614E-04    0.0000E+00   -5.3905E-06  setid=       0
 node=  4466 local x,y,z forces =    0.0000E+00    3.8630E+00    0.0000E+00  setid=       0
 node=  4466 local x,y,z moments=   -1.7525E-04    0.0000E+00   -3.3331E-05  setid=       0
 node=  4477 local x,y,z forces =    0.0000E+00    4.2623E+00    0.0000E+00  setid=       0
 node=  4477 local x,y,z moments=   -2.2638E-04    0.0000E+00   -4.9538E-05  setid=       0
 node=  4478 local x,y,z forces =    0.0000E+00    3.9940E+00    0.0000E+00  setid=       0
 node=  4478 local x,y,z moments=   -1.1898E-04    0.0000E+00   -3.6320E-06  setid=       0
 node=  4489 local x,y,z forces =    0.0000E+00    1.0373E+00    0.0000E+00  setid=       0
 node=  4489 local x,y,z moments=    1.2921E-04    0.0000E+00    2.2484E-05  setid=       0
 node=  4490 local x,y,z forces =    0.0000E+00    1.1935E+00    0.0000E+00  setid=       0
 node=  4490 local x,y,z moments=    1.8838E-04    0.0000E+00   -2.5726E-05  setid=       0
 node=  4501 local x,y,z forces =    0.0000E+00    4.1242E+00    0.0000E+00  setid=       0
 node=  4501 local x,y,z moments=   -6.4276E-05    0.0000E+00    4.9248E-06  setid=       0
 node=  4502 local x,y,z forces =    0.0000E+00    4.2871E+00    0.0000E+00  setid=       0
 node=  4502 local x,y,z moments=   -5.8277E-05    0.0000E+00    5.1076E-06  setid=       0
 node=  4513 local x,y,z forces =    0.0000E+00    4.1384E+00    0.0000E+00  setid=       0
 node=  4513 local x,y,z moments=   -3.3540E-05    0.0000E+00    4.9535E-06  setid=       0
 node=  4514 local x,y,z forces =    0.0000E+00    4.0034E+00    0.0000E+00  setid=       0
 node=  4514 local x,y,z moments=   -1.8524E-05    0.0000E+00    4.7425E-06  setid=       0
 node=  4525 local x,y,z forces =    0.0000E+00    3.9727E+00    0.0000E+00  setid=       0
 node=  4525 local x,y,z moments=   -2.0794E-05    0.0000E+00    3.7698E-06  setid=       0
 node=  4526 local x,y,z forces =    0.0000E+00    3.9150E+00    0.0000E+00  setid=       0
 node=  4526 local x,y,z moments=   -2.3245E-05    0.0000E+00    2.8487E-06  setid=       0
 node=  4537 local x,y,z forces =    0.0000E+00    3.7060E+00    0.0000E+00  setid=       0
 node=  4537 local x,y,z moments=   -7.4774E-05    0.0000E+00    7.8597E-06  setid=       0
 node=  4538 local x,y,z forces =    0.0000E+00    3.9197E+00    0.0000E+00  setid=       0
 node=  4538 local x,y,z moments=   -6.7740E-05    0.0000E+00    6.9405E-06  setid=       0
 node=  4549 local x,y,z forces =    0.0000E+00    8.8285E-01    0.0000E+00  setid=       0
 node=  4549 local x,y,z moments=    9.2904E-05    0.0000E+00   -2.3399E-05  setid=       0
 node=  4550 local x,y,z forces =    0.0000E+00    9.8192E-01    0.0000E+00  setid=       0
 node=  4550 local x,y,z moments=    1.1701E-04    0.0000E+00   -1.3360E-05  setid=       0
 node=  4556 local x,y,z forces =    0.0000E+00    3.5037E+00    0.0000E+00  setid=       0
 node=  4556 local x,y,z moments=   -8.6883E-05    0.0000E+00    7.3178E-06  setid=       0
 node=  4562 local x,y,z forces =    0.0000E+00    3.8416E+00    0.0000E+00  setid=       0
 node=  4562 local x,y,z moments=   -2.6334E-05    0.0000E+00    1.8751E-06  setid=       0
 node=  4568 local x,y,z forces =    0.0000E+00    3.7744E+00    0.0000E+00  setid=       0
 node=  4568 local x,y,z moments=   -4.7802E-05    0.0000E+00    3.4181E-06  setid=       0
 node=  4579 local x,y,z forces =    0.0000E+00    3.9209E+00    0.0000E+00  setid=       0
 node=  4579 local x,y,z moments=   -4.2473E-05    0.0000E+00    3.6559E-06  setid=       0
 node=  4580 local x,y,z forces =    0.0000E+00    4.0500E+00    0.0000E+00  setid=       0
 node=  4580 local x,y,z moments=   -3.8199E-05    0.0000E+00    3.9016E-06  setid=       0
 node=  4586 local x,y,z forces =    0.0000E+00    1.5645E+00    0.0000E+00  setid=       0
 node=  4586 local x,y,z moments=    2.7811E-04    0.0000E+00   -4.5919E-05  setid=       0
             force resultants   =   -3.6120E+00   -2.7096E+00    2.3851E+03
