 LS-DYNA keyword deck by LS-PrePost                                      
                    ls-dyna smp d R14 R14.1.1s_1_ef50e1 date 06/16/2024



 n o d a l  s t r e s s  c a l c u l a t i o n s   f o r   t i m e  s t e p        1   ( at time 0.00000E+00 )

 node (global)
          stress       sig-xx      sig-yy      sig-zz      sig-xy      sig-yz      sig-zx       plastic
                                                                                                 strain 
       1-
 mid.  surface     5.3602E-05  5.3602E-05  5.3602E-05  0.0000E+00  0.0000E+00  0.0000E+00  0.0000E+00
       2-
 mid.  surface     9.5276E-05  9.5276E-05  9.5276E-05  0.0000E+00  0.0000E+00  0.0000E+00  0.0000E+00
       8-
 mid.  surface     3.1932E-05  3.1932E-05  3.1932E-05  0.0000E+00  0.0000E+00  0.0000E+00  0.0000E+00
       9-
 mid.  surface    -2.9208E-05 -2.9208E-05 -2.9208E-05  0.0000E+00  0.0000E+00  0.0000E+00  0.0000E+00
      10-
 mid.  surface     4.4959E-05  4.4959E-05  4.4959E-05  0.0000E+00  0.0000E+00  0.0000E+00  0.0000E+00
      11-
 mid.  surface     2.9827E-05  2.9827E-05  2.9827E-05  0.0000E+00  0.0000E+00  0.0000E+00  0.0000E+00
      12-
 mid.  surface     5.5756E-05  5.5756E-05  5.5756E-05  0.0000E+00  0.0000E+00  0.0000E+00  0.0000E+00
      17-
 mid.  surface    -2.1580E-05 -2.1580E-05 -2.1580E-05  0.0000E+00  0.0000E+00  0.0000E+00  0.0000E+00
      18-
 mid.  surface     2.1147E-05  2.1147E-05  2.1147E-05  0.0000E+00  0.0000E+00  0.0000E+00  0.0000E+00
      19-
 mid.  surface     7.9568E-05  7.9568E-05  7.9568E-05  0.0000E+00  0.0000E+00  0.0000E+00  0.0000E+00
      20-
 mid.  surface    -1.1466E-04 -1.1466E-04 -1.1466E-04  0.0000E+00  0.0000E+00  0.0000E+00  0.0000E+00
      21-
 mid.  surface    -4.9213E-05 -4.9213E-05 -4.9213E-05  0.0000E+00  0.0000E+00  0.0000E+00  0.0000E+00
      22-
 mid.  surface    -9.0888E-05 -9.0888E-05 -9.0888E-05  0.0000E+00  0.0000E+00  0.0000E+00  0.0000E+00
      23-
 mid.  surface    -6.1100E-05 -6.1100E-05 -6.1100E-05  0.0000E+00  0.0000E+00  0.0000E+00  0.0000E+00
      52-
 mid.  surface     6.0667E-05  6.0667E-05  6.0667E-05  0.0000E+00  0.0000E+00  0.0000E+00  0.0000E+00
      53-
 mid.  surface     1.8992E-05  1.8992E-05  1.8992E-05  0.0000E+00  0.0000E+00  0.0000E+00  0.0000E+00
     124-
 mid.  surface    -3.8955E-05 -3.8955E-05 -3.8955E-05  0.0000E+00  0.0000E+00  0.0000E+00  0.0000E+00
     125-
 mid.  surface    -4.9213E-05 -4.9213E-05 -4.9213E-05  0.0000E+00  0.0000E+00  0.0000E+00  0.0000E+00
     148-
 mid.  surface     3.6241E-05  3.6241E-05  3.6241E-05  0.0000E+00  0.0000E+00  0.0000E+00  0.0000E+00
     164-
 mid.  surface    -6.0625E-05 -6.0625E-05 -6.0625E-05  0.0000E+00  0.0000E+00  0.0000E+00  0.0000E+00



 n o d a l  s t r a i n  c a l c u l a t i o n s   f o r   t i m e  s t e p        1   ( at time 0.00000E+00 )

 node (global)
          strain       eps-xx      eps-yy      eps-zz      eps-xy      eps-yz      eps-zx       
       1-
 mid.  surface     0.0000E+00  0.0000E+00  0.0000E+00  0.0000E+00  0.0000E+00  0.0000E+00
       2-
 mid.  surface     0.0000E+00  0.0000E+00  0.0000E+00  0.0000E+00  0.0000E+00  0.0000E+00
       8-
 mid.  surface     0.0000E+00  0.0000E+00  0.0000E+00  0.0000E+00  0.0000E+00  0.0000E+00
       9-
 mid.  surface     0.0000E+00  0.0000E+00  0.0000E+00  0.0000E+00  0.0000E+00  0.0000E+00
      10-
 mid.  surface     0.0000E+00  0.0000E+00  0.0000E+00  0.0000E+00  0.0000E+00  0.0000E+00
      11-
 mid.  surface     0.0000E+00  0.0000E+00  0.0000E+00  0.0000E+00  0.0000E+00  0.0000E+00
      12-
 mid.  surface     0.0000E+00  0.0000E+00  0.0000E+00  0.0000E+00  0.0000E+00  0.0000E+00
      17-
 mid.  surface     0.0000E+00  0.0000E+00  0.0000E+00  0.0000E+00  0.0000E+00  0.0000E+00
      18-
 mid.  surface     0.0000E+00  0.0000E+00  0.0000E+00  0.0000E+00  0.0000E+00  0.0000E+00
      19-
 mid.  surface     0.0000E+00  0.0000E+00  0.0000E+00  0.0000E+00  0.0000E+00  0.0000E+00
      20-
 mid.  surface     0.0000E+00  0.0000E+00  0.0000E+00  0.0000E+00  0.0000E+00  0.0000E+00
      21-
 mid.  surface     0.0000E+00  0.0000E+00  0.0000E+00  0.0000E+00  0.0000E+00  0.0000E+00
      22-
 mid.  surface     0.0000E+00  0.0000E+00  0.0000E+00  0.0000E+00  0.0000E+00  0.0000E+00
      23-
 mid.  surface     0.0000E+00  0.0000E+00  0.0000E+00  0.0000E+00  0.0000E+00  0.0000E+00
      52-
 mid.  surface     0.0000E+00  0.0000E+00  0.0000E+00  0.0000E+00  0.0000E+00  0.0000E+00
      53-
 mid.  surface     0.0000E+00  0.0000E+00  0.0000E+00  0.0000E+00  0.0000E+00  0.0000E+00
     124-
 mid.  surface     0.0000E+00  0.0000E+00  0.0000E+00  0.0000E+00  0.0000E+00  0.0000E+00
     125-
 mid.  surface     0.0000E+00  0.0000E+00  0.0000E+00  0.0000E+00  0.0000E+00  0.0000E+00
     148-
 mid.  surface     0.0000E+00  0.0000E+00  0.0000E+00  0.0000E+00  0.0000E+00  0.0000E+00
     164-
 mid.  surface     0.0000E+00  0.0000E+00  0.0000E+00  0.0000E+00  0.0000E+00  0.0000E+00



 n o d a l  s t r e s s  c a l c u l a t i o n s   f o r   t i m e  s t e p       10   ( at time 1.29245E+00 )

 node (global)
          stress       sig-xx      sig-yy      sig-zz      sig-xy      sig-yz      sig-zx       plastic
                                                                                                 strain 
       1-
 mid.  surface    -1.0682E+07 -1.8692E+07 -1.2563E+08  2.0728E+07 -5.5634E+06 -1.8454E+07  0.0000E+00
       2-
 mid.  surface    -2.2604E+07 -6.9871E+06 -1.8337E+08  1.3464E+07 -1.5468E+06 -8.6223E+06  0.0000E+00
       8-
 mid.  surface    -1.2824E+07  1.8359E+07 -1.0195E+08 -5.4142E+06 -1.1557E+06  1.4784E+06  0.0000E+00
       9-
 mid.  surface    -1.0446E+07 -9.6817E+05 -1.6429E+08 -9.8538E+06 -5.5360E+06  2.9594E+06  0.0000E+00
      10-
 mid.  surface    -9.9539E+06  3.1970E+06 -1.6699E+08  3.2544E+06 -5.2947E+06  8.9005E+06  0.0000E+00
      11-
 mid.  surface    -6.7343E+05 -2.8391E+06 -1.4426E+08  8.1010E+06 -3.5370E+07 -5.4655E+06  0.0000E+00
      12-
 mid.  surface    -1.3505E+07 -1.3389E+07 -1.2918E+08  4.8245E+06 -3.3034E+07 -1.5857E+07  0.0000E+00
      17-
 mid.  surface     9.4227E+06 -3.6153E+06 -1.2137E+08  9.3937E+06 -1.1570E+07 -1.6057E+07  0.0000E+00
      18-
 mid.  surface    -7.7211E+06  1.2148E+07 -1.1239E+08  1.1353E+07  1.9442E+06 -4.4288E+06  0.0000E+00
      19-
 mid.  surface    -1.0581E+07 -5.7074E+06 -1.5499E+08 -3.4448E+06 -6.6047E+06 -1.2483E+07  0.0000E+00
      20-
 mid.  surface    -2.5943E+06 -1.7955E+07 -1.3528E+08  7.2343E+06  5.1836E+06  1.2911E+07  0.0000E+00
      21-
 mid.  surface    -2.0636E+07 -1.6070E+07 -1.6650E+08 -5.8487E+06  2.8850E+06  8.4273E+06  0.0000E+00
      22-
 mid.  surface    -2.5996E+07 -2.8473E+07 -1.4414E+08  2.6475E+06  1.2108E+07 -8.1165E+06  0.0000E+00
      23-
 mid.  surface    -1.3576E+07 -1.8310E+07 -1.6074E+08  6.3705E+06  1.4990E+07 -7.3769E+06  0.0000E+00
      52-
 mid.  surface    -1.3959E+07 -1.8467E+06 -1.6960E+08  2.8404E+06 -6.8079E+06 -1.2384E+07  0.0000E+00
      53-
 mid.  surface    -1.3059E+07  5.8719E+06 -1.1565E+08  1.1453E+07 -1.0854E+07  2.2406E+05  0.0000E+00
     124-
 mid.  surface    -3.0777E+07 -1.4441E+07 -1.9214E+08  1.1305E+07  5.4970E+06 -1.5060E+06  0.0000E+00
     125-
 mid.  surface    -2.2283E+07 -3.3550E+07 -1.3709E+08  1.8376E+07  2.8042E+07 -1.3366E+07  0.0000E+00
     148-
 mid.  surface    -1.7477E+07  1.4053E+07 -1.0486E+08 -4.7644E+06 -4.8326E+06  2.1016E+06  0.0000E+00
     164-
 mid.  surface    -1.3871E+07 -5.8678E+06 -1.6751E+08 -9.8527E+06 -8.5473E+06 -1.2186E+07  0.0000E+00



 n o d a l  s t r a i n  c a l c u l a t i o n s   f o r   t i m e  s t e p       10   ( at time 1.29245E+00 )

 node (global)
          strain       eps-xx      eps-yy      eps-zz      eps-xy      eps-yz      eps-zx       
       1-
 mid.  surface     5.3708E-04  3.8422E-04 -1.6565E-03  3.9557E-04 -1.0622E-04 -3.5226E-04
       2-
 mid.  surface     5.8645E-04  8.8444E-04 -2.4815E-03  2.5694E-04 -2.9464E-05 -1.6450E-04
       8-
 mid.  surface     2.1606E-04  8.1114E-04 -1.4849E-03 -1.0331E-04 -2.1996E-05  2.8264E-05
       9-
 mid.  surface     6.4014E-04  8.2102E-04 -2.2958E-03 -1.8807E-04 -1.0572E-04  5.6429E-05
      10-
 mid.  surface     6.4014E-04  8.9113E-04 -2.3566E-03  6.2067E-05 -1.0112E-04  1.6978E-04
      11-
 mid.  surface     6.9311E-04  6.5190E-04 -2.0473E-03  1.5464E-04 -6.7482E-04 -1.0411E-04
      12-
 mid.  surface     4.8811E-04  4.9038E-04 -1.7194E-03  9.2049E-05 -6.3048E-04 -3.0269E-04
      17-
 mid.  surface     7.3209E-04  4.8318E-04 -1.7641E-03  1.7933E-04 -2.2052E-04 -3.0614E-04
      18-
 mid.  surface     3.6866E-04  7.4773E-04 -1.6288E-03  2.1666E-04  3.7243E-05 -8.4391E-05
      19-
 mid.  surface     6.1661E-04  7.0954E-04 -2.1393E-03 -6.5749E-05 -1.2591E-04 -2.3807E-04
      20-
 mid.  surface     6.9522E-04  4.0200E-04 -1.8370E-03  1.3811E-04  9.9101E-05  2.4659E-04
      21-
 mid.  surface     5.7727E-04  6.6433E-04 -2.2063E-03 -1.1164E-04  5.4983E-05  1.6074E-04
      22-
 mid.  surface     4.5307E-04  4.0585E-04 -1.8015E-03  5.0480E-05  2.3077E-04 -1.5521E-04
      23-
 mid.  surface     6.6140E-04  5.7118E-04 -2.1471E-03  1.2156E-04  2.8587E-04 -1.4098E-04
      52-
 mid.  surface     6.1947E-04  8.5065E-04 -2.3507E-03  5.4142E-05 -1.3021E-04 -2.3663E-04
      53-
 mid.  surface     3.3788E-04  6.9906E-04 -1.6199E-03  2.1856E-04 -2.0720E-04  4.1950E-06
     124-
 mid.  surface     5.4696E-04  8.5865E-04 -2.5323E-03  2.1574E-04  1.0485E-04 -2.8791E-05
     125-
 mid.  surface     4.9687E-04  2.8181E-04 -1.6941E-03  3.5068E-04  5.3502E-04 -2.5523E-04
     148-
 mid.  surface     1.8400E-04  7.8569E-04 -1.4837E-03 -9.0921E-05 -9.2283E-05  4.0049E-05
     164-
 mid.  surface     6.3001E-04  7.8277E-04 -2.3020E-03 -1.8804E-04 -1.6330E-04 -2.3271E-04



 n o d a l  s t r e s s  c a l c u l a t i o n s   f o r   t i m e  s t e p       14   ( at time 2.54839E+00 )

 node (global)
          stress       sig-xx      sig-yy      sig-zz      sig-xy      sig-yz      sig-zx       plastic
                                                                                                 strain 
       1-
 mid.  surface    -1.7990E+06 -1.7123E+07 -2.8256E+08  4.7326E+07 -1.5032E+07 -3.6171E+07 -2.5635E-04
       2-
 mid.  surface    -9.6234E+07 -5.5786E+07 -2.9221E+08  2.5329E+07 -6.0933E+06  7.9668E+05  6.3661E-04
       8-
 mid.  surface    -1.8175E+07  4.6527E+07 -2.0260E+08 -1.1576E+07 -4.9312E+06  3.5350E+06 -8.2660E-05
       9-
 mid.  surface    -3.1688E+07 -1.1703E+07 -3.0276E+08 -2.2800E+07 -8.0356E+06  8.0271E+06  1.9288E-04
      10-
 mid.  surface    -3.9111E+07 -1.1804E+07 -2.9430E+08  5.6327E+06 -8.8545E+06  2.4606E+07  3.2521E-04
      11-
 mid.  surface    -2.2432E+06 -1.4351E+06 -2.7159E+08  1.9677E+07 -8.3943E+07 -7.2669E+06  8.7297E-05
      12-
 mid.  surface    -1.5153E+07 -1.1611E+07 -2.6644E+08  1.2585E+07 -8.2590E+07 -3.2645E+07 -1.0769E-04
      17-
 mid.  surface     1.8772E+07 -1.2546E+07 -2.1260E+08  1.9883E+07 -3.8001E+07 -2.9720E+07  1.3799E-04
      18-
 mid.  surface    -1.8440E+07  2.1657E+07 -2.0431E+08  2.3925E+07  3.6779E+06 -5.5140E+06  9.9000E-05
      19-
 mid.  surface    -5.1162E+07 -4.3433E+07 -2.4579E+08 -1.0983E+07 -2.8514E+07 -1.7044E+07  4.8272E-04
      20-
 mid.  surface    -5.0190E+06 -4.1956E+07 -2.5617E+08  1.4389E+07  2.3733E+07  2.6811E+07  7.7664E-05
      21-
 mid.  surface    -6.9949E+07 -6.5334E+07 -2.8130E+08 -1.7143E+07  2.1651E+07  2.0957E+07  4.1705E-04
      22-
 mid.  surface    -3.6343E+07 -4.0721E+07 -3.1818E+08  8.1392E+06  3.2889E+07 -2.2759E+07 -2.3185E-04
      23-
 mid.  surface    -2.4804E+07 -2.8916E+07 -3.3042E+08  1.6357E+07  3.3939E+07 -1.8071E+07 -5.4727E-05
      52-
 mid.  surface    -4.6490E+07 -2.0994E+07 -3.0818E+08  4.2978E+06 -6.2678E+06 -2.5336E+07  2.8780E-04
      53-
 mid.  surface    -2.8205E+07  9.4629E+06 -2.1815E+08  2.3383E+07 -1.5642E+07 -1.6920E+06  6.4146E-05
     124-
 mid.  surface    -1.1021E+08 -7.0569E+07 -3.1928E+08  2.0369E+07  3.1882E+07 -9.5449E+06  5.5580E-04
     125-
 mid.  surface    -2.6186E+07 -5.0240E+07 -3.1077E+08  4.2498E+07  7.4092E+07 -3.8799E+07 -2.8762E-04
     148-
 mid.  surface    -2.6893E+07  3.7378E+07 -2.1410E+08 -1.0492E+07 -1.0129E+07 -3.4139E+05 -1.0681E-04
     164-
 mid.  surface    -3.7666E+07 -2.0963E+07 -3.1767E+08 -2.2907E+07 -1.5493E+07 -2.9235E+07  1.5018E-04



 n o d a l  s t r a i n  c a l c u l a t i o n s   f o r   t i m e  s t e p       14   ( at time 2.54839E+00 )

 node (global)
          strain       eps-xx      eps-yy      eps-zz      eps-xy      eps-yz      eps-zx       
       1-
 mid.  surface     1.0618E-03  7.6512E-04 -3.2563E-03  8.6923E-04 -2.4084E-04 -6.5079E-04
       2-
 mid.  surface     1.1681E-03  1.8328E-03 -5.1087E-03  5.6399E-04 -7.2013E-05 -2.6980E-04
       8-
 mid.  surface     3.5825E-04  1.6616E-03 -2.8473E-03 -2.4523E-04 -2.9027E-05  7.0423E-05
       9-
 mid.  surface     1.3092E-03  1.6778E-03 -4.6323E-03 -4.1713E-04 -2.0747E-04  1.3348E-04
      10-
 mid.  surface     1.3135E-03  1.8499E-03 -4.8044E-03  1.4164E-04 -1.8833E-04  3.9962E-04
      11-
 mid.  surface     1.4449E-03  1.3571E-03 -4.1118E-03  3.6235E-04 -1.5041E-03 -2.1899E-04
      12-
 mid.  surface     9.7123E-04  9.9817E-04 -3.3618E-03  2.0831E-04 -1.4387E-03 -6.6020E-04
      17-
 mid.  surface     1.5202E-03  9.7736E-04 -3.4787E-03  4.2351E-04 -5.2673E-04 -6.7720E-04
      18-
 mid.  surface     6.9420E-04  1.5487E-03 -3.1976E-03  4.7194E-04  8.9219E-05 -1.6909E-04
      19-
 mid.  surface     1.2526E-03  1.4426E-03 -4.3117E-03 -1.3193E-04 -3.2969E-04 -5.3463E-04
      20-
 mid.  surface     1.4199E-03  7.8342E-04 -3.6430E-03  3.1178E-04  2.5989E-04  5.5157E-04
      21-
 mid.  surface     1.1548E-03  1.3330E-03 -4.4660E-03 -2.4852E-04  1.5991E-04  3.8246E-04
      22-
 mid.  surface     8.7871E-04  7.9673E-04 -3.5514E-03  1.0751E-04  5.4562E-04 -2.9695E-04
      23-
 mid.  surface     1.3514E-03  1.1602E-03 -4.3360E-03  2.7135E-04  6.8088E-04 -2.8208E-04
      52-
 mid.  surface     1.2579E-03  1.7417E-03 -4.7845E-03  1.1670E-04 -2.6872E-04 -5.2764E-04
      53-
 mid.  surface     6.2351E-04  1.4241E-03 -3.1719E-03  4.6642E-04 -4.6477E-04 -5.1183E-06
     124-
 mid.  surface     1.0634E-03  1.7697E-03 -5.2068E-03  4.7418E-04  2.6079E-04 -1.7227E-04
     125-
 mid.  surface     9.5764E-04  5.2459E-04 -3.3192E-03  7.7837E-04  1.2305E-03 -6.3557E-04
     148-
 mid.  surface     2.9164E-04  1.5815E-03 -2.8397E-03 -2.1964E-04 -2.0400E-04  7.0301E-05
     164-
 mid.  surface     1.2830E-03  1.5690E-03 -4.6397E-03 -4.1628E-04 -3.5661E-04 -5.3655E-04



 n o d a l  s t r e s s  c a l c u l a t i o n s   f o r   t i m e  s t e p      256   ( at time 3.47231E+00 )

 node (global)
          stress       sig-xx      sig-yy      sig-zz      sig-xy      sig-yz      sig-zx       plastic
                                                                                                 strain 
       1-
 mid.  surface     3.2459E+07  2.6524E+07 -2.7797E+08  5.7710E+07 -1.9688E+07 -1.4395E+07  5.6250E-04
       2-
 mid.  surface    -2.4361E+08 -1.5886E+08 -4.5927E+08  3.6179E+07 -1.3521E+07  2.2892E+07  5.5083E-03
       8-
 mid.  surface     1.4709E+07  7.7265E+07 -1.9562E+08 -1.7739E+07 -6.0931E+06  2.9694E+06 -5.0282E-03
       9-
 mid.  surface    -2.4976E+07 -1.7870E+07 -2.9182E+08 -2.7932E+07 -2.3506E+06  1.0017E+07  4.4228E-03
      10-
 mid.  surface    -4.3440E+07 -2.5018E+07 -2.8655E+08  4.4333E+06 -3.8632E+06  2.8724E+07  9.2545E-03
      11-
 mid.  surface     6.3167E+07  6.0072E+07 -2.2404E+08  1.9790E+07 -1.1850E+08 -1.9032E+07  4.6460E-03
      12-
 mid.  surface     4.2602E+07  4.6980E+07 -1.8231E+08  6.9863E+06 -1.2086E+08 -3.8173E+07  4.9830E-03
      17-
 mid.  surface     6.0028E+07  3.0364E+07 -1.7050E+08  2.3560E+07 -6.0922E+07 -4.7209E+07 -3.9452E-03
      18-
 mid.  surface    -3.5647E+06  3.5687E+07 -1.8801E+08  2.3404E+07  5.4814E+06 -1.1739E+07 -1.0745E-03
      19-
 mid.  surface    -1.2119E+08 -9.2525E+07 -2.7200E+08 -1.3890E+07 -5.1607E+07 -2.2963E+07  4.2631E-03
      20-
 mid.  surface    -1.3066E+07 -5.1765E+07 -2.8164E+08  2.3147E+07  3.4103E+07  3.6870E+07 -2.8124E-03
      21-
 mid.  surface    -1.7569E+08 -1.6840E+08 -3.6157E+08 -1.7316E+07  3.7591E+07  3.2822E+07  2.4789E-03
      22-
 mid.  surface    -2.0745E+07 -3.8042E+07 -2.9739E+08  6.1047E+06  5.3564E+07 -1.7380E+07  3.7868E-03
      23-
 mid.  surface    -9.0498E+06 -1.8790E+07 -3.6071E+08  2.0659E+07  4.9104E+07 -9.0262E+06  5.2337E-03
      52-
 mid.  surface    -7.3105E+07 -5.1877E+07 -3.2392E+08  4.9401E+06 -4.3681E+06 -2.5865E+07  1.1311E-02
      53-
 mid.  surface    -4.8310E+07 -2.9554E+06 -2.3425E+08  2.5287E+07 -2.3134E+07 -3.1348E+06 -8.9982E-04
     124-
 mid.  surface    -2.8609E+08 -2.2351E+08 -5.0003E+08  2.8925E+07  5.5707E+07 -4.8060E+07  3.2705E-03
     125-
 mid.  surface    -2.3779E+07 -5.8653E+07 -3.1196E+08  5.1613E+07  1.1801E+08 -8.1236E+07 -1.8778E-03
     148-
 mid.  surface    -3.0439E+07  4.1378E+07 -2.3779E+08 -1.4182E+07 -2.7406E+07 -5.2106E+05 -2.7884E-03
     164-
 mid.  surface    -5.0992E+07 -4.3140E+07 -3.2246E+08 -2.4909E+07 -2.2496E+07 -3.2911E+07  6.8734E-03



 n o d a l  s t r a i n  c a l c u l a t i o n s   f o r   t i m e  s t e p      256   ( at time 3.47231E+00 )

 node (global)
          strain       eps-xx      eps-yy      eps-zz      eps-xy      eps-yz      eps-zx       
       1-
 mid.  surface     1.9337E-03  2.0312E-03 -5.0045E-03  2.0427E-03 -6.0378E-04 -5.7292E-04
       2-
 mid.  surface     2.1190E-03  4.5123E-03 -1.0722E-02  1.2505E-03 -1.8805E-04  1.0342E-04
       8-
 mid.  surface     1.1775E-03  3.4525E-03 -5.1246E-03 -6.7451E-04 -1.1133E-04  1.5264E-04
       9-
 mid.  surface     3.1662E-03  3.4843E-03 -8.2490E-03 -9.8462E-04 -2.1018E-04  3.1556E-04
      10-
 mid.  surface     3.1694E-03  3.9248E-03 -8.7934E-03  2.4186E-04 -2.4624E-04  9.3105E-04
      11-
 mid.  surface     3.3314E-03  3.1706E-03 -6.9936E-03  7.0660E-04 -3.8966E-03 -6.2888E-04
      12-
 mid.  surface     2.1726E-03  2.4707E-03 -5.0951E-03  3.3567E-04 -3.9443E-03 -1.6519E-03
      17-
 mid.  surface     3.4459E-03  2.3483E-03 -6.1815E-03  9.0093E-04 -1.9661E-03 -1.8546E-03
      18-
 mid.  surface     1.8540E-03  3.3584E-03 -5.9579E-03  9.0238E-04  2.0848E-05 -4.6498E-04
      19-
 mid.  surface     2.7199E-03  3.4329E-03 -8.4690E-03 -3.6821E-04 -1.4143E-03 -1.5857E-03
      20-
 mid.  surface     3.2055E-03  1.7760E-03 -6.6322E-03  8.3460E-04  1.0401E-03  1.3769E-03
      21-
 mid.  surface     2.7087E-03  2.8344E-03 -8.9012E-03 -5.1314E-04  7.3472E-04  1.0908E-03
      22-
 mid.  surface     2.1250E-03  1.8184E-03 -5.6402E-03  2.6424E-04  1.6585E-03 -2.5536E-04
      23-
 mid.  surface     3.0993E-03  2.6580E-03 -7.6110E-03  6.4674E-04  2.1414E-03 -2.2360E-04
      52-
 mid.  surface     2.8795E-03  3.6813E-03 -8.7049E-03  2.4692E-04 -4.8337E-04 -1.1594E-03
      53-
 mid.  surface     1.4012E-03  3.0939E-03 -5.8546E-03  9.6227E-04 -1.2535E-03 -2.0135E-04
     124-
 mid.  surface     2.1062E-03  3.9279E-03 -1.0827E-02  1.0254E-03  9.7992E-04 -1.4272E-03
     125-
 mid.  surface     1.9432E-03  1.1567E-03 -4.9704E-03  1.8642E-03  3.4230E-03 -2.2476E-03
     148-
 mid.  surface     6.9370E-04  3.2660E-03 -5.0389E-03 -5.4033E-04 -8.9025E-04  2.9772E-05
     164-
 mid.  surface     2.9518E-03  3.2472E-03 -8.1877E-03 -8.7312E-04 -9.0815E-04 -1.2544E-03



 n o d a l  s t r e s s  c a l c u l a t i o n s   f o r   t i m e  s t e p      262   ( at time 4.93664E+00 )

 node (global)
          stress       sig-xx      sig-yy      sig-zz      sig-xy      sig-yz      sig-zx       plastic
                                                                                                 strain 
       1-
 mid.  surface     3.7195E+07  6.5843E+07 -2.5875E+08  4.0586E+07 -1.5542E+07  1.0401E+07  4.5139E-03
       2-
 mid.  surface    -4.2045E+08 -3.1739E+08 -6.4335E+08  2.7477E+07 -1.2841E+07  3.4717E+07  1.3764E-02
       8-
 mid.  surface     8.3828E+07  1.0486E+08 -1.6984E+08 -1.5198E+07  4.9010E+06 -1.1646E+05  1.9440E-04
       9-
 mid.  surface    -1.8346E+07 -3.1959E+07 -3.0404E+08 -2.0389E+07  1.3532E+07  5.2106E+06  1.1665E-02
      10-
 mid.  surface    -4.0802E+07 -4.4031E+07 -2.9113E+08 -2.1578E+06 -3.6734E+06  1.5946E+07  1.7765E-02
      11-
 mid.  surface     1.5451E+08  1.3953E+08 -1.3946E+08  9.1333E+06 -1.0838E+08 -2.9965E+07  1.0972E-02
      12-
 mid.  surface     1.4968E+08  1.6369E+08 -6.9759E+07  5.2319E+05 -1.1449E+08 -4.1827E+07  1.1644E-02
      17-
 mid.  surface     1.7093E+08  1.4858E+08 -8.4374E+07  1.3544E+07 -6.6153E+07 -5.4108E+07  1.8536E-03
      18-
 mid.  surface     6.4608E+07  8.0120E+07 -1.5003E+08  9.2094E+06 -1.7118E+06 -1.5390E+07  5.4568E-03
      19-
 mid.  surface    -1.3897E+08 -9.6853E+07 -3.0428E+08 -1.0221E+07 -6.1489E+07 -3.2977E+07  1.3619E-02
      20-
 mid.  surface     1.4194E+07 -1.3247E+07 -2.7935E+08  1.2755E+07  3.4357E+07  3.5771E+07  2.2981E-03
      21-
 mid.  surface    -2.6001E+08 -2.4852E+08 -4.6807E+08 -1.4089E+07  3.8352E+07  3.5903E+07  1.1049E-02
      22-
 mid.  surface     6.1283E+06 -5.4388E+06 -2.6616E+08  7.8442E+05  5.2511E+07  9.0045E+04  9.5718E-03
      23-
 mid.  surface    -1.1182E+07 -2.6653E+07 -3.5972E+08  8.6455E+06  4.9873E+07  7.2161E+06  1.0636E-02
      52-
 mid.  surface    -1.0024E+08 -9.8821E+07 -3.5421E+08 -1.5627E+06 -1.3488E+06 -1.4545E+07  1.9801E-02
      53-
 mid.  surface    -2.2166E+07  1.9840E+06 -2.3693E+08  1.1309E+07 -2.1557E+07  6.7921E+05  5.3535E-03
     124-
 mid.  surface    -4.8462E+08 -4.2491E+08 -7.0988E+08  2.1310E+07  6.1212E+07 -6.4978E+07  1.1601E-02
     125-
 mid.  surface    -3.2901E+07 -5.0601E+07 -3.1478E+08  3.8247E+07  1.1548E+08 -8.5547E+07  2.3696E-03
     148-
 mid.  surface    -1.0750E+07  1.8121E+07 -2.5440E+08 -1.2139E+07 -4.1450E+07  1.3371E+06  2.4811E-03
     164-
 mid.  surface    -7.6760E+07 -8.9390E+07 -3.5496E+08 -1.7498E+07 -3.1404E+07 -2.0521E+07  1.4300E-02



 n o d a l  s t r a i n  c a l c u l a t i o n s   f o r   t i m e  s t e p      262   ( at time 4.93664E+00 )

 node (global)
          strain       eps-xx      eps-yy      eps-zz      eps-xy      eps-yz      eps-zx       
       1-
 mid.  surface     3.6489E-03  5.5492E-03 -9.9445E-03  3.1687E-03 -9.2670E-04 -4.1170E-05
       2-
 mid.  surface     3.8029E-03  9.5351E-03 -1.9912E-02  1.8021E-03 -2.1124E-04  8.6396E-04
       8-
 mid.  surface     4.4003E-03  6.6343E-03 -1.0974E-02 -1.1681E-03  3.0599E-04  1.1437E-04
       9-
 mid.  surface     7.2708E-03  6.6878E-03 -1.5690E-02 -1.5760E-03  4.8241E-04  3.7099E-04
      10-
 mid.  surface     7.1041E-03  7.2871E-03 -1.6230E-02  3.7164E-05 -4.7746E-04  1.1567E-03
      11-
 mid.  surface     7.3536E-03  6.5063E-03 -1.3176E-02  8.6511E-04 -7.2073E-03 -1.7463E-03
      12-
 mid.  surface     4.9216E-03  6.0400E-03 -9.8500E-03  3.7434E-04 -7.4468E-03 -3.4897E-03
      17-
 mid.  surface     7.3360E-03  5.6086E-03 -1.1866E-02  1.1900E-03 -4.2803E-03 -3.8372E-03
      18-
 mid.  surface     5.0180E-03  6.6231E-03 -1.1697E-02  9.6759E-04 -3.0541E-04 -1.0544E-03
      19-
 mid.  surface     5.6387E-03  7.7642E-03 -1.6018E-02 -6.8228E-04 -3.3520E-03 -3.4736E-03
      20-
 mid.  surface     6.7976E-03  4.6082E-03 -1.2764E-02  1.0580E-03  2.3730E-03  2.6979E-03
      21-
 mid.  surface     5.8787E-03  6.3536E-03 -1.6919E-02 -1.0046E-03  1.6962E-03  2.4172E-03
      22-
 mid.  surface     4.9854E-03  4.7113E-03 -1.0996E-02  3.0581E-04  3.1310E-03  3.3963E-04
      23-
 mid.  surface     6.7573E-03  5.6966E-03 -1.4386E-02  7.1498E-04  4.1656E-03  3.3645E-04
      52-
 mid.  surface     6.5048E-03  6.9156E-03 -1.6098E-02  5.1945E-05 -7.6283E-04 -1.7128E-03
      53-
 mid.  surface     4.0626E-03  6.2142E-03 -1.1523E-02  1.0943E-03 -2.2386E-03 -2.4514E-04
     124-
 mid.  surface     4.3379E-03  7.9727E-03 -2.0025E-02  1.3995E-03  2.2267E-03 -3.6444E-03
     125-
 mid.  surface     4.2226E-03  3.6292E-03 -9.7549E-03  2.9930E-03  6.3744E-03 -4.7341E-03
     148-
 mid.  surface     3.3446E-03  6.1425E-03 -1.0686E-02 -9.3137E-04 -2.5833E-03  8.0089E-05
     164-
 mid.  surface     6.7178E-03  6.1532E-03 -1.5393E-02 -1.3632E-03 -2.2468E-03 -1.8330E-03



 n o d a l  s t r e s s  c a l c u l a t i o n s   f o r   t i m e  s t e p      323   ( at time 7.25743E+00 )

 node (global)
          stress       sig-xx      sig-yy      sig-zz      sig-xy      sig-yz      sig-zx       plastic
                                                                                                 strain 
       1-
 mid.  surface     2.0801E+08  1.9436E+08 -6.9010E+07  1.1633E+06  3.2404E+06 -9.9659E+07  1.3795E-02
       2-
 mid.  surface    -2.4151E+08 -2.0383E+08 -4.9627E+08  1.1259E+07  3.6731E+06 -9.7809E+07  2.3764E-02
       8-
 mid.  surface     1.4133E+08  1.5879E+08 -1.1443E+08 -1.1635E+07 -1.6103E+07  3.9244E+06  7.8980E-03
       9-
 mid.  surface    -1.8295E+06 -1.1245E+07 -2.8477E+08 -1.1553E+07 -3.5128E+06  8.5738E+06  2.0565E-02
      10-
 mid.  surface     1.8695E+07  6.0413E+07 -2.5587E+08  4.2633E+06  2.9403E+07  1.3098E+07  2.8461E-02
      11-
 mid.  surface     8.6768E+07  6.7595E+07 -2.0350E+08 -1.4845E+07 -1.3957E+07  9.8761E+06  1.9019E-02
      12-
 mid.  surface     6.5154E+07  5.7469E+07 -1.9861E+08 -9.3238E+06 -1.5713E+07  1.6261E+07  2.1930E-02
      17-
 mid.  surface     1.4291E+08  1.3090E+08 -1.3640E+08  1.0927E+06  1.3688E+07 -9.3084E+06  8.8172E-03
      18-
 mid.  surface     1.5520E+08  1.9275E+08 -1.0748E+08  1.9561E+07  1.5265E+07 -1.0700E+07  1.4401E-02
      19-
 mid.  surface    -1.5000E+08 -1.0851E+08 -3.9164E+08 -1.1937E+06  3.7160E+06  1.0958E+06  2.4187E-02
      20-
 mid.  surface    -1.1505E+08 -1.5176E+08 -3.9432E+08 -8.5154E+06 -5.8044E+07 -2.6163E+07  9.2216E-03
      21-
 mid.  surface    -3.9941E+08 -3.7990E+08 -6.4447E+08 -8.6477E+06 -4.0532E+07 -3.8625E+07  2.1248E-02
      22-
 mid.  surface    -1.9688E+08 -2.1246E+08 -4.6295E+08 -8.1476E+06 -2.2618E+07 -4.0777E+07  1.9218E-02
      23-
 mid.  surface    -2.0613E+08 -2.2856E+08 -4.7505E+08 -2.0202E+07 -4.7484E+07 -4.4618E+07  1.9066E-02
      52-
 mid.  surface    -1.6316E+08 -1.2620E+08 -4.2258E+08 -4.6188E+06 -3.2144E+07 -1.9987E+07  3.0304E-02
      53-
 mid.  surface    -6.9570E+07 -3.7151E+07 -3.1107E+08  1.2027E+07 -5.5765E+07 -2.0747E+07  1.4385E-02
     124-
 mid.  surface    -4.4605E+08 -4.4971E+08 -7.5885E+08  7.7088E+06  5.4884E+06  4.1959E+07  1.9626E-02
     125-
 mid.  surface    -2.9896E+07 -8.4266E+07 -3.6636E+08  4.7285E+06  2.4991E+07  4.3741E+07  9.5893E-03
     148-
 mid.  surface    -5.2529E+07 -2.4371E+07 -2.9480E+08 -9.5845E+06 -4.1151E+07 -9.2037E+06  9.9244E-03
     164-
 mid.  surface    -1.2288E+08 -1.3223E+08 -3.9729E+08 -9.4628E+06 -2.6725E+07 -1.6878E+07  2.3129E-02



 n o d a l  s t r a i n  c a l c u l a t i o n s   f o r   t i m e  s t e p      323   ( at time 7.25743E+00 )

 node (global)
          strain       eps-xx      eps-yy      eps-zz      eps-xy      eps-yz      eps-zx       
       1-
 mid.  surface     9.6193E-03  9.8508E-03 -1.7929E-02  2.3286E-03 -2.6044E-04 -6.4709E-03
       2-
 mid.  surface     9.0724E-03  1.5429E-02 -2.9033E-02  2.1379E-03  3.8861E-04 -6.0983E-03
       8-
 mid.  surface     8.0406E-03  1.0981E-02 -1.8180E-02 -1.6754E-03 -6.8209E-04  4.6415E-04
       9-
 mid.  surface     1.1898E-02  1.0928E-02 -2.4337E-02 -2.0414E-03  1.1409E-04  8.3357E-04
      10-
 mid.  surface     1.1606E-02  1.4727E-02 -2.7334E-02  3.0074E-04  1.5898E-03  1.7735E-03
      11-
 mid.  surface     1.1450E-02  9.7930E-03 -2.1588E-02 -2.7467E-04 -5.8565E-03 -1.7999E-04
      12-
 mid.  surface     9.6066E-03  1.0023E-02 -2.0117E-02 -3.6320E-04 -6.4492E-03 -1.7442E-03
      17-
 mid.  surface     1.1124E-02  9.0178E-03 -1.9559E-02  1.0326E-03 -1.6808E-03 -2.9432E-03
      18-
 mid.  surface     9.1997E-03  1.2938E-02 -2.1086E-02  2.1051E-03  9.6828E-04 -1.3514E-03
      19-
 mid.  surface     9.6329E-03  1.3978E-02 -2.6822E-02 -6.0044E-04 -1.9332E-03 -2.8625E-03
      20-
 mid.  surface     1.0312E-02  6.1576E-03 -1.9634E-02  2.5898E-04 -2.1110E-03  1.9919E-04
      21-
 mid.  surface     9.3161E-03  1.0901E-02 -2.7091E-02 -1.3404E-03 -1.9190E-03 -1.5988E-03
      22-
 mid.  surface     8.7082E-03  7.4896E-03 -2.0407E-02 -3.4604E-04  6.1476E-04 -2.8963E-03
      23-
 mid.  surface     9.7560E-03  7.6396E-03 -2.1784E-02 -7.7283E-04 -3.2829E-05 -2.8397E-03
      52-
 mid.  surface     1.0089E-02  1.3013E-02 -2.6607E-02 -2.7524E-04 -3.0197E-03 -2.9648E-03
      53-
 mid.  surface     7.2987E-03  1.1084E-02 -2.0457E-02  1.6893E-03 -5.8367E-03 -1.8685E-03
     124-
 mid.  surface     1.0018E-02  1.1973E-02 -2.9930E-02  1.5879E-03  1.6029E-03  9.1372E-04
     125-
 mid.  surface     1.0519E-02  6.0536E-03 -1.8923E-02  2.5171E-03  6.0998E-03  2.5735E-04
     148-
 mid.  surface     5.9544E-03  9.9952E-03 -1.7755E-02 -1.3450E-03 -4.3980E-03 -5.7019E-04
     164-
 mid.  surface     1.0837E-02  9.8755E-03 -2.3914E-02 -1.7289E-03 -3.3380E-03 -2.6521E-03



 n o d a l  s t r e s s  c a l c u l a t i o n s   f o r   t i m e  s t e p      421   ( at time 9.57823E+00 )

 node (global)
          stress       sig-xx      sig-yy      sig-zz      sig-xy      sig-yz      sig-zx       plastic
                                                                                                 strain 
       1-
 mid.  surface     1.4105E+08  1.9167E+08 -1.2322E+08  2.9116E+07 -1.7658E+07  2.6970E+07  2.1045E-02
       2-
 mid.  surface    -6.2015E+08 -5.4530E+08 -8.5626E+08  1.7759E+07 -1.8677E+07  4.8404E+07  3.6112E-02
       8-
 mid.  surface     1.5929E+08  1.8567E+08 -5.1707E+07 -1.1467E+07 -3.5769E+07  1.3963E+06  1.9082E-02
       9-
 mid.  surface    -3.1938E+07 -3.2293E+07 -2.5309E+08 -1.8983E+07 -4.7475E+07  1.9630E+06  3.4335E-02
      10-
 mid.  surface     5.8458E+07  3.2211E+07 -1.8557E+08  3.4398E+06 -1.0623E+08 -1.0608E+07  3.9618E-02
      11-
 mid.  surface     2.2315E+08  2.2590E+08 -4.6152E+07  5.9160E+06 -1.3583E+08 -4.3503E+07  2.8748E-02
      12-
 mid.  surface     2.5168E+08  2.7591E+08  3.4105E+07 -6.7499E+05 -1.1059E+08 -5.2402E+07  3.1490E-02
      17-
 mid.  surface     1.9066E+08  1.9019E+08 -5.3660E+07  6.1114E+06 -1.1473E+08 -5.5804E+07  2.0485E-02
      18-
 mid.  surface     2.0302E+08  1.9585E+08 -3.0285E+07  5.9434E+06 -8.1765E+07 -2.5054E+07  2.4585E-02
      19-
 mid.  surface    -2.3953E+08 -2.1413E+08 -4.4039E+08 -4.7375E+06 -8.6977E+07 -4.7403E+07  3.7379E-02
      20-
 mid.  surface    -1.3085E+08 -1.3413E+08 -4.2463E+08  9.1176E+06  8.5738E+07  5.0982E+07  1.9609E-02
      21-
 mid.  surface    -5.2513E+08 -5.2855E+08 -7.7111E+08 -4.1844E+06  7.5259E+07  5.3905E+07  3.3856E-02
      22-
 mid.  surface    -6.1205E+07 -5.9711E+07 -3.2928E+08  2.0687E+06  8.5238E+07  3.0585E+07  2.8166E-02
      23-
 mid.  surface    -1.3173E+08 -1.2874E+08 -4.5285E+08  8.2307E+06  9.6081E+07  2.9152E+07  2.7585E-02
      52-
 mid.  surface    -1.8869E+08 -2.1212E+08 -4.7688E+08 -1.4352E+06  5.2672E+07  3.0825E+06  4.0126E-02
      53-
 mid.  surface    -7.9425E+07 -8.1100E+07 -3.3153E+08  1.4601E+06  6.8833E+07  2.4285E+07  2.4038E-02
     124-
 mid.  surface    -8.4611E+08 -8.0961E+08 -1.0826E+09  1.0055E+07  8.4501E+07 -7.1431E+07  3.2864E-02
     125-
 mid.  surface    -1.0068E+08 -8.9979E+07 -3.5221E+08  2.3807E+07  1.2338E+08 -8.3125E+07  1.8267E-02
     148-
 mid.  surface    -9.0345E+07 -5.8427E+07 -3.1140E+08 -1.1802E+07  4.1045E+07  2.3737E+07  2.0756E-02
     164-
 mid.  surface    -2.2324E+08 -2.2104E+08 -4.6735E+08 -2.0111E+07  2.9717E+07 -7.6818E+05  3.6129E-02



 n o d a l  s t r a i n  c a l c u l a t i o n s   f o r   t i m e  s t e p      421   ( at time 9.57823E+00 )

 node (global)
          strain       eps-xx      eps-yy      eps-zz      eps-xy      eps-yz      eps-zx       
       1-
 mid.  surface     1.1661E-02  1.5164E-02 -2.5805E-02  4.0922E-03 -1.0134E-03 -3.3809E-03
       2-
 mid.  surface     1.1395E-02  2.1204E-02 -4.2190E-02  2.6596E-03  3.8415E-04 -2.0240E-03
       8-
 mid.  surface     1.1973E-02  1.6057E-02 -2.6679E-02 -2.2128E-03 -2.3332E-03  3.0390E-04
       9-
 mid.  surface     1.7346E-02  1.6136E-02 -3.5201E-02 -3.0563E-03 -2.3239E-03  6.5971E-04
      10-
 mid.  surface     1.7042E-02  1.7696E-02 -3.5464E-02  4.1990E-04 -4.4371E-03  1.0593E-03
      11-
 mid.  surface     1.6548E-02  1.5353E-02 -3.0209E-02  4.8759E-04 -1.2777E-02 -2.5372E-03
      12-
 mid.  surface     1.3360E-02  1.5406E-02 -2.6270E-02 -7.0413E-05 -1.2178E-02 -5.4367E-03
      17-
 mid.  surface     1.6320E-02  1.4579E-02 -2.9474E-02  1.4009E-03 -7.7568E-03 -5.9062E-03
      18-
 mid.  surface     1.3650E-02  1.6560E-02 -2.8558E-02  2.1101E-03 -3.3409E-03 -2.5291E-03
      19-
 mid.  surface     1.3796E-02  1.8774E-02 -3.6964E-02 -9.3852E-04 -5.7166E-03 -5.9598E-03
      20-
 mid.  surface     1.5492E-02  1.1895E-02 -3.0769E-02  9.0971E-04  3.7951E-03  3.6066E-03
      21-
 mid.  surface     1.4151E-02  1.5373E-02 -3.8398E-02 -1.5556E-03  1.9182E-03  2.2150E-03
      22-
 mid.  surface     1.3114E-02  1.2594E-02 -2.8005E-02  4.5260E-05  4.1259E-03 -4.9064E-04
      23-
 mid.  surface     1.5054E-02  1.3296E-02 -3.1937E-02  7.2938E-05  6.2868E-03 -5.8658E-04
      52-
 mid.  surface     1.5438E-02  1.5965E-02 -3.5781E-02 -3.7345E-04  7.9400E-06 -2.8195E-03
      53-
 mid.  surface     1.1496E-02  1.4714E-02 -2.8679E-02  1.4798E-03 -1.4047E-03 -3.2089E-04
     124-
 mid.  surface     1.2700E-02  1.7301E-02 -4.3128E-02  1.8166E-03  4.6646E-03 -3.9016E-03
     125-
 mid.  surface     1.3009E-02  1.0762E-02 -2.6462E-02  3.9533E-03  1.1110E-02 -5.4884E-03
     148-
 mid.  surface     9.6163E-03  1.4719E-02 -2.6565E-02 -1.9181E-03 -2.6121E-03  8.1056E-04
     164-
 mid.  surface     1.5998E-02  1.4693E-02 -3.5224E-02 -2.8478E-03 -2.3823E-03 -2.8138E-03



 n o d a l  s t r e s s  c a l c u l a t i o n s   f o r   t i m e  s t e p      428   ( at time 1.18990E+01 )

 node (global)
          stress       sig-xx      sig-yy      sig-zz      sig-xy      sig-yz      sig-zx       plastic
                                                                                                 strain 
       1-
 mid.  surface     1.0688E+08  1.7092E+08 -1.5776E+08  2.1779E+07 -1.1068E+07  4.7565E+07  2.7078E-02
       2-
 mid.  surface    -8.5647E+08 -7.8909E+08 -1.1105E+09  2.9319E+06 -1.6540E+07  6.2826E+07  4.4587E-02
       8-
 mid.  surface     2.0385E+08  2.3120E+08 -2.6952E+07 -2.6475E+06 -2.2367E+07 -4.5411E+06  2.9512E-02
       9-
 mid.  surface    -3.7007E+07 -2.8798E+07 -2.8663E+08 -5.3662E+06 -2.1073E+07 -4.8021E+06  4.5734E-02
      10-
 mid.  surface     2.0456E+07 -7.1973E+06 -2.3306E+08 -8.6032E+05 -7.1987E+07 -6.6852E+06  5.0310E-02
      11-
 mid.  surface     3.0733E+08  2.9914E+08  2.2409E+07  1.4313E+07 -1.0567E+08 -3.6486E+07  3.8406E-02
      12-
 mid.  surface     3.5632E+08  3.6906E+08  1.3943E+08  4.8708E+06 -1.0283E+08 -3.4612E+07  4.1897E-02
      17-
 mid.  surface     2.9924E+08  3.0438E+08  4.4359E+07  2.0990E+07 -1.1731E+08 -5.8228E+07  2.9457E-02
      18-
 mid.  surface     2.2610E+08  2.3510E+08 -5.6817E+05 -1.2609E+06 -7.5573E+07 -1.5798E+07  3.4081E-02
      19-
 mid.  surface    -2.7956E+08 -2.7904E+08 -4.9348E+08  3.1706E+06 -9.6342E+07 -4.4503E+07  4.8713E-02
      20-
 mid.  surface    -9.3507E+07 -8.2486E+07 -4.0863E+08  2.1001E+07  6.6399E+07  2.7222E+07  2.6552E-02
      21-
 mid.  surface    -6.2032E+08 -6.5166E+08 -8.9253E+08 -2.1910E+06  6.2083E+07  3.6685E+07  4.4009E-02
      22-
 mid.  surface    -3.2870E+07 -4.1957E+07 -3.0469E+08  5.0006E+06  7.5801E+07  3.3916E+07  3.7550E-02
      23-
 mid.  surface    -1.4739E+08 -1.3997E+08 -4.7513E+08  1.3272E+07  9.1799E+07  3.0068E+07  3.6158E-02
      52-
 mid.  surface    -3.1278E+08 -3.3998E+08 -5.9473E+08 -5.6138E+06  4.4233E+07  4.3046E+06  5.0207E-02
      53-
 mid.  surface    -1.2382E+08 -1.2032E+08 -3.7770E+08 -1.5216E+06  3.7631E+07  1.4649E+07  3.2660E-02
     124-
 mid.  surface    -1.0874E+09 -1.0707E+09 -1.3487E+09 -4.7149E+06  9.2939E+07 -8.6810E+07  4.1637E-02
     125-
 mid.  surface    -1.2598E+08 -1.1045E+08 -3.8277E+08  2.0388E+07  1.2817E+08 -8.9704E+07  2.4992E-02
     148-
 mid.  surface    -1.4631E+08 -1.3459E+08 -3.9527E+08 -6.7606E+06  1.1719E+07  9.8209E+06  3.0400E-02
     164-
 mid.  surface    -3.6292E+08 -3.6428E+08 -6.2449E+08 -1.4304E+07  1.4195E+07 -1.8625E+06  4.6993E-02



 n o d a l  s t r a i n  c a l c u l a t i o n s   f o r   t i m e  s t e p      428   ( at time 1.18990E+01 )

 node (global)
          strain       eps-xx      eps-yy      eps-zz      eps-xy      eps-yz      eps-zx       
       1-
 mid.  surface     1.3300E-02  1.9675E-02 -3.2328E-02  4.8707E-03 -9.6654E-04 -1.6920E-03
       2-
 mid.  surface     1.3105E-02  2.5433E-02 -5.1568E-02  2.5018E-03  9.3821E-04  4.4810E-05
       8-
 mid.  surface     1.6105E-02  2.1594E-02 -3.5871E-02 -2.1669E-03 -3.1948E-03 -4.6171E-05
       9-
 mid.  surface     2.2161E-02  2.1648E-02 -4.5763E-02 -3.0900E-03 -3.3258E-03  2.0221E-04
      10-
 mid.  surface     2.1882E-02  2.1401E-02 -4.4651E-02  4.2349E-04 -6.9836E-03  6.7459E-04
      11-
 mid.  surface     2.2042E-02  2.0160E-02 -3.9502E-02  1.4066E-03 -1.6373E-02 -3.8460E-03
      12-
 mid.  surface     1.7863E-02  1.9939E-02 -3.3906E-02  3.3770E-04 -1.5687E-02 -6.9215E-03
      17-
 mid.  surface     2.0786E-02  1.9452E-02 -3.7374E-02  2.5561E-03 -1.1570E-02 -7.8417E-03
      18-
 mid.  surface     1.7273E-02  2.0949E-02 -3.6189E-02  2.0473E-03 -5.7577E-03 -2.8716E-03
      19-
 mid.  surface     1.8187E-02  2.2568E-02 -4.5949E-02 -6.4836E-04 -8.2845E-03 -7.6649E-03
      20-
 mid.  surface     1.9514E-02  1.6662E-02 -3.9125E-02  1.9017E-03  6.5418E-03  4.4598E-03
      21-
 mid.  surface     1.8913E-02  1.8472E-02 -4.7948E-02 -1.7070E-03  3.2968E-03  3.2712E-03
      22-
 mid.  surface     1.7738E-02  1.6616E-02 -3.6380E-02  2.9965E-04  5.2567E-03  6.5587E-04
      23-
 mid.  surface     1.9788E-02  1.8168E-02 -4.1845E-02  6.8587E-04  9.6571E-03  4.1588E-04
      52-
 mid.  surface     1.9932E-02  1.9117E-02 -4.5219E-02 -6.6617E-04  9.7701E-04 -3.0351E-03
      53-
 mid.  surface     1.4947E-02  1.8328E-02 -3.6403E-02  1.4083E-03 -5.4632E-04  9.7161E-06
     124-
 mid.  surface     1.5264E-02  2.0689E-02 -5.2758E-02  1.4111E-03  6.7822E-03 -7.1105E-03
     125-
 mid.  surface     1.5466E-02  1.4442E-02 -3.2985E-02  4.7937E-03  1.4236E-02 -9.0846E-03
     148-
 mid.  surface     1.3562E-02  1.8804E-02 -3.5673E-02 -2.1566E-03 -2.9762E-03  9.8239E-04
     164-
 mid.  surface     2.0256E-02  1.8857E-02 -4.5789E-02 -3.4733E-03 -2.5233E-03 -3.0216E-03



 n o d a l  s t r e s s  c a l c u l a t i o n s   f o r   t i m e  s t e p      434   ( at time 1.55772E+01 )

 node (global)
          stress       sig-xx      sig-yy      sig-zz      sig-xy      sig-yz      sig-zx       plastic
                                                                                                 strain 
       1-
 mid.  surface     1.7314E+08  1.8576E+08 -1.1031E+08  2.3354E+07 -2.3395E+07  2.6715E+07  4.0827E-02
       2-
 mid.  surface    -1.0950E+09 -1.0579E+09 -1.3611E+09  3.0404E+07 -2.3053E+07  4.8081E+07  6.3080E-02
       8-
 mid.  surface     1.8084E+08  1.7931E+08 -6.4386E+07 -1.6508E+07 -5.4808E+07  6.7135E+06  4.3671E-02
       9-
 mid.  surface    -1.2575E+08 -1.5724E+08 -3.8335E+08 -7.3848E+06 -5.5283E+07  7.6655E+06  6.1672E-02
      10-
 mid.  surface     3.7682E+07  2.4771E+07 -2.2548E+08  8.9360E+06 -8.4688E+07 -1.2700E+07  6.6594E-02
      11-
 mid.  surface     3.7932E+08  3.8371E+08  1.1288E+08  1.4382E+07 -1.2067E+08 -3.5090E+07  5.3295E-02
      12-
 mid.  surface     4.8850E+08  5.1141E+08  2.5396E+08 -1.1864E+07 -1.0087E+08 -5.6010E+07  5.3287E-02
      17-
 mid.  surface     3.3276E+08  3.2724E+08  7.4447E+07  1.8343E+07 -1.2377E+08 -4.2789E+07  4.4296E-02
      18-
 mid.  surface     3.0067E+08  3.1559E+08  5.5880E+07  6.9549E+06 -8.8025E+07 -1.9268E+07  4.9142E-02
      19-
 mid.  surface    -4.2575E+08 -4.1022E+08 -6.7091E+08 -6.2989E+06 -8.0874E+07 -4.2844E+07  6.2308E-02
      20-
 mid.  surface    -8.9060E+07 -9.6093E+07 -4.0987E+08  2.0970E+07  7.0245E+07  5.1430E+07  3.9669E-02
      21-
 mid.  surface    -7.9001E+08 -8.0409E+08 -1.0690E+09 -3.8885E+06  8.7273E+07  5.1775E+07  5.8300E-02
      22-
 mid.  surface     9.5356E+07  9.9539E+07 -1.8687E+08 -6.7810E+06  8.8176E+07  2.2254E+07  4.8839E-02
      23-
 mid.  surface    -1.0795E+08 -1.0711E+08 -4.3099E+08  1.5511E+07  8.7587E+07  3.6012E+07  4.9993E-02
      52-
 mid.  surface    -4.0228E+08 -4.0744E+08 -6.8764E+08  3.9074E+06  6.4943E+07  1.4964E+06  6.6072E-02
      53-
 mid.  surface    -1.3002E+08 -9.9556E+07 -3.8942E+08 -2.7384E+06  6.0273E+07  1.3087E+07  4.7234E-02
     124-
 mid.  surface    -1.4303E+09 -1.4184E+09 -1.6896E+09  1.7638E+07  8.1518E+07 -5.5992E+07  6.0616E-02
     125-
 mid.  surface    -1.5301E+08 -1.6762E+08 -4.1729E+08  1.6935E+07  1.1400E+08 -6.7213E+07  3.9775E-02
     148-
 mid.  surface    -1.9659E+08 -1.7725E+08 -4.2936E+08 -1.2460E+07  4.1559E+07  1.5911E+07  4.5575E-02
     164-
 mid.  surface    -4.7005E+08 -4.8411E+08 -7.2749E+08  6.7417E+05  3.6595E+07  5.0588E+06  6.3432E-02



 n o d a l  s t r a i n  c a l c u l a t i o n s   f o r   t i m e  s t e p      434   ( at time 1.55772E+01 )

 node (global)
          strain       eps-xx      eps-yy      eps-zz      eps-xy      eps-yz      eps-zx       
       1-
 mid.  surface     2.0549E-02  2.6208E-02 -4.5545E-02  6.1785E-03 -2.3069E-03 -1.1047E-03
       2-
 mid.  surface     2.0089E-02  3.3428E-02 -7.0187E-02  4.6345E-03  3.9910E-04  1.7238E-03
       8-
 mid.  surface     2.2125E-02  2.7255E-02 -4.8144E-02 -3.4063E-03 -6.0715E-03  6.4376E-04
       9-
 mid.  surface     2.9464E-02  2.6296E-02 -5.9345E-02 -3.5594E-03 -6.9193E-03  8.2357E-04
      10-
 mid.  surface     2.9295E-02  2.8563E-02 -5.9126E-02  1.3521E-03 -1.2001E-02 -1.6517E-04
      11-
 mid.  surface     2.9003E-02  2.7205E-02 -5.2528E-02  2.4768E-03 -2.1740E-02 -5.1382E-03
      12-
 mid.  surface     2.2280E-02  2.6106E-02 -4.2675E-02 -3.2861E-04 -2.0509E-02 -1.0046E-02
      17-
 mid.  surface     2.7758E-02  2.5973E-02 -5.0577E-02  3.7539E-03 -1.6301E-02 -9.4127E-03
      18-
 mid.  surface     2.3674E-02  2.8867E-02 -4.9610E-02  2.8528E-03 -1.0230E-02 -3.8636E-03
      19-
 mid.  surface     2.2686E-02  2.8759E-02 -5.8783E-02 -9.3967E-04 -1.0751E-02 -9.6090E-03
      20-
 mid.  surface     2.6814E-02  2.3162E-02 -5.3134E-02  3.0071E-03  1.0207E-02  7.4393E-03
      21-
 mid.  surface     2.4584E-02  2.4340E-02 -6.1987E-02 -1.8805E-03  6.7244E-03  6.2009E-03
      22-
 mid.  surface     2.3214E-02  2.2937E-02 -4.6470E-02 -1.4727E-04  7.4273E-03  1.0556E-03
      23-
 mid.  surface     2.7384E-02  2.4943E-02 -5.5876E-02  1.4601E-03  1.3351E-02  2.1102E-03
      52-
 mid.  surface     2.6890E-02  2.6039E-02 -6.0449E-02 -2.6309E-04  4.2546E-03 -3.4023E-03
      53-
 mid.  surface     2.0532E-02  2.6499E-02 -5.0257E-02  1.2116E-03  3.1268E-03  6.0268E-04
     124-
 mid.  surface     2.2107E-02  2.8116E-02 -7.2096E-02  2.6992E-03  1.0365E-02 -9.6880E-03
     125-
 mid.  surface     2.2722E-02  2.0126E-02 -4.6659E-02  5.6648E-03  1.9859E-02 -1.2480E-02
     148-
 mid.  surface     1.8844E-02  2.5431E-02 -4.8276E-02 -2.9518E-03 -1.0526E-03  1.8848E-03
     164-
 mid.  surface     2.7128E-02  2.4344E-02 -5.9848E-02 -3.0763E-03 -1.7605E-03 -3.0349E-03



 n o d a l  s t r e s s  c a l c u l a t i o n s   f o r   t i m e  s t e p      442   ( at time 2.05772E+01 )

 node (global)
          stress       sig-xx      sig-yy      sig-zz      sig-xy      sig-yz      sig-zx       plastic
                                                                                                 strain 
       1-
 mid.  surface     2.2748E+08  2.3112E+08 -5.9167E+07  3.6223E+06 -2.2835E+07  3.5439E+07  6.0719E-02
       2-
 mid.  surface    -1.4764E+09 -1.4498E+09 -1.7642E+09  1.9285E+07 -2.5852E+07  3.1308E+07  8.6693E-02
       8-
 mid.  surface     1.7348E+08  1.8000E+08 -4.4070E+07 -1.6726E+07 -6.7744E+07  7.2438E+06  6.6138E-02
       9-
 mid.  surface    -1.4482E+08 -1.6435E+08 -3.8262E+08 -5.4053E+05 -8.1808E+07  2.6503E+06  8.5487E-02
      10-
 mid.  surface     1.0650E+08  9.9251E+07 -1.8817E+08  2.2872E+05 -9.9624E+07 -9.1411E+06  8.6768E-02
      11-
 mid.  surface     2.8616E+08  2.7000E+08 -5.8868E+05 -6.8430E+06 -7.7450E+07 -1.8130E+07  7.3321E-02
      12-
 mid.  surface     5.5418E+08  5.8535E+08  3.0544E+08 -1.2399E+07 -7.8042E+07 -2.8406E+07  7.0919E-02
      17-
 mid.  surface     1.6363E+08  1.5185E+08 -9.4736E+07 -9.8056E+05 -1.2684E+08 -4.9341E+07  6.6779E-02
      18-
 mid.  surface     3.4229E+08  3.6397E+08  7.9648E+07 -3.9632E+06 -1.2637E+08 -2.0878E+07  6.9653E-02
      19-
 mid.  surface    -7.2784E+08 -6.9281E+08 -9.7435E+08 -2.8710E+06 -8.6639E+07 -4.0130E+07  8.3580E-02
      20-
 mid.  surface     4.5025E+07  6.9997E+07 -2.4459E+08  3.2301E+07  5.7653E+07  3.5130E+07  6.2245E-02
      21-
 mid.  surface    -9.1421E+08 -9.1782E+08 -1.2062E+09  1.1844E+07  6.3346E+07  3.6073E+07  8.0256E-02
      22-
 mid.  surface     3.7776E+08  3.8031E+08  9.6540E+07  4.7304E+05  8.5920E+07  3.4223E+07  6.8819E-02
      23-
 mid.  surface     1.0977E+08  1.1387E+08 -1.8729E+08  1.9427E+07  1.2325E+08  4.0514E+07  7.3861E-02
      52-
 mid.  surface    -3.8603E+08 -3.9155E+08 -6.9453E+08  5.7053E+06  9.5991E+07  5.7183E+06  8.7700E-02
      53-
 mid.  surface    -1.1043E+08 -8.3579E+07 -3.9163E+08  2.8233E+06  5.8394E+07  1.2381E+07  6.7741E-02
     124-
 mid.  surface    -1.9150E+09 -1.9137E+09 -2.1995E+09  1.0736E+07  6.8727E+07 -5.7616E+07  8.5114E-02
     125-
 mid.  surface    -6.6057E+07 -7.8346E+07 -3.4707E+08  3.5066E+06  9.5427E+07 -4.6306E+07  6.0575E-02
     148-
 mid.  surface    -3.4571E+08 -3.5570E+08 -5.7216E+08 -1.9725E+07  7.1001E+07  1.4770E+07  6.8420E-02
     164-
 mid.  surface    -7.0937E+08 -7.3650E+08 -9.6425E+08 -1.0490E+07  5.7570E+07 -1.3838E+06  8.6777E-02



 n o d a l  s t r a i n  c a l c u l a t i o n s   f o r   t i m e  s t e p      442   ( at time 2.05772E+01 )

 node (global)
          strain       eps-xx      eps-yy      eps-zz      eps-xy      eps-yz      eps-zx       
       1-
 mid.  surface     3.0285E-02  3.5648E-02 -6.4112E-02  6.7643E-03 -3.8078E-03  1.1848E-03
       2-
 mid.  surface     2.8990E-02  4.3637E-02 -9.4986E-02  6.3751E-03 -9.5675E-06  4.4053E-03
       8-
 mid.  surface     2.9848E-02  3.6981E-02 -6.5707E-02 -4.8602E-03 -9.7114E-03  1.2169E-03
       9-
 mid.  surface     3.9032E-02  3.4608E-02 -7.7638E-02 -3.3171E-03 -1.3371E-02  7.3280E-04
      10-
 mid.  surface     3.9139E-02  3.8609E-02 -7.8459E-02  1.5016E-03 -1.9349E-02 -3.9180E-04
      11-
 mid.  surface     3.8809E-02  3.4723E-02 -7.1707E-02  1.6501E-03 -2.6736E-02 -5.8770E-03
      12-
 mid.  surface     2.8515E-02  3.5568E-02 -5.7602E-02 -8.0583E-04 -2.6231E-02 -1.1928E-02
      17-
 mid.  surface     3.7483E-02  3.4065E-02 -7.1166E-02  3.3771E-03 -2.2667E-02 -1.2189E-02
      18-
 mid.  surface     3.1975E-02  4.0296E-02 -6.9058E-02  2.6908E-03 -1.7827E-02 -4.7312E-03
      19-
 mid.  surface     2.8792E-02  3.8560E-02 -7.9038E-02 -8.7016E-04 -1.4972E-02 -1.1302E-02
      20-
 mid.  surface     3.7182E-02  3.6163E-02 -7.4674E-02  5.8794E-03  1.5467E-02  9.9365E-03
      21-
 mid.  surface     3.4056E-02  3.4635E-02 -8.3836E-02 -9.8082E-04  1.0095E-02  8.9224E-03
      22-
 mid.  surface     3.3061E-02  3.3742E-02 -6.3398E-02 -3.1471E-05  1.0309E-02  2.4282E-03
      23-
 mid.  surface     3.9369E-02  3.6661E-02 -7.6750E-02  3.0063E-03  2.0954E-02  4.3544E-03
      52-
 mid.  surface     3.7447E-02  3.5915E-02 -8.1088E-02  3.1636E-04  1.0414E-02 -3.5458E-03
      53-
 mid.  surface     2.9136E-02  3.7856E-02 -7.0329E-02  1.7443E-03  8.7840E-03  1.6282E-03
     124-
 mid.  surface     3.1195E-02  3.7805E-02 -9.8245E-02  3.3364E-03  1.5600E-02 -1.4151E-02
     125-
 mid.  surface     3.3038E-02  3.0162E-02 -6.6157E-02  5.8946E-03  2.6639E-02 -1.6289E-02
     148-
 mid.  surface     2.7212E-02  3.2671E-02 -6.6316E-02 -4.7836E-03  3.8808E-03  2.5865E-03
     164-
 mid.  surface     3.6521E-02  3.0344E-02 -7.8943E-02 -4.1092E-03 -2.2503E-04 -4.2231E-03



 n o d a l  s t r e s s  c a l c u l a t i o n s   f o r   t i m e  s t e p      457   ( at time 2.55772E+01 )

 node (global)
          stress       sig-xx      sig-yy      sig-zz      sig-xy      sig-yz      sig-zx       plastic
                                                                                                 strain 
       1-
 mid.  surface    -2.2256E+09 -2.2364E+09 -1.1864E+09 -2.2110E+07  9.2704E+07 -2.7816E+07 -1.3363E-02
       2-
 mid.  surface    -4.4545E+09 -4.5066E+09 -3.4427E+09 -2.6671E+07  1.0108E+08  2.3485E+07  1.2825E-02
       8-
 mid.  surface    -9.3235E+06 -6.3284E+07 -2.3274E+08 -1.5021E+07 -1.1072E+08  9.9782E+06  9.8680E-02
       9-
 mid.  surface    -4.1436E+08 -4.7389E+08 -6.6923E+08 -1.8861E+05 -7.4983E+07  1.2555E+07  1.1474E-01
      10-
 mid.  surface     2.4515E+08  2.1293E+08 -9.2076E+07 -9.9821E+06 -9.4141E+07 -6.6177E+06  1.0661E-01
      11-
 mid.  surface     3.1639E+08  3.0896E+08  3.5778E+07 -1.4646E+07 -6.9504E+07  2.2979E+07  9.8562E-02
      12-
 mid.  surface    -5.7844E+08 -5.4576E+08 -1.5407E+08 -8.0033E+06  4.7099E+06 -4.9462E+07  4.6394E-02
      17-
 mid.  surface    -6.7693E+07 -4.0959E+07 -2.9297E+08 -1.8256E+07 -1.2461E+08 -2.6187E+07  9.6863E-02
      18-
 mid.  surface     2.7610E+08  2.8054E+08 -6.2855E+06 -1.8288E+07 -1.3178E+08 -1.5940E+07  9.3776E-02
      19-
 mid.  surface    -2.3667E+09 -2.3575E+09 -1.9555E+09 -1.4567E+07 -1.3118E+07 -5.8400E+07  6.1918E-02
      20-
 mid.  surface     4.8061E+07  3.9711E+07 -2.3193E+08  1.3720E+07  3.3215E+07 -2.8019E+04  9.1528E-02
      21-
 mid.  surface     3.5138E+08  3.8396E+08 -6.6266E+08  2.8601E+07 -1.1599E+07  4.1739E+07  1.5922E-01
      22-
 mid.  surface     2.1194E+09  2.1513E+09  1.1089E+09  1.8289E+07  1.0033E+07  5.2657E+07  1.4544E-01
      23-
 mid.  surface     2.6821E+08  2.2538E+08 -2.7316E+07  1.1804E+07  1.0432E+08  3.6919E+07  1.0326E-01
      52-
 mid.  surface    -2.1635E+08 -2.2586E+08 -5.5847E+08 -7.5497E+06  1.3378E+08  5.8848E+06  1.1075E-01
      53-
 mid.  surface    -8.2488E+07 -6.2131E+07 -3.9108E+08 -1.1874E+07  7.8308E+07  9.2643E+06  9.1691E-02
     124-
 mid.  surface     6.1710E+08  6.9038E+08 -1.1461E+09  6.3393E+06 -5.7575E+07  4.7567E+07  2.1073E-01
     125-
 mid.  surface     2.8918E+09  2.9852E+09  1.1567E+09 -7.1394E+06 -5.9919E+07 -8.3572E+05  1.8602E-01
     148-
 mid.  surface    -2.6956E+08 -2.4873E+08 -4.8396E+08 -8.3450E+06  4.7922E+07  1.7599E+07  1.0168E-01
     164-
 mid.  surface    -6.2183E+08 -6.1281E+08 -8.6415E+08  1.0360E+06  9.0724E+07  1.1269E+07  1.1910E-01



 n o d a l  s t r a i n  c a l c u l a t i o n s   f o r   t i m e  s t e p      457   ( at time 2.55772E+01 )

 node (global)
          strain       eps-xx      eps-yy      eps-zz      eps-xy      eps-yz      eps-zx       
       1-
 mid.  surface     4.4775E-02  4.9174E-02 -8.4560E-02  8.1032E-03 -5.4565E-03  6.1314E-03
       2-
 mid.  surface     4.3727E-02  5.1684E-02 -1.1815E-01  5.5538E-03  9.6840E-04  1.4117E-02
       8-
 mid.  surface     4.4115E-02  4.5649E-02 -9.1867E-02 -6.7765E-03 -1.7527E-02  2.7598E-03
       9-
 mid.  surface     5.2407E-02  3.9857E-02 -1.0077E-01 -3.3051E-03 -2.2317E-02  1.5161E-03
      10-
 mid.  surface     5.1768E-02  4.8057E-02 -9.9147E-02  8.9181E-04 -2.9228E-02 -3.0542E-04
      11-
 mid.  surface     4.9975E-02  4.6510E-02 -9.4414E-02  6.6155E-04 -3.2176E-02 -2.7960E-03
      12-
 mid.  surface     3.9236E-02  4.9425E-02 -7.7125E-02  7.9368E-04 -3.0020E-02 -1.2337E-02
      17-
 mid.  surface     4.6644E-02  4.7120E-02 -9.6893E-02  8.2353E-04 -2.9570E-02 -1.2037E-02
      18-
 mid.  surface     4.2553E-02  5.2325E-02 -9.3170E-02  6.0605E-04 -2.7113E-02 -4.8549E-03
      19-
 mid.  surface     3.9879E-02  4.9621E-02 -1.0374E-01 -1.4680E-03 -1.8126E-02 -1.1631E-02
      20-
 mid.  surface     5.0549E-02  4.8326E-02 -1.0086E-01  6.3520E-03  1.9918E-02  9.1410E-03
      21-
 mid.  surface     4.2461E-02  4.7099E-02 -1.1026E-01 -1.5829E-04  1.3519E-02  8.2137E-03
      22-
 mid.  surface     4.2595E-02  4.7025E-02 -8.4899E-02  9.1554E-04  1.3007E-02  3.2340E-03
      23-
 mid.  surface     5.4656E-02  4.6987E-02 -1.0082E-01  3.8746E-03  2.8283E-02  7.6033E-03
      52-
 mid.  surface     5.0577E-02  4.7389E-02 -1.0393E-01 -6.6349E-04  1.9614E-02 -3.9031E-03
      53-
 mid.  surface     4.0159E-02  5.1460E-02 -9.5251E-02 -2.3498E-05  1.9017E-02  2.7692E-03
     124-
 mid.  surface     3.3183E-02  5.0158E-02 -1.2311E-01  2.5259E-04  2.1511E-02 -1.9066E-02
     125-
 mid.  surface     3.5350E-02  4.5254E-02 -8.7607E-02  2.2799E-03  3.0332E-02 -2.5373E-02
     148-
 mid.  surface     3.8889E-02  4.8255E-02 -9.2810E-02 -5.8103E-03  9.7911E-03  4.4241E-03
     164-
 mid.  surface     4.9249E-02  4.3019E-02 -1.0342E-01 -3.9636E-03  3.1913E-03 -4.4215E-03



 n o d a l  s t r e s s  c a l c u l a t i o n s   f o r   t i m e  s t e p      469   ( at time 3.05772E+01 )

 node (global)
          stress       sig-xx      sig-yy      sig-zz      sig-xy      sig-yz      sig-zx       plastic
                                                                                                 strain 
       1-
 mid.  surface    -2.5437E+09 -2.6540E+09 -1.5276E+09  2.5067E+07  7.4955E+07 -5.6395E+07 -7.7223E-02
       2-
 mid.  surface    -5.2763E+09 -5.3800E+09 -4.2530E+09  2.5701E+07  7.7717E+07 -1.6244E+07 -4.5430E-02
       8-
 mid.  surface    -1.9374E+07 -4.9662E+07 -2.7539E+08 -3.4290E+06 -9.7137E+07  3.1005E+06  1.2826E-01
       9-
 mid.  surface    -4.5468E+08 -4.8179E+08 -7.4070E+08 -1.2047E+07 -6.0428E+07  4.0078E+06  1.4229E-01
      10-
 mid.  surface     1.9539E+08  1.3750E+08 -1.4658E+08 -2.2376E+07 -8.2195E+07 -2.6134E+06  1.2767E-01
      11-
 mid.  surface     3.3304E+08  3.0535E+08  2.2326E+07 -1.7876E+07 -6.4991E+07  1.4889E+07  1.2025E-01
      12-
 mid.  surface    -6.4951E+08 -6.5968E+08 -2.4667E+08  4.8672E+06 -2.7099E+06 -4.3590E+07  2.2410E-02
      17-
 mid.  surface    -2.6799E+08 -2.7378E+08 -5.0877E+08 -2.6295E+07 -1.1705E+08 -3.0651E+07  1.2530E-01
      18-
 mid.  surface     2.3647E+08  1.9844E+08 -4.1627E+07 -1.9211E+07 -1.3352E+08 -8.8310E+06  1.1686E-01
      19-
 mid.  surface    -2.9762E+09 -2.9873E+09 -2.5574E+09 -2.7012E+06 -1.4216E+07 -4.8432E+07  4.5913E-02
      20-
 mid.  surface     2.3371E+07  7.8950E+06 -2.8484E+08  1.1289E+07  2.1429E+07  1.7963E+06  1.1713E-01
      21-
 mid.  surface     2.8536E+08  3.9296E+08 -7.1732E+08 -2.8191E+07 -5.4567E+06  4.4610E+07  2.2664E-01
      22-
 mid.  surface     2.6383E+09  2.7429E+09  1.6238E+09 -3.0690E+07  2.7206E+07  4.4383E+07  2.0588E-01
      23-
 mid.  surface     4.7526E+08  4.5349E+08  1.4513E+08  1.1759E+07  1.1053E+08  2.6219E+07  1.2697E-01
      52-
 mid.  surface    -8.9222E+07 -8.2460E+07 -4.3143E+08 -1.5307E+07  1.1159E+08 -2.0296E+05  1.3320E-01
      53-
 mid.  surface     1.4127E+08  1.6276E+08 -1.6693E+08 -1.4330E+07  3.9490E+07  1.6039E+07  1.1242E-01
     124-
 mid.  surface     8.0373E+08  1.0209E+09 -9.3696E+08 -4.5573E+07 -3.6976E+07  5.7638E+07  3.1880E-01
     125-
 mid.  surface     3.5616E+09  3.7651E+09  1.8255E+09 -5.6217E+07 -2.6497E+07  1.4105E+07  2.8938E-01
     148-
 mid.  surface    -2.9476E+08 -2.9650E+08 -5.4906E+08 -5.8259E+06  4.4144E+07  2.3952E+07  1.3185E-01
     164-
 mid.  surface    -7.0798E+08 -7.0516E+08 -9.8380E+08 -2.1601E+06  9.7140E+07  7.5356E+06  1.4919E-01



 n o d a l  s t r a i n  c a l c u l a t i o n s   f o r   t i m e  s t e p      469   ( at time 3.05772E+01 )

 node (global)
          strain       eps-xx      eps-yy      eps-zz      eps-xy      eps-yz      eps-zx       
       1-
 mid.  surface     5.3221E-02  5.9953E-02 -9.9728E-02  7.9921E-03 -5.8174E-03  7.1928E-03
       2-
 mid.  surface     5.1506E-02  6.2892E-02 -1.4003E-01  4.6155E-03  2.2852E-03  1.7298E-02
       8-
 mid.  surface     5.7700E-02  5.8819E-02 -1.1923E-01 -6.9896E-03 -2.2425E-02  2.8601E-03
       9-
 mid.  surface     6.5473E-02  5.0790E-02 -1.2576E-01 -4.9253E-03 -2.9274E-02  1.3544E-03
      10-
 mid.  surface     6.4585E-02  5.4557E-02 -1.1967E-01 -1.3194E-03 -3.5295E-02  1.8147E-04
      11-
 mid.  surface     6.1230E-02  5.5477E-02 -1.1495E-01 -2.8028E-04 -3.5352E-02 -9.3439E-04
      12-
 mid.  surface     4.5256E-02  6.0517E-02 -9.0989E-02  3.5189E-04 -3.2594E-02 -1.3158E-02
      17-
 mid.  surface     5.7513E-02  5.7899E-02 -1.2208E-01 -1.9095E-03 -3.3460E-02 -1.1963E-02
      18-
 mid.  surface     5.3886E-02  6.0543E-02 -1.1379E-01 -1.2188E-03 -3.3547E-02 -4.3526E-03
      19-
 mid.  surface     4.6551E-02  6.1672E-02 -1.2685E-01 -3.5537E-03 -1.8897E-02 -1.1547E-02
      20-
 mid.  surface     6.3160E-02  5.9907E-02 -1.2604E-01  6.6688E-03  2.2081E-02  9.5211E-03
      21-
 mid.  surface     4.9680E-02  5.8641E-02 -1.3494E-01 -2.4399E-03  1.5454E-02  8.7205E-03
      22-
 mid.  surface     4.9614E-02  5.8067E-02 -1.0046E-01 -4.2732E-04  1.4120E-02  2.8488E-03
      23-
 mid.  surface     6.7606E-02  5.8089E-02 -1.2239E-01  4.2909E-03  3.2885E-02  9.9221E-03
      52-
 mid.  surface     6.2353E-02  5.8679E-02 -1.2551E-01 -2.3993E-03  2.3564E-02 -5.1473E-03
      53-
 mid.  surface     5.0211E-02  6.4157E-02 -1.1519E-01 -1.6306E-03  2.3523E-02  4.2233E-03
     124-
 mid.  surface     3.7267E-02  6.2933E-02 -1.4688E-01 -8.4184E-04  2.5919E-02 -2.0546E-02
     125-
 mid.  surface     3.9912E-02  5.7049E-02 -1.0413E-01  1.1733E-03  3.4531E-02 -3.0166E-02
     148-
 mid.  surface     5.1629E-02  6.1522E-02 -1.1991E-01 -6.6424E-03  1.2954E-02  7.3047E-03
     164-
 mid.  surface     6.2029E-02  5.4416E-02 -1.2952E-01 -4.4676E-03  4.9471E-03 -4.6860E-03



 n o d a l  s t r e s s  c a l c u l a t i o n s   f o r   t i m e  s t e p      478   ( at time 3.55772E+01 )

 node (global)
          stress       sig-xx      sig-yy      sig-zz      sig-xy      sig-yz      sig-zx       plastic
                                                                                                 strain 
       1-
 mid.  surface    -5.1697E+09 -5.1918E+09 -3.0470E+09  1.9684E+07 -1.1402E+07  1.8560E+07 -2.0531E-01
       2-
 mid.  surface    -3.7517E+09 -3.9457E+09 -3.8736E+09 -4.3203E+07  8.6733E+07  4.0700E+07 -4.2687E-02
       8-
 mid.  surface    -2.0146E+08 -2.4670E+08 -4.7728E+08 -2.6732E+06 -9.4543E+07  1.4017E+06  1.5370E-01
       9-
 mid.  surface    -6.4982E+08 -6.9054E+08 -9.4813E+08  2.8558E+06 -6.5174E+07 -8.0494E+05  1.6461E-01
      10-
 mid.  surface     7.2772E+07  2.4950E+07 -2.6678E+08 -2.7494E+07 -7.8499E+07 -4.4251E+06  1.4603E-01
      11-
 mid.  surface     1.7016E+08  1.7198E+08 -1.3902E+08 -1.5623E+07 -5.7003E+07  2.5674E+07  1.4038E-01
      12-
 mid.  surface    -1.8862E+09 -1.7840E+09 -1.0139E+09  5.2574E+06 -4.0475E+07 -2.0955E+07 -3.1237E-02
      17-
 mid.  surface    -5.3960E+08 -5.4037E+08 -8.1107E+08 -3.9904E+07 -1.0683E+08 -3.7605E+07  1.4809E-01
      18-
 mid.  surface     1.2969E+08  1.0807E+08 -1.6862E+08 -3.0031E+07 -1.1824E+08 -8.1122E+06  1.3577E-01
      19-
 mid.  surface    -1.8611E+09 -1.8214E+09 -2.4098E+09 -4.4275E+07 -3.8216E+07 -5.3862E+07  8.0174E-02
      20-
 mid.  surface     1.0063E+08  9.4278E+07 -2.1558E+08  2.6935E+07  4.2208E+06 -1.1842E+07  1.3975E-01
      21-
 mid.  surface     1.8371E+09  1.8611E+09  2.0124E+08  4.7338E+06  2.7110E+07 -9.2741E+06  3.3043E-01
      22-
 mid.  surface     2.2703E+09  2.3518E+09  1.7276E+09  2.9169E+07  2.9337E+05  1.4181E+07  2.4210E-01
      23-
 mid.  surface     7.6803E+08  7.1972E+08  4.1888E+08  3.1276E+07  8.7346E+07  3.5682E+07  1.5053E-01
      52-
 mid.  surface    -1.3612E+07 -8.0524E+06 -3.6312E+08 -8.7708E+06  9.5850E+07  3.9654E+06  1.5248E-01
      53-
 mid.  surface     2.4869E+08  2.7671E+08 -7.4132E+07 -7.5371E+06  4.6496E+07  1.1213E+07  1.3041E-01
     124-
 mid.  surface     2.5256E+09  2.4534E+09  2.5145E+08 -2.4422E+07  9.7507E+07 -8.6530E+06  4.6287E-01
     125-
 mid.  surface     9.3584E+08  9.8403E+08  9.6209E+08  1.4094E+07  3.5043E+07 -2.0310E+07  2.9490E-01
     148-
 mid.  surface    -3.1241E+08 -3.0838E+08 -6.0314E+08 -1.6103E+06  4.2756E+07  1.9701E+07  1.5647E-01
     164-
 mid.  surface    -7.6075E+08 -7.4756E+08 -1.0533E+09 -2.5509E+06  7.8678E+07  1.1947E+07  1.7301E-01



 n o d a l  s t r a i n  c a l c u l a t i o n s   f o r   t i m e  s t e p      478   ( at time 3.55772E+01 )

 node (global)
          strain       eps-xx      eps-yy      eps-zz      eps-xy      eps-yz      eps-zx       
       1-
 mid.  surface     7.1331E-02  7.1542E-02 -1.2268E-01  1.0892E-02 -1.0216E-02  7.5236E-03
       2-
 mid.  surface     7.1712E-02  7.0920E-02 -1.6671E-01  7.0117E-03  5.2288E-04  2.2844E-02
       8-
 mid.  surface     6.9346E-02  6.9096E-02 -1.4417E-01 -7.0153E-03 -2.6013E-02  3.0180E-03
       9-
 mid.  surface     7.5879E-02  5.8106E-02 -1.4664E-01 -4.2559E-03 -3.5171E-02  7.3131E-04
      10-
 mid.  surface     7.4518E-02  6.0663E-02 -1.3766E-01 -3.5198E-03 -3.9335E-02  3.8132E-04
      11-
 mid.  surface     6.9561E-02  6.5036E-02 -1.3530E-01 -8.5006E-04 -3.6510E-02  1.8554E-03
      12-
 mid.  surface     5.1022E-02  7.2237E-02 -1.0564E-01  1.4387E-03 -3.6266E-02 -1.4721E-02
      17-
 mid.  surface     6.5914E-02  6.7397E-02 -1.4429E-01 -5.1782E-03 -3.6317E-02 -1.1813E-02
      18-
 mid.  surface     6.2514E-02  6.9132E-02 -1.3278E-01 -3.8115E-03 -3.7361E-02 -3.6364E-03
      19-
 mid.  surface     5.4385E-02  7.0287E-02 -1.4566E-01 -5.2273E-03 -1.9754E-02 -1.2287E-02
      20-
 mid.  surface     7.4410E-02  7.2073E-02 -1.4864E-01  9.0068E-03  2.2151E-02  8.4844E-03
      21-
 mid.  surface     5.6189E-02  7.0183E-02 -1.5571E-01 -2.4038E-03  1.8129E-02  7.9757E-03
      22-
 mid.  surface     5.6875E-02  6.9269E-02 -1.1704E-01 -8.4193E-04  1.5105E-02  5.6413E-04
      23-
 mid.  surface     8.2358E-02  6.8592E-02 -1.4406E-01  6.9404E-03  3.5688E-02  1.2246E-02
      52-
 mid.  surface     7.2527E-02  6.7990E-02 -1.4427E-01 -3.2011E-03  2.5085E-02 -6.3744E-03
      53-
 mid.  surface     5.8680E-02  7.5183E-02 -1.3349E-01 -2.3764E-03  2.6846E-02  5.0771E-03
     124-
 mid.  surface     4.2024E-02  7.6471E-02 -1.7528E-01 -1.2378E-03  2.9910E-02 -2.4846E-02
     125-
 mid.  surface     4.4576E-02  7.0451E-02 -1.2834E-01 -1.6984E-03  3.9150E-02 -3.4493E-02
     148-
 mid.  surface     6.2524E-02  7.3806E-02 -1.4382E-01 -6.7446E-03  1.4476E-02  9.0065E-03
     164-
 mid.  surface     7.2000E-02  6.4658E-02 -1.5086E-01 -4.9046E-03  3.8671E-03 -4.1661E-03



 n o d a l  s t r e s s  c a l c u l a t i o n s   f o r   t i m e  s t e p      490   ( at time 4.05772E+01 )

 node (global)
          stress       sig-xx      sig-yy      sig-zz      sig-xy      sig-yz      sig-zx       plastic
                                                                                                 strain 
       1-
 mid.  surface    -4.5396E+09 -4.5674E+09 -4.3868E+09 -2.2116E+07  1.3370E+08 -8.2802E+07 -2.1346E-01
       2-
 mid.  surface    -5.0718E+08 -8.2269E+08 -2.9464E+09 -4.9120E+07  2.2687E+08 -6.5872E+07  1.2497E-01
       8-
 mid.  surface    -3.3073E+08 -4.3649E+08 -6.0915E+08 -1.8838E+07 -1.4042E+08  1.6346E+07  1.7867E-01
       9-
 mid.  surface    -7.8429E+08 -8.9499E+08 -1.0835E+09 -1.4476E+06 -8.8963E+07  2.7501E+07  1.8537E-01
      10-
 mid.  surface     8.4571E+07  7.7734E+07 -2.3056E+08  2.9920E+06 -9.7329E+07 -2.0997E+07  1.6808E-01
      11-
 mid.  surface     3.0892E+08  2.8479E+08  1.9992E+07 -2.2551E+07 -1.6036E+08 -1.7371E+07  1.5640E-01
      12-
 mid.  surface    -1.5973E+09 -1.5155E+09 -1.2573E+09  4.7141E+07 -6.3059E+07 -1.5487E+08 -5.8253E-02
      17-
 mid.  surface    -7.1539E+08 -7.2077E+08 -9.8645E+08 -5.4914E+07 -1.1404E+08 -4.3714E+06  1.6662E-01
      18-
 mid.  surface     1.7394E+08  1.3595E+08 -1.1934E+08  1.2900E+06 -1.3739E+08 -2.4199E+07  1.6181E-01
      19-
 mid.  surface     1.2411E+08  1.5784E+08 -1.4297E+09  2.8719E+07 -1.9247E+07 -1.1724E+08  1.9697E-01
      20-
 mid.  surface    -2.6126E+08 -2.5935E+08 -5.4333E+08 -5.8616E+07  1.1659E+08  4.3964E+07  1.5970E-01
      21-
 mid.  surface     1.3713E+09  1.4254E+09  7.1160E+08  4.6633E+06  2.5200E+07  7.8022E+07  3.8981E-01
      22-
 mid.  surface     4.5974E+08  6.2724E+08  1.3416E+09  4.4474E+07 -5.2625E+07  3.6344E+07  1.8461E-01
      23-
 mid.  surface     9.1342E+08  8.5945E+08  5.5898E+08 -3.8938E+07  9.2155E+07  2.5613E+07  1.6553E-01
      52-
 mid.  surface     2.2141E+07  7.4824E+07 -3.0532E+08  1.8247E+07  1.2922E+08  1.1309E+07  1.7606E-01
      53-
 mid.  surface     4.1046E+08  4.6992E+08  9.7157E+07 -1.5382E+06  8.0215E+07  5.6869E+06  1.5343E-01
     124-
 mid.  surface     2.7741E+09  2.5504E+09  1.3917E+09 -1.3746E+05  9.0637E+06  1.4402E+08  5.7058E-01
     125-
 mid.  surface    -2.9900E+09 -2.9198E+09 -1.0525E+09  3.0854E+07 -3.7821E+07  1.0917E+08  1.6388E-01
     148-
 mid.  surface    -2.7828E+08 -2.6870E+08 -5.2181E+08 -7.6112E+06  3.8082E+07  1.1373E+07  1.8319E-01
     164-
 mid.  surface    -6.9988E+08 -7.0356E+08 -9.7552E+08  2.8768E+07  9.4784E+07  2.0597E+07  1.9581E-01



 n o d a l  s t r a i n  c a l c u l a t i o n s   f o r   t i m e  s t e p      490   ( at time 4.05772E+01 )

 node (global)
          strain       eps-xx      eps-yy      eps-zz      eps-xy      eps-yz      eps-zx       
       1-
 mid.  surface     8.7139E-02  9.0274E-02 -1.5859E-01  9.3867E-03 -1.4238E-02  1.4663E-02
       2-
 mid.  surface     9.1163E-02  8.2727E-02 -1.9739E-01  8.1809E-03 -7.2522E-04  2.9717E-02
       8-
 mid.  surface     8.2833E-02  7.5942E-02 -1.6681E-01 -8.8921E-03 -3.1812E-02  5.1776E-03
       9-
 mid.  surface     8.7747E-02  6.0884E-02 -1.6363E-01 -4.6618E-03 -4.4638E-02  2.6547E-03
      10-
 mid.  surface     8.4903E-02  7.1457E-02 -1.5869E-01 -3.0208E-03 -4.3972E-02 -1.3352E-03
      11-
 mid.  surface     7.6030E-02  6.9943E-02 -1.4498E-01 -2.3322E-03 -4.0978E-02  9.1944E-04
      12-
 mid.  surface     6.0904E-02  8.8678E-02 -1.2114E-01  6.1836E-03 -4.5399E-02 -1.4703E-02
      17-
 mid.  surface     7.2962E-02  7.5443E-02 -1.6188E-01 -7.1340E-03 -3.8511E-02 -1.0951E-02
      18-
 mid.  surface     7.6335E-02  8.1495E-02 -1.5869E-01 -2.8417E-03 -4.1708E-02 -5.0171E-03
      19-
 mid.  surface     6.3252E-02  8.6584E-02 -1.6851E-01  3.4180E-04 -2.4511E-02 -1.1273E-02
      20-
 mid.  surface     8.0838E-02  7.9607E-02 -1.6786E-01  3.6929E-03  2.9752E-02  1.4199E-02
      21-
 mid.  surface     6.5245E-02  8.3185E-02 -1.8172E-01 -2.7672E-03  2.4558E-02  7.1191E-03
      22-
 mid.  surface     6.6135E-02  8.1498E-02 -1.3538E-01 -6.1965E-04  1.8862E-02 -2.8030E-03
      23-
 mid.  surface     9.0892E-02  7.3313E-02 -1.5571E-01  2.1059E-03  3.4106E-02  1.2447E-02
      52-
 mid.  surface     8.2164E-02  8.0516E-02 -1.6610E-01 -2.3252E-03  2.9135E-02 -5.4815E-03
      53-
 mid.  surface     6.8941E-02  9.1436E-02 -1.5786E-01 -2.8020E-03  3.1203E-02  5.9420E-03
     124-
 mid.  surface     5.6927E-02  8.5879E-02 -2.0635E-01  4.0460E-04  3.6385E-02 -4.1966E-02
     125-
 mid.  surface     5.8548E-02  8.2846E-02 -1.6348E-01 -8.3096E-04  4.8219E-02 -4.0579E-02
     148-
 mid.  surface     7.2211E-02  8.6072E-02 -1.6540E-01 -7.5040E-03  1.6477E-02  9.4797E-03
     164-
 mid.  surface     8.1259E-02  7.3397E-02 -1.6822E-01 -1.9885E-03  5.6930E-04 -4.1238E-03



 n o d a l  s t r e s s  c a l c u l a t i o n s   f o r   t i m e  s t e p      498   ( at time 4.55772E+01 )

 node (global)
          stress       sig-xx      sig-yy      sig-zz      sig-xy      sig-yz      sig-zx       plastic
                                                                                                 strain 
       1-
 mid.  surface     3.7396E+07 -2.1062E+08 -2.2052E+09  9.5357E+05  1.3684E+08 -1.3660E+07 -6.9500E-02
       2-
 mid.  surface    -6.9380E+08 -8.7735E+08 -2.0129E+09 -6.2595E+07  2.5878E+08  2.7240E+06  2.1952E-01
       8-
 mid.  surface    -5.5834E+08 -6.6689E+08 -8.7119E+08 -7.7747E+06 -1.2587E+08  1.3347E+07  1.9839E-01
       9-
 mid.  surface    -9.3936E+08 -1.0243E+09 -1.2331E+09  2.9788E+07 -1.2032E+08  1.2155E+07  2.0032E-01
      10-
 mid.  surface    -5.6289E+07 -4.0059E+07 -3.8571E+08 -2.2745E+07 -1.1866E+08  6.3808E+06  1.8559E-01
      11-
 mid.  surface    -2.9493E+08 -3.2844E+08 -6.7323E+08 -3.6993E+07  1.4539E+08  4.0010E+07  1.8264E-01
      12-
 mid.  surface    -3.2833E+08 -3.3520E+08 -1.1662E+09  2.9975E+07  1.5251E+08 -3.0730E+07 -4.1796E-03
      17-
 mid.  surface    -1.2962E+09 -1.3832E+09 -1.6969E+09 -4.5893E+07  1.4568E+08  3.2138E+07  1.9070E-01
      18-
 mid.  surface     1.4314E+07 -9.4376E+06 -3.2718E+08 -2.7873E+07 -1.6565E+08 -8.1966E+06  1.8070E-01
      19-
 mid.  surface    -1.1533E+09 -1.1216E+09 -1.8587E+09  2.3701E+06  2.1360E+08 -1.0749E+07  2.4562E-01
      20-
 mid.  surface     5.5521E+08  5.7540E+08  2.2233E+08 -1.3580E+06 -1.4177E+08 -5.3372E+07  1.8665E-01
      21-
 mid.  surface    -3.5883E+08 -2.1227E+08  3.1920E+08 -4.5875E+06 -2.3530E+08 -2.0835E+07  3.4927E-01
      22-
 mid.  surface     1.4923E+09  1.6283E+09  1.7066E+09  3.8140E+07 -3.2299E+08 -5.7325E+07  1.7059E-01
      23-
 mid.  surface     1.6897E+09  1.7117E+09  1.3412E+09  3.2651E+06 -1.2477E+08 -4.4831E+07  1.9503E-01
      52-
 mid.  surface     1.9728E+08  2.5945E+08 -1.3647E+08  2.0773E+07  1.2151E+08  3.9094E+07  1.9753E-01
      53-
 mid.  surface     5.6055E+08  6.0812E+08  2.1144E+08  1.5380E+07  7.9745E+07  2.4849E+06  1.7347E-01
     124-
 mid.  surface     7.8118E+07  2.8479E+07  7.4346E+08 -2.8353E+07  3.7928E+07  5.6891E+07  5.2859E-01
     125-
 mid.  surface    -3.9590E+08 -4.8021E+08 -5.4243E+08  3.0285E+07 -3.7224E+07  3.8322E+07  1.7071E-01
     148-
 mid.  surface    -2.5050E+08 -2.7763E+08 -5.2960E+08 -7.0279E+06  1.1278E+08  1.9671E+06  2.0799E-01
     164-
 mid.  surface    -4.9014E+08 -4.9793E+08 -7.5609E+08  1.3662E+07  1.0724E+08  1.7166E+07  2.1581E-01



 n o d a l  s t r a i n  c a l c u l a t i o n s   f o r   t i m e  s t e p      498   ( at time 4.55772E+01 )

 node (global)
          strain       eps-xx      eps-yy      eps-zz      eps-xy      eps-yz      eps-zx       
       1-
 mid.  surface     9.9218E-02  1.0386E-01 -1.7535E-01  9.5310E-03 -1.5083E-02  1.1823E-02
       2-
 mid.  surface     1.0519E-01  9.5551E-02 -2.2535E-01  8.5217E-03  1.6869E-03  3.0210E-02
       8-
 mid.  surface     9.3509E-02  8.3602E-02 -1.8855E-01 -8.6176E-03 -3.5803E-02  7.4597E-03
       9-
 mid.  surface     9.5113E-02  6.2842E-02 -1.7522E-01 -1.1642E-03 -5.4121E-02  3.7611E-03
      10-
 mid.  surface     9.1961E-02  7.9329E-02 -1.7591E-01 -5.3232E-03 -4.7437E-02 -3.1498E-04
      11-
 mid.  surface     8.7584E-02  8.0039E-02 -1.6716E-01 -2.9938E-03 -3.9571E-02  2.1004E-03
      12-
 mid.  surface     7.3089E-02  1.0239E-01 -1.3977E-01  9.4041E-03 -5.1304E-02 -1.6365E-02
      17-
 mid.  surface     8.6070E-02  8.3638E-02 -1.8386E-01 -7.7353E-03 -3.7350E-02 -1.0268E-02
      18-
 mid.  surface     8.5672E-02  9.1465E-02 -1.8060E-01 -5.4308E-03 -4.5494E-02 -3.8428E-03
      19-
 mid.  surface     7.6240E-02  9.8727E-02 -1.9337E-01  2.8745E-03 -2.5367E-02 -1.1060E-02
      20-
 mid.  surface     8.9303E-02  9.3066E-02 -1.8944E-01  3.5171E-03  3.3548E-02  1.2745E-02
      21-
 mid.  surface     7.6698E-02  9.4003E-02 -2.0857E-01 -5.8570E-03  2.5110E-02  1.0406E-02
      22-
 mid.  surface     7.6978E-02  9.2969E-02 -1.5559E-01 -2.4273E-03  1.3635E-02 -3.8133E-03
      23-
 mid.  surface     1.0028E-01  8.6264E-02 -1.7786E-01  1.7347E-03  3.5733E-02  1.0701E-02
      52-
 mid.  surface     9.1713E-02  9.2286E-02 -1.8536E-01 -1.1241E-03  3.0510E-02 -6.0445E-03
      53-
 mid.  surface     7.8836E-02  1.0509E-01 -1.7977E-01 -1.7111E-03  3.4471E-02  6.1441E-03
     124-
 mid.  surface     7.1693E-02  9.8511E-02 -2.3813E-01  6.6883E-05  4.2416E-02 -4.3344E-02
     125-
 mid.  surface     7.0821E-02  9.4915E-02 -1.8318E-01  8.3843E-04  5.6986E-02 -4.7299E-02
     148-
 mid.  surface     8.3808E-02  9.6309E-02 -1.8751E-01 -7.5808E-03  2.2880E-02  9.1659E-03
     164-
 mid.  surface     9.0210E-02  8.0451E-02 -1.8153E-01 -9.9369E-04 -5.7629E-03 -2.9022E-03



 n o d a l  s t r e s s  c a l c u l a t i o n s   f o r   t i m e  s t e p      511   ( at time 5.05772E+01 )

 node (global)
          stress       sig-xx      sig-yy      sig-zz      sig-xy      sig-yz      sig-zx       plastic
                                                                                                 strain 
       1-
 mid.  surface     1.7590E+08 -2.3109E+08 -1.7040E+09 -7.4169E+07  9.5808E+07 -1.4512E+08  7.7574E-02
       2-
 mid.  surface    -2.1113E+09 -2.4323E+09 -2.2434E+09 -1.0639E+08  2.1478E+08 -9.3483E+07  2.5092E-01
       8-
 mid.  surface     2.8524E+07 -2.4412E+08 -2.5090E+08 -4.6782E+07 -6.1195E+07  9.3000E+07  2.1291E-01
       9-
 mid.  surface    -9.1327E+08 -1.3030E+09 -1.2429E+09  6.6771E+07 -4.9815E+08  4.8876E+07  2.1211E-01
      10-
 mid.  surface     3.2337E+08  4.7961E+08 -1.9020E+07  7.6903E+07 -5.0694E+08 -8.9805E+07  2.0698E-01
      11-
 mid.  surface     5.5606E+08  5.7871E+08  2.8917E+08 -1.6567E+08  1.3513E+07 -2.7194E+07  2.0119E-01
      12-
 mid.  surface     6.9548E+08  6.9815E+08 -4.0353E+08  1.5424E+08  2.1362E+08 -8.5487E+07  8.1381E-02
      17-
 mid.  surface    -9.5951E+08 -1.0273E+09 -1.2267E+09 -1.9487E+08  2.7323E+08  7.3893E+07  2.1863E-01
      18-
 mid.  surface     7.6972E+08  8.5568E+08  4.8799E+08  5.5139E+07 -2.2108E+08 -4.0429E+07  2.0936E-01
      19-
 mid.  surface    -1.9283E+09 -1.7726E+09 -2.3169E+09  1.1213E+08  2.7164E+08 -6.5784E+07  3.0884E-01
      20-
 mid.  surface    -8.1541E+08 -7.3943E+08 -9.0639E+08 -1.7036E+08  1.4398E+07  6.0389E+07  2.1727E-01
      21-
 mid.  surface    -1.2396E+09 -9.8408E+08 -6.6948E+08  9.5191E+07 -2.7705E+08  5.8842E+06  3.2173E-01
      22-
 mid.  surface     1.8399E+09  1.9719E+09  1.7337E+09  1.3682E+08 -3.5390E+08 -1.8284E+07  1.6765E-01
      23-
 mid.  surface     1.6310E+09  1.7264E+09  1.3465E+09 -1.5915E+08 -2.0323E+08 -5.7537E+07  2.0014E-01
      52-
 mid.  surface    -8.0927E+07  1.3260E+08 -4.6598E+08  1.0373E+08  1.0729E+08  2.2624E+07  2.2718E-01
      53-
 mid.  surface     4.3118E+08  6.3733E+08  1.9175E+08  5.6594E+07  3.8050E+08  6.2208E+07  2.1556E-01
     124-
 mid.  surface    -4.2515E+08 -6.1263E+08  6.2838E+08 -7.1493E+07  1.4369E+07  1.2018E+08  4.4578E-01
     125-
 mid.  surface     8.8321E+08  6.9966E+08  2.2697E+08  1.2853E+07 -7.9579E+07  5.7454E+07  2.1604E-01
     148-
 mid.  surface    -2.5711E+08 -3.6168E+08 -2.6542E+08 -5.3488E+07  4.9823E+08  5.3040E+07  2.5931E-01
     164-
 mid.  surface    -2.5963E+08 -4.9579E+08 -6.2336E+08  9.0709E+07  7.0010E+07  1.1008E+07  2.3235E-01



 n o d a l  s t r a i n  c a l c u l a t i o n s   f o r   t i m e  s t e p      511   ( at time 5.05772E+01 )

 node (global)
          strain       eps-xx      eps-yy      eps-zz      eps-xy      eps-yz      eps-zx       
       1-
 mid.  surface     1.1643E-01  1.2800E-01 -2.1205E-01  7.8433E-03 -1.6739E-02  1.5424E-02
       2-
 mid.  surface     1.3230E-01  1.0671E-01 -2.5418E-01  4.4761E-03  5.3074E-03  4.1496E-02
       8-
 mid.  surface     1.0810E-01  9.5741E-02 -2.0657E-01 -1.1000E-02 -4.4237E-02  1.7733E-02
       9-
 mid.  surface     1.0411E-01  4.5024E-02 -1.7006E-01  3.0944E-03 -7.7361E-02  1.1744E-02
      10-
 mid.  surface     9.9290E-02  9.0844E-02 -1.9445E-01 -2.1476E-03 -5.5375E-02 -2.0362E-03
      11-
 mid.  surface     8.5446E-02  7.7215E-02 -1.6030E-01 -1.3255E-02 -4.9850E-02 -3.8449E-03
      12-
 mid.  surface     8.8969E-02  1.2586E-01 -1.6692E-01  2.0847E-02 -6.2397E-02 -1.3533E-02
      17-
 mid.  surface     8.9935E-02  9.4243E-02 -2.0045E-01 -1.5795E-02 -4.3471E-02 -1.3127E-02
      18-
 mid.  surface     1.0448E-01  1.2076E-01 -2.2018E-01 -1.0465E-04 -5.2615E-02 -5.1460E-03
      19-
 mid.  surface     9.1724E-02  1.2546E-01 -2.3724E-01  1.2371E-02 -3.3495E-02 -9.5384E-03
      20-
 mid.  surface     8.9988E-02  1.0409E-01 -2.1314E-01 -9.1309E-03  5.7366E-02  2.9328E-02
      21-
 mid.  surface     9.7672E-02  1.1590E-01 -2.5636E-01 -2.7130E-03  3.3177E-02  7.7319E-03
      22-
 mid.  surface     9.6601E-02  1.0910E-01 -1.8696E-01  6.7912E-03  2.6558E-02 -3.4679E-03
      23-
 mid.  surface     1.0211E-01  8.7028E-02 -1.7564E-01 -1.0563E-02  2.6769E-02  2.0325E-03
      52-
 mid.  surface     1.0057E-01  1.0735E-01 -2.1120E-01  3.3660E-03  3.2233E-02 -7.1967E-03
      53-
 mid.  surface     9.3953E-02  1.3769E-01 -2.2456E-01  1.2395E-03  5.1564E-02  1.0975E-02
     124-
 mid.  surface     8.2269E-02  1.0679E-01 -2.6435E-01 -6.1565E-03  4.7004E-02 -5.7386E-02
     125-
 mid.  surface     7.4908E-02  1.1445E-01 -2.1809E-01  4.3476E-03  5.9998E-02 -6.0372E-02
     148-
 mid.  surface     9.4939E-02  1.1195E-01 -2.1493E-01 -9.1136E-03  5.0127E-02  7.4310E-03
     164-
 mid.  surface     9.7256E-02  7.2925E-02 -1.8199E-01  8.2244E-03 -3.3931E-02 -8.4021E-03



 n o d a l  s t r e s s  c a l c u l a t i o n s   f o r   t i m e  s t e p      519   ( at time 5.55772E+01 )

 node (global)
          stress       sig-xx      sig-yy      sig-zz      sig-xy      sig-yz      sig-zx       plastic
                                                                                                 strain 
       1-
 mid.  surface    -7.3392E+08 -9.0956E+08 -2.0412E+09 -2.8876E+07  1.1908E+08  7.1040E+06  1.4542E-01
       2-
 mid.  surface    -1.9836E+09 -2.1253E+09 -2.4558E+09 -8.4910E+07  1.7892E+08 -2.0753E+06  2.7771E-01
       8-
 mid.  surface     7.1213E+07  7.7588E+07 -3.7474E+08 -1.1232E+07  6.9092E+08  1.1673E+08  2.5087E-01
       9-
 mid.  surface    -1.1853E+09 -1.2269E+09 -1.6142E+09  1.9805E+07  5.3905E+08  9.9913E+07  2.5078E-01
      10-
 mid.  surface     4.2580E+08  5.0455E+08 -7.0787E+07  2.0536E+07  5.0377E+08  7.8713E+07  2.3932E-01
      11-
 mid.  surface     8.0976E+08  8.4722E+08 -6.4896E+07 -4.9542E+07  3.5635E+08  1.0979E+08  2.6042E-01
      12-
 mid.  surface     3.2387E+08  3.2302E+08 -5.0501E+08  9.9136E+07  1.5651E+08 -3.0318E+07  1.2774E-01
      17-
 mid.  surface    -1.0484E+09 -1.0298E+09 -1.5915E+09 -5.8784E+07  3.8551E+08  1.2497E+08  2.5592E-01
      18-
 mid.  surface     9.0709E+08  9.9657E+08  4.0611E+08  9.7743E+06  5.8768E+08  1.0371E+08  2.4126E-01
      19-
 mid.  surface    -1.9666E+09 -1.9617E+09 -2.3693E+09  3.3521E+07  1.2215E+08 -5.3217E+07  3.3414E-01
      20-
 mid.  surface     4.0079E+08  3.7695E+08 -4.2152E+08 -7.6018E+07 -4.4817E+08 -9.0102E+07  2.7161E-01
      21-
 mid.  surface    -1.1189E+09 -1.0037E+09 -4.1595E+08  6.2696E+07 -1.8533E+08 -6.0028E+07  2.8709E-01
      22-
 mid.  surface     1.4756E+09  1.5678E+09  1.9950E+09  1.0044E+08 -1.3865E+08 -6.0147E+07  1.3970E-01
      23-
 mid.  surface     2.3017E+09  2.3093E+09  1.8073E+09 -4.7218E+07 -4.3713E+08 -1.3215E+08  2.3569E-01
      52-
 mid.  surface     7.6052E+08  7.6963E+08  3.0026E+08  2.1280E+07 -6.0556E+08 -1.0184E+08  2.5260E-01
      53-
 mid.  surface     1.4009E+09  1.4096E+09  9.5380E+08  6.8921E+06 -5.2279E+08 -7.9528E+07  2.4133E-01
     124-
 mid.  surface    -1.2342E+09 -1.2902E+09  4.0705E+08 -1.0481E+08  7.6798E+07  6.7937E+07  3.5246E-01
     125-
 mid.  surface    -9.9141E+08 -1.0499E+09 -2.7355E+08 -5.5331E+07  5.5191E+07  1.0649E+08  1.7247E-01
     148-
 mid.  surface     3.0641E+08  2.1371E+08 -6.2769E+07  1.0662E+06 -5.7488E+08 -6.5444E+07  2.8845E-01
     164-
 mid.  surface     9.5006E+07 -4.0313E+07 -3.3563E+08  5.0639E+07 -7.5098E+08 -7.1216E+07  2.5961E-01



 n o d a l  s t r a i n  c a l c u l a t i o n s   f o r   t i m e  s t e p      519   ( at time 5.55772E+01 )

 node (global)
          strain       eps-xx      eps-yy      eps-zz      eps-xy      eps-yz      eps-zx       
       1-
 mid.  surface     1.2815E-01  1.3726E-01 -2.2876E-01  1.1332E-02 -1.9895E-02  1.3335E-02
       2-
[...]
      23-
 mid.  surface     1.7483E-01  1.7439E-01 -3.4294E-01 -9.3010E-03  1.9175E-02 -1.0787E-02
      52-
 mid.  surface     1.7112E-01  1.6291E-01 -3.5609E-01 -1.8304E-03  6.5638E-05 -1.3620E-02
      53-
 mid.  surface     1.7593E-01  2.1898E-01 -3.9575E-01 -2.9596E-03  9.8539E-02  2.1790E-02
     124-
 mid.  surface     1.5569E-01  1.8856E-01 -4.7527E-01 -1.3667E-02  8.3956E-02 -4.8585E-02
     125-
 mid.  surface     1.3415E-01  2.0654E-01 -3.7301E-01  4.8009E-03  1.0189E-01 -7.2797E-02
     148-
 mid.  surface     1.8059E-01  2.2283E-01 -4.1733E-01 -7.7748E-04  8.4796E-02  3.3732E-02
     164-
 mid.  surface     1.7068E-01  1.5049E-01 -3.5517E-01  1.3736E-02 -1.0205E-01  1.1958E-02



 n o d a l  s t r e s s  c a l c u l a t i o n s   f o r   t i m e  s t e p      589   ( at time 9.05772E+01 )

 node (global)
          stress       sig-xx      sig-yy      sig-zz      sig-xy      sig-yz      sig-zx       plastic
                                                                                                 strain 
       1-
 mid.  surface     8.8379E+08  8.6313E+08 -2.2907E+09  2.7854E+07 -1.7917E+07 -6.9091E+07  1.0632E+00
       2-
 mid.  surface     1.5853E+08  2.3366E+08 -2.0624E+09  4.6683E+07  1.5729E+07 -7.0327E+07  8.5778E-01
       8-
 mid.  surface     3.8881E+08  5.1346E+08  1.8610E+09  3.4829E+07  2.7185E+07 -4.8683E+06  1.1635E-01
       9-
 mid.  surface    -1.4387E+08 -6.4997E+07 -5.8041E+08  2.0318E+07  1.7089E+08  3.1483E+07  6.2116E-01
      10-
 mid.  surface     1.0756E+09  1.0602E+09  6.0434E+08  1.7075E+06  2.7842E+08  9.1614E+07  4.8418E-01
      11-
 mid.  surface     1.6020E+09  1.7339E+09  9.6290E+08  6.6733E+06  1.9393E+08  4.3424E+07  5.5745E-01
      12-
 mid.  surface     1.0498E+09  9.8038E+08  7.1203E+08  5.7135E+07  6.6984E+07 -7.0759E+07  4.6030E-01
      17-
 mid.  surface    -4.5957E+08 -3.7070E+08 -3.3093E+08 -1.7030E+07  1.0904E+07 -5.9754E+07  4.3938E-01
      18-
 mid.  surface     1.2366E+08  1.3793E+08  1.5272E+09  4.3297E+06  7.2121E+07  5.7387E+06  7.2615E-02
      19-
 mid.  surface    -7.8638E+08 -8.3193E+08 -7.8441E+08  2.1542E+07  1.5108E+07 -1.1007E+08  5.2133E-01
      20-
 mid.  surface    -1.6587E+09 -1.5914E+09 -2.3507E+09 -5.7908E+07 -2.2483E+08 -2.7772E+07  4.7659E-01
      21-
 mid.  surface    -1.9457E+09 -1.9865E+09 -6.8057E+08 -1.9451E+07 -3.7442E+07 -1.3376E+07 -7.6257E-02
      22-
 mid.  surface    -2.5984E+08 -2.9698E+08  1.3316E+09  5.4182E+06  1.4397E+07  4.4162E+07 -3.5295E-01
      23-
 mid.  surface     4.5061E+08  4.9697E+08 -2.1240E+07 -7.3722E+06 -5.8289E+07  2.6652E+07  2.6199E-01
      52-
 mid.  surface     1.4605E+08 -3.7303E+06 -1.6376E+09 -2.7267E+07 -9.7193E+07  1.6271E+07  6.4211E-01
      53-
 mid.  surface    -3.7878E+08 -5.4191E+08 -9.4456E+08 -3.1888E+07 -2.0378E+08 -2.4845E+07  3.6026E-01
     124-
 mid.  surface    -7.6004E+08 -7.2641E+08 -7.4350E+08 -2.4540E+07 -1.6706E+06  1.1060E+08 -3.1192E-02
     125-
 mid.  surface    -1.1613E+08 -1.2300E+08 -1.1259E+09 -8.7871E+06 -2.2662E+07  7.3009E+07  1.9576E-01
     148-
 mid.  surface    -5.8152E+08 -6.5078E+08 -1.1067E+09 -3.5645E+05 -2.3689E+08 -3.0478E+07  5.2675E-01
     164-
 mid.  surface    -1.3081E+08 -2.4271E+08 -1.8980E+09 -1.6489E+07 -1.4788E+08 -6.0822E+06  7.3394E-01



 n o d a l  s t r a i n  c a l c u l a t i o n s   f o r   t i m e  s t e p      589   ( at time 9.05772E+01 )

 node (global)
          strain       eps-xx      eps-yy      eps-zz      eps-xy      eps-yz      eps-zx       
       1-
 mid.  surface     2.0824E-01  2.2662E-01 -3.6622E-01  2.1762E-02 -3.3444E-02  5.7521E-03
       2-
 mid.  surface     2.3923E-01  1.8525E-01 -4.7243E-01  3.7751E-03  1.3195E-02  4.5993E-02
       8-
 mid.  surface     1.9987E-01  2.1173E-01 -3.8675E-01  9.2866E-03 -6.3147E-02  1.9220E-02
       9-
 mid.  surface     1.7991E-01  1.1842E-01 -3.3624E-01  1.0551E-02 -1.2265E-01  1.1921E-02
      10-
 mid.  surface     1.7477E-01  1.2043E-01 -3.1482E-01 -8.3541E-03 -7.4229E-02 -2.1525E-03
      11-
 mid.  surface     1.5090E-01  1.5826E-01 -3.1730E-01 -1.7136E-02 -3.7746E-02  1.1581E-02
      12-
 mid.  surface     1.6833E-01  2.2270E-01 -3.2839E-01  2.9747E-02 -7.8555E-02 -1.1295E-02
      17-
 mid.  surface     1.6072E-01  2.0165E-01 -3.8170E-01 -2.9735E-02 -3.6736E-02 -7.5401E-03
      18-
 mid.  surface     1.9185E-01  1.9418E-01 -3.7426E-01 -3.2544E-03 -5.8867E-02 -1.8910E-03
      19-
 mid.  surface     1.8044E-01  2.0983E-01 -4.2288E-01  1.4686E-02 -2.9161E-02 -6.6271E-03
      20-
 mid.  surface     1.7333E-01  2.2565E-01 -4.2318E-01 -1.4849E-02  9.3530E-02  4.6747E-02
      21-
 mid.  surface     1.9100E-01  2.0987E-01 -4.6672E-01 -1.1497E-04  4.3788E-02  2.8380E-03
      22-
 mid.  surface     1.8372E-01  2.1927E-01 -3.6708E-01  1.9673E-02 -1.8084E-02 -4.3310E-02
      23-
 mid.  surface     1.8551E-01  1.9082E-01 -3.6835E-01 -8.5999E-03  1.9633E-02 -1.7477E-02
      52-
 mid.  surface     1.8322E-01  1.7067E-01 -3.7848E-01 -1.5430E-03 -6.9786E-03 -1.1300E-02
      53-
 mid.  surface     1.8836E-01  2.2840E-01 -4.2032E-01 -3.0693E-03  1.0185E-01  2.6227E-02
     124-
 mid.  surface     1.6389E-01  2.0165E-01 -4.9657E-01 -1.7238E-02  8.4144E-02 -3.6085E-02
     125-
 mid.  surface     1.3848E-01  2.2153E-01 -3.8364E-01  7.1501E-03  1.0292E-01 -7.4183E-02
     148-
 mid.  surface     1.9467E-01  2.3862E-01 -4.4724E-01 -1.8435E-04  8.6374E-02  3.4777E-02
     164-
 mid.  surface     1.8196E-01  1.6444E-01 -3.8506E-01  1.3285E-02 -1.0832E-01  1.4146E-02



 n o d a l  s t r e s s  c a l c u l a t i o n s   f o r   t i m e  s t e p      596   ( at time 9.55772E+01 )

 node (global)
          stress       sig-xx      sig-yy      sig-zz      sig-xy      sig-yz      sig-zx       plastic
                                                                                                 strain 
       1-
 mid.  surface    -6.1172E+08 -7.8977E+08 -3.8775E+09  4.1856E+07 -1.5233E+07 -7.3801E+07  1.2015E+00
       2-
 mid.  surface    -1.1941E+09 -1.3020E+09 -3.5248E+09  2.6741E+07  2.4254E+07 -6.3942E+07  9.5788E-01
       8-
 mid.  surface     2.8171E+08  2.1746E+08  1.6673E+09 -3.7790E+07  4.8123E+06  1.0571E+07  4.1385E-02
       9-
 mid.  surface    -7.8801E+08 -8.6669E+08 -1.3436E+09 -2.3671E+07 -5.2773E+07 -1.3971E+07  6.4119E-01
      10-
 mid.  surface    -6.5282E+07 -1.7028E+08 -6.2422E+08 -1.3003E+07  1.9450E+07 -5.4023E+06  5.0448E-01
      11-
 mid.  surface     8.6172E+08  9.6042E+08  1.7704E+08  4.5087E+05  6.8938E+07 -5.3322E+07  5.9561E-01
      12-
 mid.  surface     7.0407E+08  6.5338E+08  3.6017E+08 -2.1508E+07  5.6796E+07 -8.1666E+07  4.7145E-01
      17-
 mid.  surface    -1.0680E+09 -1.1129E+09 -9.8259E+08  2.0639E+07  1.9200E+07 -6.7918E+07  4.3149E-01
      18-
 mid.  surface    -3.3334E+08 -4.5381E+08  1.0282E+09 -3.7683E+07  2.6929E+07  1.5715E+06 -4.2271E-03
      19-
 mid.  surface    -1.0130E+09 -1.1065E+09 -1.0414E+09  1.9338E+07  3.9592E+07 -8.3390E+07  5.1617E-01
      20-
 mid.  surface    -7.2665E+08 -6.2094E+08 -1.3836E+09  6.0764E+07 -9.4488E+07  3.7485E+07  5.2017E-01
      21-
 mid.  surface    -8.9426E+08 -8.7857E+08  4.0411E+08 -1.0196E+07 -9.9689E+06  4.0630E+07 -1.3509E-01
      22-
 mid.  surface     7.7668E+08  8.8155E+08  2.4421E+09 -6.4018E+07  1.2970E+07  5.9104E+07 -4.2563E-01
      23-
 mid.  surface     1.1941E+09  1.3743E+09  7.6756E+08  7.7501E+06 -3.5125E+07  5.0570E+07  2.9841E-01
      52-
 mid.  surface     4.9128E+08  5.7966E+08 -1.1995E+09  4.4768E+07 -2.9955E+07  5.9415E+06  7.3401E-01
      53-
 mid.  surface     4.8959E+08  5.4734E+08  5.0565E+07  2.8976E+07 -1.1168E+07  2.2637E+07  3.8646E-01
     124-
 mid.  surface    -9.1432E+08 -9.1916E+08 -9.0812E+08 -2.5449E+07 -1.4457E+06  7.5165E+07 -3.3712E-02
     125-
 mid.  surface    -6.4843E+08 -7.1100E+08 -1.6799E+09  2.9337E+06 -3.1445E+07  3.3833E+07  2.3807E-01
     148-
 mid.  surface     4.6532E+08  6.0956E+08  5.9120E+07  2.5770E+07  1.7322E+07  1.0814E+07  5.5233E-01
     164-
 mid.  surface     1.8180E+08  3.0891E+08 -1.5002E+09  3.0079E+07 -2.2978E+07 -1.1492E+07  8.2400E-01



 n o d a l  s t r a i n  c a l c u l a t i o n s   f o r   t i m e  s t e p      596   ( at time 9.55772E+01 )

 node (global)
          strain       eps-xx      eps-yy      eps-zz      eps-xy      eps-yz      eps-zx       
       1-
 mid.  surface     2.1433E-01  2.3185E-01 -3.7598E-01  2.2107E-02 -3.1567E-02  4.8144E-03
       2-
 mid.  surface     2.4439E-01  1.8982E-01 -4.8646E-01  3.1497E-03  1.6016E-02  4.3233E-02
       8-
 mid.  surface     2.0694E-01  2.2529E-01 -4.1113E-01  9.1790E-03 -5.9673E-02  1.7864E-02
       9-
 mid.  surface     1.8930E-01  1.3589E-01 -3.5924E-01  1.1676E-02 -1.2239E-01  1.1374E-02
      10-
 mid.  surface     1.8492E-01  1.3462E-01 -3.3652E-01 -6.0501E-03 -7.4707E-02 -2.1833E-03
      11-
 mid.  surface     1.6082E-01  1.7521E-01 -3.3974E-01 -1.3358E-02 -3.5712E-02  1.4180E-02
      12-
 mid.  surface     1.7823E-01  2.3178E-01 -3.5067E-01  3.1224E-02 -7.6627E-02 -9.7943E-03
      17-
 mid.  surface     1.7112E-01  2.1087E-01 -4.0367E-01 -2.8035E-02 -3.2846E-02 -5.1047E-03
      18-
 mid.  surface     2.0066E-01  2.0334E-01 -3.9518E-01 -3.8783E-03 -5.5641E-02 -1.0483E-03
      19-
 mid.  surface     1.9126E-01  2.1351E-01 -4.4333E-01  1.5127E-02 -2.6104E-02 -5.3422E-03
      20-
 mid.  surface     1.8213E-01  2.3367E-01 -4.4118E-01 -1.4369E-02  8.8461E-02  4.4112E-02
      21-
 mid.  surface     2.0004E-01  2.1559E-01 -4.8757E-01 -6.1396E-04  3.9401E-02 -3.5745E-03
      22-
 mid.  surface     1.9224E-01  2.2955E-01 -3.8974E-01  1.9592E-02 -2.3184E-02 -4.1565E-02
      23-
 mid.  surface     1.9385E-01  2.0329E-01 -3.8913E-01 -6.3634E-03  2.1940E-02 -1.5927E-02
      52-
 mid.  surface     1.9148E-01  1.7809E-01 -3.9544E-01 -5.9631E-04 -5.8495E-03 -9.5565E-03
      53-
 mid.  surface     1.9603E-01  2.3269E-01 -4.3466E-01 -4.0512E-03  9.8988E-02  2.4039E-02
     124-
 mid.  surface     1.7004E-01  2.0880E-01 -5.1282E-01 -1.8192E-02  8.5253E-02 -3.2319E-02
     125-
 mid.  surface     1.4471E-01  2.2988E-01 -3.9568E-01  7.0907E-03  1.0450E-01 -7.5247E-02
     148-
 mid.  surface     2.0250E-01  2.4389E-01 -4.6201E-01 -5.3730E-04  8.0396E-02  3.4620E-02
     164-
 mid.  surface     1.9067E-01  1.7327E-01 -4.0318E-01  1.2673E-02 -1.0317E-01  1.3278E-02



 n o d a l  s t r e s s  c a l c u l a t i o n s   f o r   t i m e  s t e p      828   ( at time 9.78980E+01 )

 node (global)
          stress       sig-xx      sig-yy      sig-zz      sig-xy      sig-yz      sig-zx       plastic
                                                                                                 strain 
       1-
 mid.  surface    -8.5549E+08 -9.2706E+08 -4.0782E+09  9.0830E+06 -4.5063E+07 -1.1817E+08  1.2942E+00
       2-
 mid.  surface    -1.1231E+09 -1.1706E+09 -3.4365E+09  1.0691E+07 -1.0908E+07 -6.5241E+07  1.0236E+00
       8-
 mid.  surface     5.0540E+08  5.6983E+08  1.9661E+09 -9.2361E+06  7.2562E+07  2.2234E+07  6.1899E-03
       9-
 mid.  surface    -1.0637E+09 -1.1055E+09 -1.5911E+09 -2.9896E+06 -3.1499E+07  2.4857E+07  6.5699E-01
      10-
 mid.  surface    -5.6274E+07 -1.2312E+08 -5.9005E+08 -1.1017E+07  9.2535E+07  3.1221E+07  5.1754E-01
      11-
 mid.  surface     6.7762E+08  8.0910E+08  8.5872E+06 -1.8261E+07  7.0526E+07  1.4133E+07  6.1723E-01
      12-
 mid.  surface     5.2063E+08  4.8654E+08  1.9174E+08  9.4317E+06  2.8391E+07 -8.8098E+07  4.8197E-01
      17-
 mid.  surface    -1.2698E+09 -1.1807E+09 -1.1261E+09  5.6208E+06 -1.1135E+07 -7.0347E+07  4.3220E-01
      18-
 mid.  surface    -2.5204E+08 -2.6248E+08  1.1678E+09 -1.6119E+07  8.3797E+07  3.1240E+06 -3.9614E-02
      19-
 mid.  surface    -9.6506E+08 -1.0053E+09 -9.7186E+08  2.4245E+07  2.2967E+06 -1.0815E+08  5.1393E-01
      20-
 mid.  surface    -7.3014E+08 -6.3560E+08 -1.4039E+09 -5.9623E+06 -1.0766E+08  2.9711E+06  5.3790E-01
      21-
 mid.  surface    -6.4917E+08 -6.5443E+08  6.4276E+08  9.1241E+06  1.7265E+07  1.4097E+07 -1.7259E-01
      22-
 mid.  surface     7.7712E+08  7.9677E+08  2.4140E+09 -1.2418E+07  4.5489E+07  7.1391E+07 -4.6931E-01
      23-
 mid.  surface     1.2529E+09  1.3240E+09  7.7687E+08 -1.8238E+07 -2.0806E+07  6.4849E+07  3.0990E-01
      52-
 mid.  surface     4.9274E+08  4.1476E+08 -1.2893E+09 -2.8244E+06 -6.6916E+07 -4.8343E+06  7.7431E-01
      53-
 mid.  surface     5.1895E+08  4.5760E+08  1.2036E+07 -1.0302E+07 -3.7812E+07 -1.7309E+07  3.9491E-01
     124-
 mid.  surface    -8.2833E+08 -8.7124E+08 -8.4421E+08 -2.1376E+07  8.3860E+06  1.0512E+08 -3.2258E-02
     125-
 mid.  surface    -7.6284E+08 -8.0827E+08 -1.7899E+09 -6.7199E+06 -2.3665E+07  3.6390E+07  2.6880E-01
     148-
 mid.  surface     5.8232E+08  5.5715E+08  8.2474E+07  1.3368E+07 -5.8425E+07 -9.9985E+06  5.6253E-01
     164-
 mid.  surface     2.7073E+07 -6.1068E+07 -1.7652E+09  2.0393E+07 -1.4042E+08 -1.7490E+07  8.6658E-01



 n o d a l  s t r a i n  c a l c u l a t i o n s   f o r   t i m e  s t e p      828   ( at time 9.78980E+01 )

 node (global)
          strain       eps-xx      eps-yy      eps-zz      eps-xy      eps-yz      eps-zx       
       1-
 mid.  surface     2.1828E-01  2.3796E-01 -3.8385E-01  2.2433E-02 -2.9865E-02  4.8152E-03
       2-
 mid.  surface     2.4933E-01  1.9487E-01 -4.9516E-01  1.6309E-03  1.7802E-02  4.3216E-02
       8-
 mid.  surface     2.1244E-01  2.3103E-01 -4.1843E-01  9.5785E-03 -6.1168E-02  1.8175E-02
       9-
 mid.  surface     1.9438E-01  1.3879E-01 -3.6933E-01  1.1962E-02 -1.2350E-01  1.1833E-02
      10-
 mid.  surface     1.8961E-01  1.3520E-01 -3.4282E-01 -6.0720E-03 -7.5823E-02 -1.4291E-03
      11-
 mid.  surface     1.6516E-01  1.8129E-01 -3.4945E-01 -1.3359E-02 -3.4701E-02  1.6799E-02
      12-
 mid.  surface     1.8535E-01  2.3869E-01 -3.6726E-01  3.2399E-02 -7.6156E-02 -7.6783E-03
      17-
 mid.  surface     1.7492E-01  2.1662E-01 -4.1338E-01 -2.9639E-02 -3.1509E-02 -3.0720E-03
      18-
 mid.  surface     2.0575E-01  2.0617E-01 -4.0269E-01 -4.8837E-03 -5.6160E-02  1.4529E-04
      19-
 mid.  surface     1.9847E-01  2.1830E-01 -4.5677E-01  1.5052E-02 -2.5070E-02 -3.3777E-03
      20-
 mid.  surface     1.8632E-01  2.4007E-01 -4.5092E-01 -1.5523E-02  8.8999E-02  4.1606E-02
      21-
 mid.  surface     2.0554E-01  2.1993E-01 -4.9911E-01 -1.0833E-03  3.6820E-02 -1.1205E-02
      22-
 mid.  surface     1.9752E-01  2.3580E-01 -4.0470E-01  2.0545E-02 -2.3479E-02 -3.8443E-02
      23-
 mid.  surface     1.9798E-01  2.1059E-01 -4.0040E-01 -6.0392E-03  2.4646E-02 -1.8420E-02
      52-
 mid.  surface     1.9676E-01  1.8149E-01 -4.0528E-01 -6.9169E-04 -9.4750E-03 -1.0141E-02
      53-
 mid.  surface     2.0166E-01  2.3712E-01 -4.4593E-01 -5.0243E-03  1.0219E-01  2.4241E-02
     124-
 mid.  surface     1.7338E-01  2.1376E-01 -5.1940E-01 -1.9302E-02  8.4443E-02 -3.2226E-02
     125-
 mid.  surface     1.4798E-01  2.3537E-01 -4.0166E-01  7.3039E-03  1.0384E-01 -7.2494E-02
     148-
 mid.  surface     2.0869E-01  2.4966E-01 -4.7361E-01 -8.0612E-04  8.3089E-02  3.4609E-02
     164-
 mid.  surface     1.9604E-01  1.7640E-01 -4.1523E-01  1.3095E-02 -1.0980E-01  1.3546E-02



 n o d a l  s t r e s s  c a l c u l a t i o n s   f o r   t i m e  s t e p     1033   ( at time 9.96053E+01 )

 node (global)
          stress       sig-xx      sig-yy      sig-zz      sig-xy      sig-yz      sig-zx       plastic
                                                                                                 strain 
       1-
 mid.  surface     1.0899E+09  1.2269E+09 -2.0584E+09 -1.3096E+07  8.7276E+05 -5.4718E+07  1.4022E+00
       2-
 mid.  surface     3.0304E+08  4.8450E+08 -1.8910E+09  1.8121E+07  2.0193E+07 -5.6602E+07  1.1029E+00
       8-
 mid.  surface    -6.8843E+07  3.6834E+08  1.4905E+09  1.0739E+08 -1.0040E+08 -5.4200E+07 -1.0966E-02
       9-
 mid.  surface    -3.5806E+08 -6.3769E+07 -7.7569E+08  7.1269E+07  1.2528E+08 -3.8942E+07  6.7935E-01
      10-
 mid.  surface     1.0117E+09  1.0385E+09  5.3212E+08  3.3296E+07  1.7661E+08  8.5879E+07  5.2971E-01
      11-
 mid.  surface     2.2414E+08  4.0109E+08  3.8745E+08  1.3443E+08  1.1284E+08 -6.8622E+07  6.2201E-01
      12-
 mid.  surface     4.6053E+07 -1.3647E+08  4.5700E+08  1.1938E+08  2.1034E+06 -2.3015E+08  4.7121E-01
      17-
 mid.  surface    -1.8065E+07  3.0441E+08 -7.0930E+08 -2.1471E+06 -1.2559E+08 -1.1409E+08  4.7291E-01
      18-
 mid.  surface    -1.4676E+08 -3.1979E+07  1.3056E+09  2.6228E+07 -2.5262E+07 -3.2243E+07 -6.6116E-02
      19-
 mid.  surface     4.0504E+08  4.3195E+08 -4.5047E+08 -1.8405E+07 -5.1635E+07 -1.6475E+08  5.3871E-01
      20-
 mid.  surface    -4.6275E+08 -2.4324E+08 -1.9506E+09 -1.9140E+08 -1.7978E+08  9.0978E+07  5.8367E-01
      21-
 mid.  surface    -3.6141E+08 -3.4432E+08  6.6516E+07 -7.7690E+07  2.1518E+07  8.6278E+07 -1.9306E-01
      22-
 mid.  surface    -1.0978E+09 -1.2939E+09  1.2570E+09  5.4628E+07  5.3862E+07  2.5002E+07 -5.4772E-01
      23-
 mid.  surface    -4.2806E+08 -4.9677E+08 -9.8297E+07 -1.2181E+06  2.7251E+07  7.6713E+07  2.9410E-01
      52-
 mid.  surface     8.2447E+08  3.6184E+08 -1.0420E+09 -1.4536E+08  3.6809E+07  9.4875E+07  7.9691E-01
      53-
 mid.  surface    -4.9418E+07 -4.9690E+08 -6.7138E+08 -1.5393E+08 -8.5727E+07  4.2118E+07  3.9344E-01
     124-
 mid.  surface    -8.8435E+08 -8.6327E+08 -8.8849E+08 -2.1024E+07  1.0879E+07  2.0120E+08 -3.3216E-02
     125-
 mid.  surface    -7.0600E+07 -4.0975E+07 -1.0949E+09 -1.9485E+07 -1.2937E+06  1.4947E+08  3.0172E-01
     148-
 mid.  surface    -1.2860E+08 -4.6887E+08 -7.5495E+08 -2.5604E+06 -1.3172E+08 -5.8950E+07  5.6890E-01
     164-
 mid.  surface     4.9475E+07 -3.6928E+08 -1.8697E+09 -6.1181E+07 -6.1023E+06 -5.1894E+07  8.9889E-01



 n o d a l  s t r a i n  c a l c u l a t i o n s   f o r   t i m e  s t e p     1033   ( at time 9.96053E+01 )

 node (global)
          strain       eps-xx      eps-yy      eps-zz      eps-xy      eps-yz      eps-zx       
       1-
 mid.  surface     2.2422E-01  2.4750E-01 -3.9485E-01  2.3883E-02 -3.1110E-02  5.1088E-03
       2-
 mid.  surface     2.5678E-01  2.0394E-01 -5.1465E-01  1.0494E-03  1.7838E-02  4.0462E-02
       8-
 mid.  surface     2.1864E-01  2.3815E-01 -4.3053E-01  1.0404E-02 -6.2015E-02  1.4587E-02
       9-
 mid.  surface     1.9857E-01  1.4011E-01 -3.7818E-01  1.1215E-02 -1.2321E-01  9.5727E-03
      10-
 mid.  surface     1.9298E-01  1.2817E-01 -3.3902E-01 -8.2642E-03 -7.6948E-02 -2.0062E-03
      11-
 mid.  surface     1.6818E-01  1.8664E-01 -3.5994E-01 -1.4644E-02 -3.3374E-02  1.9141E-02
      12-
 mid.  surface     1.9070E-01  2.4681E-01 -3.7728E-01  3.0696E-02 -7.5800E-02 -8.5481E-03
      17-
 mid.  surface     1.7940E-01  2.2401E-01 -4.2842E-01 -3.3054E-02 -2.9648E-02 -2.1458E-03
      18-
 mid.  surface     2.1132E-01  2.0443E-01 -4.0247E-01 -8.1889E-03 -5.7389E-02 -4.1544E-04
      19-
 mid.  surface     2.0538E-01  2.2432E-01 -4.6676E-01  1.2994E-02 -2.3538E-02 -5.7630E-03
      20-
 mid.  surface     1.9360E-01  2.5082E-01 -4.6794E-01 -1.5409E-02  9.1844E-02  3.9997E-02
      21-
 mid.  surface     2.1348E-01  2.2634E-01 -5.0821E-01 -1.7323E-03  3.9434E-02 -9.6056E-03
      22-
 mid.  surface     2.0369E-01  2.4526E-01 -4.1236E-01  2.1335E-02 -2.9443E-02 -4.4178E-02
      23-
 mid.  surface     2.0436E-01  2.2066E-01 -4.1599E-01 -3.7936E-03  3.0033E-02 -2.0645E-02
      52-
 mid.  surface     2.0192E-01  1.8239E-01 -4.0706E-01 -1.0176E-03 -1.8080E-02 -9.8067E-03
      53-
 mid.  surface     2.0811E-01  2.3910E-01 -4.5291E-01 -6.7276E-03  1.1228E-01  2.7703E-02
     124-
 mid.  surface     1.7808E-01  2.2234E-01 -5.3562E-01 -2.0747E-02  8.6749E-02 -2.2523E-02
     125-
 mid.  surface     1.5054E-01  2.4442E-01 -4.1053E-01  8.3310E-03  1.0656E-01 -6.6193E-02
     148-
 mid.  surface     2.1618E-01  2.5979E-01 -4.8933E-01  9.8710E-04  8.3271E-02  3.7396E-02
     164-
 mid.  surface     2.0226E-01  1.8367E-01 -4.3104E-01  1.2913E-02 -1.0973E-01  1.5444E-02
