 LS-DYNA keyword deck by LS-PrePost                                      
                    ls-dyna smp d R14 R14.1.1s_1_ef50e1 date 06/16/2024
 single point constraint forces

 output at time =   0.00000E+00
 node=     1 local x,y,z forces =    0.0000E+00    0.0000E+00    0.0000E+00  setid=       0
 node=     1 local x,y,z moments=    0.0000E+00    0.0000E+00    0.0000E+00  setid=       0
 node=     2 local x,y,z forces =    0.0000E+00    0.0000E+00    0.0000E+00  setid=       0
 node=     2 local x,y,z moments=    0.0000E+00    0.0000E+00    0.0000E+00  setid=       0
 node=     3 local x,y,z forces =    0.0000E+00    0.0000E+00    0.0000E+00  setid=       0
 node=     3 local x,y,z moments=    0.0000E+00    0.0000E+00    0.0000E+00  setid=       0
 node=     4 local x,y,z forces =    0.0000E+00    0.0000E+00    0.0000E+00  setid=       0
 node=     4 local x,y,z moments=    0.0000E+00    0.0000E+00    0.0000E+00  setid=       0
 node=     5 local x,y,z forces =    0.0000E+00    0.0000E+00    0.0000E+00  setid=       0
 node=     5 local x,y,z moments=    0.0000E+00    0.0000E+00    0.0000E+00  setid=       0
 node=     6 local x,y,z forces =    0.0000E+00    0.0000E+00    0.0000E+00  setid=       0
 node=     6 local x,y,z moments=    0.0000E+00    0.0000E+00    0.0000E+00  setid=       0
 node=     7 local x,y,z forces =    0.0000E+00    0.0000E+00    0.0000E+00  setid=       0
 node=     7 local x,y,z moments=    0.0000E+00    0.0000E+00    0.0000E+00  setid=       0
 node=     8 local x,y,z forces =    0.0000E+00    0.0000E+00    0.0000E+00  setid=       0
 node=     8 local x,y,z moments=    0.0000E+00    0.0000E+00    0.0000E+00  setid=       0
 node=     9 local x,y,z forces =    0.0000E+00    0.0000E+00    0.0000E+00  setid=       0
 node=     9 local x,y,z moments=    0.0000E+00    0.0000E+00    0.0000E+00  setid=       0
 node=    10 local x,y,z forces =    0.0000E+00    0.0000E+00    0.0000E+00  setid=       0
 node=    10 local x,y,z moments=    0.0000E+00    0.0000E+00    0.0000E+00  setid=       0
 node=    11 local x,y,z forces =    0.0000E+00    0.0000E+00    0.0000E+00  setid=       0
 node=    11 local x,y,z moments=    0.0000E+00    0.0000E+00    0.0000E+00  setid=       0
 node=    12 local x,y,z forces =    0.0000E+00    0.0000E+00    0.0000E+00  setid=       0
 node=    12 local x,y,z moments=    0.0000E+00    0.0000E+00    0.0000E+00  setid=       0
 node=    13 local x,y,z forces =    0.0000E+00    0.0000E+00    0.0000E+00  setid=       0
 node=    13 local x,y,z moments=    0.0000E+00    0.0000E+00    0.0000E+00  setid=       0
 node=    14 local x,y,z forces =    0.0000E+00    0.0000E+00    0.0000E+00  setid=       0
 node=    14 local x,y,z moments=    0.0000E+00    0.0000E+00    0.0000E+00  setid=       0
 node=    15 local x,y,z forces =    0.0000E+00    0.0000E+00    0.0000E+00  setid=       0
 node=    15 local x,y,z moments=    0.0000E+00    0.0000E+00    0.0000E+00  setid=       0
 node=    16 local x,y,z forces =    0.0000E+00    0.0000E+00    0.0000E+00  setid=       0
 node=    16 local x,y,z moments=    0.0000E+00    0.0000E+00    0.0000E+00  setid=       0
 node=    17 local x,y,z forces =    0.0000E+00    0.0000E+00    0.0000E+00  setid=       0
 node=    17 local x,y,z moments=    0.0000E+00    0.0000E+00    0.0000E+00  setid=       0
 node=    18 local x,y,z forces =    0.0000E+00    0.0000E+00    0.0000E+00  setid=       0
 node=    18 local x,y,z moments=    0.0000E+00    0.0000E+00    0.0000E+00  setid=       0
 node=    19 local x,y,z forces =    0.0000E+00    0.0000E+00    0.0000E+00  setid=       0
 node=    19 local x,y,z moments=    0.0000E+00    0.0000E+00    0.0000E+00  setid=       0
 node=    69 local x,y,z forces =    0.0000E+00    0.0000E+00    0.0000E+00  setid=       0
 node=    69 local x,y,z moments=    0.0000E+00    0.0000E+00    0.0000E+00  setid=       0
 node=    70 local x,y,z forces =    0.0000E+00    0.0000E+00    0.0000E+00  setid=       0
 node=    70 local x,y,z moments=    0.0000E+00    0.0000E+00    0.0000E+00  setid=       0
 node=    71 local x,y,z forces =    0.0000E+00    0.0000E+00    0.0000E+00  setid=       0
 node=    71 local x,y,z moments=    0.0000E+00    0.0000E+00    0.0000E+00  setid=       0
 node=    73 local x,y,z forces =    0.0000E+00    0.0000E+00    0.0000E+00  setid=       0
 node=    73 local x,y,z moments=    0.0000E+00    0.0000E+00    0.0000E+00  setid=       0
 node=    74 local x,y,z forces =    0.0000E+00    0.0000E+00    0.0000E+00  setid=       0
 node=    74 local x,y,z moments=    0.0000E+00    0.0000E+00    0.0000E+00  setid=       0
 node=    75 local x,y,z forces =    0.0000E+00    0.0000E+00    0.0000E+00  setid=       0
 node=    75 local x,y,z moments=    0.0000E+00    0.0000E+00    0.0000E+00  setid=       0
 node=    77 local x,y,z forces =    0.0000E+00    0.0000E+00    0.0000E+00  setid=       0
 node=    77 local x,y,z moments=    0.0000E+00    0.0000E+00    0.0000E+00  setid=       0
 node=    78 local x,y,z forces =    0.0000E+00    0.0000E+00    0.0000E+00  setid=       0
 node=    78 local x,y,z moments=    0.0000E+00    0.0000E+00    0.0000E+00  setid=       0
 node=    79 local x,y,z forces =    0.0000E+00    0.0000E+00    0.0000E+00  setid=       0
 node=    79 local x,y,z moments=    0.0000E+00    0.0000E+00    0.0000E+00  setid=       0
 node=    81 local x,y,z forces =    0.0000E+00    0.0000E+00    0.0000E+00  setid=       0
 node=    81 local x,y,z moments=    0.0000E+00    0.0000E+00    0.0000E+00  setid=       0
 node=    82 local x,y,z forces =    0.0000E+00    0.0000E+00    0.0000E+00  setid=       0
 node=    82 local x,y,z moments=    0.0000E+00    0.0000E+00    0.0000E+00  setid=       0
 node=    83 local x,y,z forces =    0.0000E+00    0.0000E+00    0.0000E+00  setid=       0
 node=    83 local x,y,z moments=    0.0000E+00    0.0000E+00    0.0000E+00  setid=       0
 node=    85 local x,y,z forces =    0.0000E+00    0.0000E+00    0.0000E+00  setid=       0
 node=    85 local x,y,z moments=    0.0000E+00    0.0000E+00    0.0000E+00  setid=       0
 node=    86 local x,y,z forces =    0.0000E+00    0.0000E+00    0.0000E+00  setid=       0
 node=    86 local x,y,z moments=    0.0000E+00    0.0000E+00    0.0000E+00  setid=       0
 node=    87 local x,y,z forces =    0.0000E+00    0.0000E+00    0.0000E+00  setid=       0
 node=    87 local x,y,z moments=    0.0000E+00    0.0000E+00    0.0000E+00  setid=       0
 node=    89 local x,y,z forces =    0.0000E+00    0.0000E+00    0.0000E+00  setid=       0
 node=    89 local x,y,z moments=    0.0000E+00    0.0000E+00    0.0000E+00  setid=       0
 node=    90 local x,y,z forces =    0.0000E+00    0.0000E+00    0.0000E+00  setid=       0
 node=    90 local x,y,z moments=    0.0000E+00    0.0000E+00    0.0000E+00  setid=       0
 node=    91 local x,y,z forces =    0.0000E+00    0.0000E+00    0.0000E+00  setid=       0
 node=    91 local x,y,z moments=    0.0000E+00    0.0000E+00    0.0000E+00  setid=       0
 node=    93 local x,y,z forces =    0.0000E+00    0.0000E+00    0.0000E+00  setid=       0
 node=    93 local x,y,z moments=    0.0000E+00    0.0000E+00    0.0000E+00  setid=       0
 node=    94 local x,y,z forces =    0.0000E+00    0.0000E+00    0.0000E+00  setid=       0
 node=    94 local x,y,z moments=    0.0000E+00    0.0000E+00    0.0000E+00  setid=       0
 node=    95 local x,y,z forces =    0.0000E+00    0.0000E+00    0.0000E+00  setid=       0
 node=    95 local x,y,z moments=    0.0000E+00    0.0000E+00    0.0000E+00  setid=       0
 node=    97 local x,y,z forces =    0.0000E+00    0.0000E+00    0.0000E+00  setid=       0
 node=    97 local x,y,z moments=    0.0000E+00    0.0000E+00    0.0000E+00  setid=       0
 node=    98 local x,y,z forces =    0.0000E+00    0.0000E+00    0.0000E+00  setid=       0
 node=    98 local x,y,z moments=    0.0000E+00    0.0000E+00    0.0000E+00  setid=       0
 node=    99 local x,y,z forces =    0.0000E+00    0.0000E+00    0.0000E+00  setid=       0
 node=    99 local x,y,z moments=    0.0000E+00    0.0000E+00    0.0000E+00  setid=       0
 node=   124 local x,y,z forces =    0.0000E+00    0.0000E+00    0.0000E+00  setid=       0
 node=   124 local x,y,z moments=    0.0000E+00    0.0000E+00    0.0000E+00  setid=       0
 node=   125 local x,y,z forces =    0.0000E+00    0.0000E+00    0.0000E+00  setid=       0
 node=   125 local x,y,z moments=    0.0000E+00    0.0000E+00    0.0000E+00  setid=       0
 node=   126 local x,y,z forces =    0.0000E+00    0.0000E+00    0.0000E+00  setid=       0
 node=   126 local x,y,z moments=    0.0000E+00    0.0000E+00    0.0000E+00  setid=       0
 node=   127 local x,y,z forces =    0.0000E+00    0.0000E+00    0.0000E+00  setid=       0
 node=   127 local x,y,z moments=    0.0000E+00    0.0000E+00    0.0000E+00  setid=       0
 node=   128 local x,y,z forces =    0.0000E+00    0.0000E+00    0.0000E+00  setid=       0
 node=   128 local x,y,z moments=    0.0000E+00    0.0000E+00    0.0000E+00  setid=       0
 node=   129 local x,y,z forces =    0.0000E+00    0.0000E+00    0.0000E+00  setid=       0
 node=   129 local x,y,z moments=    0.0000E+00    0.0000E+00    0.0000E+00  setid=       0
 node=   130 local x,y,z forces =    0.0000E+00    0.0000E+00    0.0000E+00  setid=       0
 node=   130 local x,y,z moments=    0.0000E+00    0.0000E+00    0.0000E+00  setid=       0
 node=   131 local x,y,z forces =    0.0000E+00    0.0000E+00    0.0000E+00  setid=       0
 node=   131 local x,y,z moments=    0.0000E+00    0.0000E+00    0.0000E+00  setid=       0
 node=   132 local x,y,z forces =    0.0000E+00    0.0000E+00    0.0000E+00  setid=       0
 node=   132 local x,y,z moments=    0.0000E+00    0.0000E+00    0.0000E+00  setid=       0
 node=   133 local x,y,z forces =    0.0000E+00    0.0000E+00    0.0000E+00  setid=       0
 node=   133 local x,y,z moments=    0.0000E+00    0.0000E+00    0.0000E+00  setid=       0
 node=   134 local x,y,z forces =    0.0000E+00    0.0000E+00    0.0000E+00  setid=       0
 node=   134 local x,y,z moments=    0.0000E+00    0.0000E+00    0.0000E+00  setid=       0
 node=   135 local x,y,z forces =    0.0000E+00    0.0000E+00    0.0000E+00  setid=       0
 node=   135 local x,y,z moments=    0.0000E+00    0.0000E+00    0.0000E+00  setid=       0
 node=   136 local x,y,z forces =    0.0000E+00    0.0000E+00    0.0000E+00  setid=       0
 node=   136 local x,y,z moments=    0.0000E+00    0.0000E+00    0.0000E+00  setid=       0
 node=   137 local x,y,z forces =    0.0000E+00    0.0000E+00    0.0000E+00  setid=       0
 node=   137 local x,y,z moments=    0.0000E+00    0.0000E+00    0.0000E+00  setid=       0
 node=   138 local x,y,z forces =    0.0000E+00    0.0000E+00    0.0000E+00  setid=       0
 node=   138 local x,y,z moments=    0.0000E+00    0.0000E+00    0.0000E+00  setid=       0
 node=   139 local x,y,z forces =    0.0000E+00    0.0000E+00    0.0000E+00  setid=       0
 node=   139 local x,y,z moments=    0.0000E+00    0.0000E+00    0.0000E+00  setid=       0
 node=   140 local x,y,z forces =    0.0000E+00    0.0000E+00    0.0000E+00  setid=       0
 node=   140 local x,y,z moments=    0.0000E+00    0.0000E+00    0.0000E+00  setid=       0
 node=   141 local x,y,z forces =    0.0000E+00    0.0000E+00    0.0000E+00  setid=       0
 node=   141 local x,y,z moments=    0.0000E+00    0.0000E+00    0.0000E+00  setid=       0
 node=   142 local x,y,z forces =    0.0000E+00    0.0000E+00    0.0000E+00  setid=       0
 node=   142 local x,y,z moments=    0.0000E+00    0.0000E+00    0.0000E+00  setid=       0
 node=   143 local x,y,z forces =    0.0000E+00    0.0000E+00    0.0000E+00  setid=       0
 node=   143 local x,y,z moments=    0.0000E+00    0.0000E+00    0.0000E+00  setid=       0
 node=   144 local x,y,z forces =    0.0000E+00    0.0000E+00    0.0000E+00  setid=       0
 node=   144 local x,y,z moments=    0.0000E+00    0.0000E+00    0.0000E+00  setid=       0
 node=   145 local x,y,z forces =    0.0000E+00    0.0000E+00    0.0000E+00  setid=       0
 node=   145 local x,y,z moments=    0.0000E+00    0.0000E+00    0.0000E+00  setid=       0
 node=   146 local x,y,z forces =    0.0000E+00    0.0000E+00    0.0000E+00  setid=       0
 node=   146 local x,y,z moments=    0.0000E+00    0.0000E+00    0.0000E+00  setid=       0
 node=   147 local x,y,z forces =    0.0000E+00    0.0000E+00    0.0000E+00  setid=       0
 node=   147 local x,y,z moments=    0.0000E+00    0.0000E+00    0.0000E+00  setid=       0
 node=   148 local x,y,z forces =    0.0000E+00    0.0000E+00    0.0000E+00  setid=       0
 node=   148 local x,y,z moments=    0.0000E+00    0.0000E+00    0.0000E+00  setid=       0
 node=   149 local x,y,z forces =    0.0000E+00    0.0000E+00    0.0000E+00  setid=       0
 node=   149 local x,y,z moments=    0.0000E+00    0.0000E+00    0.0000E+00  setid=       0
 node=   150 local x,y,z forces =    0.0000E+00    0.0000E+00    0.0000E+00  setid=       0
 node=   150 local x,y,z moments=    0.0000E+00    0.0000E+00    0.0000E+00  setid=       0
 node=   151 local x,y,z forces =    0.0000E+00    0.0000E+00    0.0000E+00  setid=       0
 node=   151 local x,y,z moments=    0.0000E+00    0.0000E+00    0.0000E+00  setid=       0
 node=   152 local x,y,z forces =    0.0000E+00    0.0000E+00    0.0000E+00  setid=       0
 node=   152 local x,y,z moments=    0.0000E+00    0.0000E+00    0.0000E+00  setid=       0
 node=   153 local x,y,z forces =    0.0000E+00    0.0000E+00    0.0000E+00  setid=       0
 node=   153 local x,y,z moments=    0.0000E+00    0.0000E+00    0.0000E+00  setid=       0
 node=   154 local x,y,z forces =    0.0000E+00    0.0000E+00    0.0000E+00  setid=       0
 node=   154 local x,y,z moments=    0.0000E+00    0.0000E+00    0.0000E+00  setid=       0
 node=   155 local x,y,z forces =    0.0000E+00    0.0000E+00    0.0000E+00  setid=       0
 node=   155 local x,y,z moments=    0.0000E+00    0.0000E+00    0.0000E+00  setid=       0
 node=   156 local x,y,z forces =    0.0000E+00    0.0000E+00    0.0000E+00  setid=       0
 node=   156 local x,y,z moments=    0.0000E+00    0.0000E+00    0.0000E+00  setid=       0
 node=   157 local x,y,z forces =    0.0000E+00    0.0000E+00    0.0000E+00  setid=       0
 node=   157 local x,y,z moments=    0.0000E+00    0.0000E+00    0.0000E+00  setid=       0
 node=   158 local x,y,z forces =    0.0000E+00    0.0000E+00    0.0000E+00  setid=       0
 node=   158 local x,y,z moments=    0.0000E+00    0.0000E+00    0.0000E+00  setid=       0
 node=   159 local x,y,z forces =    0.0000E+00    0.0000E+00    0.0000E+00  setid=       0
 node=   159 local x,y,z moments=    0.0000E+00    0.0000E+00    0.0000E+00  setid=       0
 node=   160 local x,y,z forces =    0.0000E+00    0.0000E+00    0.0000E+00  setid=       0
 node=   160 local x,y,z moments=    0.0000E+00    0.0000E+00    0.0000E+00  setid=       0
 node=   161 local x,y,z forces =    0.0000E+00    0.0000E+00    0.0000E+00  setid=       0
 node=   161 local x,y,z moments=    0.0000E+00    0.0000E+00    0.0000E+00  setid=       0
 node=   162 local x,y,z forces =    0.0000E+00    0.0000E+00    0.0000E+00  setid=       0
 node=   162 local x,y,z moments=    0.0000E+00    0.0000E+00    0.0000E+00  setid=       0
 node=   163 local x,y,z forces =    0.0000E+00    0.0000E+00    0.0000E+00  setid=       0
 node=   163 local x,y,z moments=    0.0000E+00    0.0000E+00    0.0000E+00  setid=       0
 node=   164 local x,y,z forces =    0.0000E+00    0.0000E+00    0.0000E+00  setid=       0
 node=   164 local x,y,z moments=    0.0000E+00    0.0000E+00    0.0000E+00  setid=       0
 node=   165 local x,y,z forces =    0.0000E+00    0.0000E+00    0.0000E+00  setid=       0
 node=   165 local x,y,z moments=    0.0000E+00    0.0000E+00    0.0000E+00  setid=       0
 node=   166 local x,y,z forces =    0.0000E+00    0.0000E+00    0.0000E+00  setid=       0
 node=   166 local x,y,z moments=    0.0000E+00    0.0000E+00    0.0000E+00  setid=       0
 node=   167 local x,y,z forces =    0.0000E+00    0.0000E+00    0.0000E+00  setid=       0
 node=   167 local x,y,z moments=    0.0000E+00    0.0000E+00    0.0000E+00  setid=       0
 node=   168 local x,y,z forces =    0.0000E+00    0.0000E+00    0.0000E+00  setid=       0
 node=   168 local x,y,z moments=    0.0000E+00    0.0000E+00    0.0000E+00  setid=       0
 node=   169 local x,y,z forces =    0.0000E+00    0.0000E+00    0.0000E+00  setid=       0
 node=   169 local x,y,z moments=    0.0000E+00    0.0000E+00    0.0000E+00  setid=       0
 node=   170 local x,y,z forces =    0.0000E+00    0.0000E+00    0.0000E+00  setid=       0
 node=   170 local x,y,z moments=    0.0000E+00    0.0000E+00    0.0000E+00  setid=       0
 node=   171 local x,y,z forces =    0.0000E+00    0.0000E+00    0.0000E+00  setid=       0
 node=   171 local x,y,z moments=    0.0000E+00    0.0000E+00    0.0000E+00  setid=       0
 node=   172 local x,y,z forces =    0.0000E+00    0.0000E+00    0.0000E+00  setid=       0
 node=   172 local x,y,z moments=    0.0000E+00    0.0000E+00    0.0000E+00  setid=       0
 node=   175 local x,y,z forces =    0.0000E+00    0.0000E+00    0.0000E+00  setid=       0
 node=   175 local x,y,z moments=    0.0000E+00    0.0000E+00    0.0000E+00  setid=       0
 node=   176 local x,y,z forces =    0.0000E+00    0.0000E+00    0.0000E+00  setid=       0
 node=   176 local x,y,z moments=    0.0000E+00    0.0000E+00    0.0000E+00  setid=       0
 node=   179 local x,y,z forces =    0.0000E+00    0.0000E+00    0.0000E+00  setid=       0
 node=   179 local x,y,z moments=    0.0000E+00    0.0000E+00    0.0000E+00  setid=       0
 node=   180 local x,y,z forces =    0.0000E+00    0.0000E+00    0.0000E+00  setid=       0
 node=   180 local x,y,z moments=    0.0000E+00    0.0000E+00    0.0000E+00  setid=       0
 node=   183 local x,y,z forces =    0.0000E+00    0.0000E+00    0.0000E+00  setid=       0
 node=   183 local x,y,z moments=    0.0000E+00    0.0000E+00    0.0000E+00  setid=       0
 node=   184 local x,y,z forces =    0.0000E+00    0.0000E+00    0.0000E+00  setid=       0
 node=   184 local x,y,z moments=    0.0000E+00    0.0000E+00    0.0000E+00  setid=       0
 node=   187 local x,y,z forces =    0.0000E+00    0.0000E+00    0.0000E+00  setid=       0
 node=   187 local x,y,z moments=    0.0000E+00    0.0000E+00    0.0000E+00  setid=       0
 node=   188 local x,y,z forces =    0.0000E+00    0.0000E+00    0.0000E+00  setid=       0
 node=   188 local x,y,z moments=    0.0000E+00    0.0000E+00    0.0000E+00  setid=       0
 node=   191 local x,y,z forces =    0.0000E+00    0.0000E+00    0.0000E+00  setid=       0
 node=   191 local x,y,z moments=    0.0000E+00    0.0000E+00    0.0000E+00  setid=       0
 node=   192 local x,y,z forces =    0.0000E+00    0.0000E+00    0.0000E+00  setid=       0
 node=   192 local x,y,z moments=    0.0000E+00    0.0000E+00    0.0000E+00  setid=       0
 node=   195 local x,y,z forces =    0.0000E+00    0.0000E+00    0.0000E+00  setid=       0
 node=   195 local x,y,z moments=    0.0000E+00    0.0000E+00    0.0000E+00  setid=       0
 node=   196 local x,y,z forces =    0.0000E+00    0.0000E+00    0.0000E+00  setid=       0
 node=   196 local x,y,z moments=    0.0000E+00    0.0000E+00    0.0000E+00  setid=       0
 node=   199 local x,y,z forces =    0.0000E+00    0.0000E+00    0.0000E+00  setid=       0
 node=   199 local x,y,z moments=    0.0000E+00    0.0000E+00    0.0000E+00  setid=       0
 node=   200 local x,y,z forces =    0.0000E+00    0.0000E+00    0.0000E+00  setid=       0
 node=   200 local x,y,z moments=    0.0000E+00    0.0000E+00    0.0000E+00  setid=       0
 node=   203 local x,y,z forces =    0.0000E+00    0.0000E+00    0.0000E+00  setid=       0
 node=   203 local x,y,z moments=    0.0000E+00    0.0000E+00    0.0000E+00  setid=       0
 node=   204 local x,y,z forces =    0.0000E+00    0.0000E+00    0.0000E+00  setid=       0
 node=   204 local x,y,z moments=    0.0000E+00    0.0000E+00    0.0000E+00  setid=       0
 node=   207 local x,y,z forces =    0.0000E+00    0.0000E+00    0.0000E+00  setid=       0
 node=   207 local x,y,z moments=    0.0000E+00    0.0000E+00    0.0000E+00  setid=       0
 node=   208 local x,y,z forces =    0.0000E+00    0.0000E+00    0.0000E+00  setid=       0
 node=   208 local x,y,z moments=    0.0000E+00    0.0000E+00    0.0000E+00  setid=       0
 node=   211 local x,y,z forces =    0.0000E+00    0.0000E+00    0.0000E+00  setid=       0
 node=   211 local x,y,z moments=    0.0000E+00    0.0000E+00    0.0000E+00  setid=       0
 node=   212 local x,y,z forces =    0.0000E+00    0.0000E+00    0.0000E+00  setid=       0
 node=   212 local x,y,z moments=    0.0000E+00    0.0000E+00    0.0000E+00  setid=       0
 node=   215 local x,y,z forces =    0.0000E+00    0.0000E+00    0.0000E+00  setid=       0
 node=   215 local x,y,z moments=    0.0000E+00    0.0000E+00    0.0000E+00  setid=       0
 node=   216 local x,y,z forces =    0.0000E+00    0.0000E+00    0.0000E+00  setid=       0
 node=   216 local x,y,z moments=    0.0000E+00    0.0000E+00    0.0000E+00  setid=       0
 node=   219 local x,y,z forces =    0.0000E+00    0.0000E+00    0.0000E+00  setid=       0
 node=   219 local x,y,z moments=    0.0000E+00    0.0000E+00    0.0000E+00  setid=       0
 node=   220 local x,y,z forces =    0.0000E+00    0.0000E+00    0.0000E+00  setid=       0
 node=   220 local x,y,z moments=    0.0000E+00    0.0000E+00    0.0000E+00  setid=       0
 node=   223 local x,y,z forces =    0.0000E+00    0.0000E+00    0.0000E+00  setid=       0
 node=   223 local x,y,z moments=    0.0000E+00    0.0000E+00    0.0000E+00  setid=       0
 node=   225 local x,y,z forces =    0.0000E+00    0.0000E+00    0.0000E+00  setid=       0
 node=   225 local x,y,z moments=    0.0000E+00    0.0000E+00    0.0000E+00  setid=       0
 node=   227 local x,y,z forces =    0.0000E+00    0.0000E+00    0.0000E+00  setid=       0
 node=   227 local x,y,z moments=    0.0000E+00    0.0000E+00    0.0000E+00  setid=       0
 node=   229 local x,y,z forces =    0.0000E+00    0.0000E+00    0.0000E+00  setid=       0
 node=   229 local x,y,z moments=    0.0000E+00    0.0000E+00    0.0000E+00  setid=       0
 node=   231 local x,y,z forces =    0.0000E+00    0.0000E+00    0.0000E+00  setid=       0
 node=   231 local x,y,z moments=    0.0000E+00    0.0000E+00    0.0000E+00  setid=       0
 node=   233 local x,y,z forces =    0.0000E+00    0.0000E+00    0.0000E+00  setid=       0
 node=   233 local x,y,z moments=    0.0000E+00    0.0000E+00    0.0000E+00  setid=       0
 node=   235 local x,y,z forces =    0.0000E+00    0.0000E+00    0.0000E+00  setid=       0
 node=   235 local x,y,z moments=    0.0000E+00    0.0000E+00    0.0000E+00  setid=       0
 node=   237 local x,y,z forces =    0.0000E+00    0.0000E+00    0.0000E+00  setid=       0
 node=   237 local x,y,z moments=    0.0000E+00    0.0000E+00    0.0000E+00  setid=       0
 node=   239 local x,y,z forces =    0.0000E+00    0.0000E+00    0.0000E+00  setid=       0
 node=   239 local x,y,z moments=    0.0000E+00    0.0000E+00    0.0000E+00  setid=       0
 node=   241 local x,y,z forces =    0.0000E+00    0.0000E+00    0.0000E+00  setid=       0
 node=   241 local x,y,z moments=    0.0000E+00    0.0000E+00    0.0000E+00  setid=       0
 node=   243 local x,y,z forces =    0.0000E+00    0.0000E+00    0.0000E+00  setid=       0
 node=   243 local x,y,z moments=    0.0000E+00    0.0000E+00    0.0000E+00  setid=       0
 node=   245 local x,y,z forces =    0.0000E+00    0.0000E+00    0.0000E+00  setid=       0
 node=   245 local x,y,z moments=    0.0000E+00    0.0000E+00    0.0000E+00  setid=       0
 node=   247 local x,y,z forces =    0.0000E+00    0.0000E+00    0.0000E+00  setid=       0
 node=   247 local x,y,z moments=    0.0000E+00    0.0000E+00    0.0000E+00  setid=       0
 node=   249 local x,y,z forces =    0.0000E+00    0.0000E+00    0.0000E+00  setid=       0
 node=   249 local x,y,z moments=    0.0000E+00    0.0000E+00    0.0000E+00  setid=       0
 node=   317 local x,y,z forces =    0.0000E+00    0.0000E+00    0.0000E+00  setid=       0
 node=   317 local x,y,z moments=    0.0000E+00    0.0000E+00    0.0000E+00  setid=       0
 node=   318 local x,y,z forces =    0.0000E+00    0.0000E+00    0.0000E+00  setid=       0
 node=   318 local x,y,z moments=    0.0000E+00    0.0000E+00    0.0000E+00  setid=       0
 node=   321 local x,y,z forces =    0.0000E+00    0.0000E+00    0.0000E+00  setid=       0
 node=   321 local x,y,z moments=    0.0000E+00    0.0000E+00    0.0000E+00  setid=       0
 node=   322 local x,y,z forces =    0.0000E+00    0.0000E+00    0.0000E+00  setid=       0
 node=   322 local x,y,z moments=    0.0000E+00    0.0000E+00    0.0000E+00  setid=       0
 node=   325 local x,y,z forces =    0.0000E+00    0.0000E+00    0.0000E+00  setid=       0
 node=   325 local x,y,z moments=    0.0000E+00    0.0000E+00    0.0000E+00  setid=       0
 node=   326 local x,y,z forces =    0.0000E+00    0.0000E+00    0.0000E+00  setid=       0
 node=   326 local x,y,z moments=    0.0000E+00    0.0000E+00    0.0000E+00  setid=       0
 node=   329 local x,y,z forces =    0.0000E+00    0.0000E+00    0.0000E+00  setid=       0
 node=   329 local x,y,z moments=    0.0000E+00    0.0000E+00    0.0000E+00  setid=       0
 node=   330 local x,y,z forces =    0.0000E+00    0.0000E+00    0.0000E+00  setid=       0
 node=   330 local x,y,z moments=    0.0000E+00    0.0000E+00    0.0000E+00  setid=       0
 node=   333 local x,y,z forces =    0.0000E+00    0.0000E+00    0.0000E+00  setid=       0
 node=   333 local x,y,z moments=    0.0000E+00    0.0000E+00    0.0000E+00  setid=       0
 node=   334 local x,y,z forces =    0.0000E+00    0.0000E+00    0.0000E+00  setid=       0
 node=   334 local x,y,z moments=    0.0000E+00    0.0000E+00    0.0000E+00  setid=       0
 node=   337 local x,y,z forces =    0.0000E+00    0.0000E+00    0.0000E+00  setid=       0
 node=   337 local x,y,z moments=    0.0000E+00    0.0000E+00    0.0000E+00  setid=       0
 node=   338 local x,y,z forces =    0.0000E+00    0.0000E+00    0.0000E+00  setid=       0
 node=   338 local x,y,z moments=    0.0000E+00    0.0000E+00    0.0000E+00  setid=       0
 node=   341 local x,y,z forces =    0.0000E+00    0.0000E+00    0.0000E+00  setid=       0
 node=   341 local x,y,z moments=    0.0000E+00    0.0000E+00    0.0000E+00  setid=       0
 node=   342 local x,y,z forces =    0.0000E+00    0.0000E+00    0.0000E+00  setid=       0
 node=   342 local x,y,z moments=    0.0000E+00    0.0000E+00    0.0000E+00  setid=       0
 node=   345 local x,y,z forces =    0.0000E+00    0.0000E+00    0.0000E+00  setid=       0
 node=   345 local x,y,z moments=    0.0000E+00    0.0000E+00    0.0000E+00  setid=       0
 node=   346 local x,y,z forces =    0.0000E+00    0.0000E+00    0.0000E+00  setid=       0
 node=   346 local x,y,z moments=    0.0000E+00    0.0000E+00    0.0000E+00  setid=       0
 node=   349 local x,y,z forces =    0.0000E+00    0.0000E+00    0.0000E+00  setid=       0
 node=   349 local x,y,z moments=    0.0000E+00    0.0000E+00    0.0000E+00  setid=       0
 node=   350 local x,y,z forces =    0.0000E+00    0.0000E+00    0.0000E+00  setid=       0
 node=   350 local x,y,z moments=    0.0000E+00    0.0000E+00    0.0000E+00  setid=       0
 node=   353 local x,y,z forces =    0.0000E+00    0.0000E+00    0.0000E+00  setid=       0
 node=   353 local x,y,z moments=    0.0000E+00    0.0000E+00    0.0000E+00  setid=       0
 node=   354 local x,y,z forces =    0.0000E+00    0.0000E+00    0.0000E+00  setid=       0
 node=   354 local x,y,z moments=    0.0000E+00    0.0000E+00    0.0000E+00  setid=       0
 node=   357 local x,y,z forces =    0.0000E+00    0.0000E+00    0.0000E+00  setid=       0
 node=   357 local x,y,z moments=    0.0000E+00    0.0000E+00    0.0000E+00  setid=       0
 node=   358 local x,y,z forces =    0.0000E+00    0.0000E+00    0.0000E+00  setid=       0
 node=   358 local x,y,z moments=    0.0000E+00    0.0000E+00    0.0000E+00  setid=       0
 node=   361 local x,y,z forces =    0.0000E+00    0.0000E+00    0.0000E+00  setid=       0
 node=   361 local x,y,z moments=    0.0000E+00    0.0000E+00    0.0000E+00  setid=       0
 node=   362 local x,y,z forces =    0.0000E+00    0.0000E+00    0.0000E+00  setid=       0
 node=   362 local x,y,z moments=    0.0000E+00    0.0000E+00    0.0000E+00  setid=       0
 node=   365 local x,y,z forces =    0.0000E+00    0.0000E+00    0.0000E+00  setid=       0
 node=   365 local x,y,z moments=    0.0000E+00    0.0000E+00    0.0000E+00  setid=       0
 node=   366 local x,y,z forces =    0.0000E+00    0.0000E+00    0.0000E+00  setid=       0
 node=   366 local x,y,z moments=    0.0000E+00    0.0000E+00    0.0000E+00  setid=       0
 node=   367 local x,y,z forces =    0.0000E+00    0.0000E+00    0.0000E+00  setid=       0
 node=   367 local x,y,z moments=    0.0000E+00    0.0000E+00    0.0000E+00  setid=       0
 node=   368 local x,y,z forces =    0.0000E+00    0.0000E+00    0.0000E+00  setid=       0
 node=   368 local x,y,z moments=    0.0000E+00    0.0000E+00    0.0000E+00  setid=       0
 node=   369 local x,y,z forces =    0.0000E+00    0.0000E+00    0.0000E+00  setid=       0
 node=   369 local x,y,z moments=    0.0000E+00    0.0000E+00    0.0000E+00  setid=       0
 node=   370 local x,y,z forces =    0.0000E+00    0.0000E+00    0.0000E+00  setid=       0
 node=   370 local x,y,z moments=    0.0000E+00    0.0000E+00    0.0000E+00  setid=       0
 node=   371 local x,y,z forces =    0.0000E+00    0.0000E+00    0.0000E+00  setid=       0
 node=   371 local x,y,z moments=    0.0000E+00    0.0000E+00    0.0000E+00  setid=       0
 node=   372 local x,y,z forces =    0.0000E+00    0.0000E+00    0.0000E+00  setid=       0
 node=   372 local x,y,z moments=    0.0000E+00    0.0000E+00    0.0000E+00  setid=       0
 node=   373 local x,y,z forces =    0.0000E+00    0.0000E+00    0.0000E+00  setid=       0
 node=   373 local x,y,z moments=    0.0000E+00    0.0000E+00    0.0000E+00  setid=       0
 node=   374 local x,y,z forces =    0.0000E+00    0.0000E+00    0.0000E+00  setid=       0
 node=   374 local x,y,z moments=    0.0000E+00    0.0000E+00    0.0000E+00  setid=       0
 node=   375 local x,y,z forces =    0.0000E+00    0.0000E+00    0.0000E+00  setid=       0
 node=   375 local x,y,z moments=    0.0000E+00    0.0000E+00    0.0000E+00  setid=       0
 node=   376 local x,y,z forces =    0.0000E+00    0.0000E+00    0.0000E+00  setid=       0
 node=   376 local x,y,z moments=    0.0000E+00    0.0000E+00    0.0000E+00  setid=       0
 node=   377 local x,y,z forces =    0.0000E+00    0.0000E+00    0.0000E+00  setid=       0
 node=   377 local x,y,z moments=    0.0000E+00    0.0000E+00    0.0000E+00  setid=       0
 node=   378 local x,y,z forces =    0.0000E+00    0.0000E+00    0.0000E+00  setid=       0
 node=   378 local x,y,z moments=    0.0000E+00    0.0000E+00    0.0000E+00  setid=       0
 node=   379 local x,y,z forces =    0.0000E+00    0.0000E+00    0.0000E+00  setid=       0
 node=   379 local x,y,z moments=    0.0000E+00    0.0000E+00    0.0000E+00  setid=       0
 node=   380 local x,y,z forces =    0.0000E+00    0.0000E+00    0.0000E+00  setid=       0
 node=   380 local x,y,z moments=    0.0000E+00    0.0000E+00    0.0000E+00  setid=       0
 node=   381 local x,y,z forces =    0.0000E+00    0.0000E+00    0.0000E+00  setid=       0
 node=   381 local x,y,z moments=    0.0000E+00    0.0000E+00    0.0000E+00  setid=       0
 node=   382 local x,y,z forces =    0.0000E+00    0.0000E+00    0.0000E+00  setid=       0
 node=   382 local x,y,z moments=    0.0000E+00    0.0000E+00    0.0000E+00  setid=       0
 node=   383 local x,y,z forces =    0.0000E+00    0.0000E+00    0.0000E+00  setid=       0
 node=   383 local x,y,z moments=    0.0000E+00    0.0000E+00    0.0000E+00  setid=       0
 node=   384 local x,y,z forces =    0.0000E+00    0.0000E+00    0.0000E+00  setid=       0
 node=   384 local x,y,z moments=    0.0000E+00    0.0000E+00    0.0000E+00  setid=       0
 node=   385 local x,y,z forces =    0.0000E+00    0.0000E+00    0.0000E+00  setid=       0
 node=   385 local x,y,z moments=    0.0000E+00    0.0000E+00    0.0000E+00  setid=       0
 node=   386 local x,y,z forces =    0.0000E+00    0.0000E+00    0.0000E+00  setid=       0
 node=   386 local x,y,z moments=    0.0000E+00    0.0000E+00    0.0000E+00  setid=       0
 node=   387 local x,y,z forces =    0.0000E+00    0.0000E+00    0.0000E+00  setid=       0
 node=   387 local x,y,z moments=    0.0000E+00    0.0000E+00    0.0000E+00  setid=       0
 node=   388 local x,y,z forces =    0.0000E+00    0.0000E+00    0.0000E+00  setid=       0
 node=   388 local x,y,z moments=    0.0000E+00    0.0000E+00    0.0000E+00  setid=       0
 node=   389 local x,y,z forces =    0.0000E+00    0.0000E+00    0.0000E+00  setid=       0
 node=   389 local x,y,z moments=    0.0000E+00    0.0000E+00    0.0000E+00  setid=       0
 node=   390 local x,y,z forces =    0.0000E+00    0.0000E+00    0.0000E+00  setid=       0
 node=   390 local x,y,z moments=    0.0000E+00    0.0000E+00    0.0000E+00  setid=       0
 node=   391 local x,y,z forces =    0.0000E+00    0.0000E+00    0.0000E+00  setid=       0
 node=   391 local x,y,z moments=    0.0000E+00    0.0000E+00    0.0000E+00  setid=       0
 node=   392 local x,y,z forces =    0.0000E+00    0.0000E+00    0.0000E+00  setid=       0
 node=   392 local x,y,z moments=    0.0000E+00    0.0000E+00    0.0000E+00  setid=       0
 node=   393 local x,y,z forces =    0.0000E+00    0.0000E+00    0.0000E+00  setid=       0
 node=   393 local x,y,z moments=    0.0000E+00    0.0000E+00    0.0000E+00  setid=       0
 node=   394 local x,y,z forces =    0.0000E+00    0.0000E+00    0.0000E+00  setid=       0
 node=   394 local x,y,z moments=    0.0000E+00    0.0000E+00    0.0000E+00  setid=       0
 node=   395 local x,y,z forces =    0.0000E+00    0.0000E+00    0.0000E+00  setid=       0
 node=   395 local x,y,z moments=    0.0000E+00    0.0000E+00    0.0000E+00  setid=       0
 node=   396 local x,y,z forces =    0.0000E+00    0.0000E+00    0.0000E+00  setid=       0
 node=   396 local x,y,z moments=    0.0000E+00    0.0000E+00    0.0000E+00  setid=       0
 node=   397 local x,y,z forces =    0.0000E+00    0.0000E+00    0.0000E+00  setid=       0
 node=   397 local x,y,z moments=    0.0000E+00    0.0000E+00    0.0000E+00  setid=       0
 node=   398 local x,y,z forces =    0.0000E+00    0.0000E+00    0.0000E+00  setid=       0
 node=   398 local x,y,z moments=    0.0000E+00    0.0000E+00    0.0000E+00  setid=       0
 node=   399 local x,y,z forces =    0.0000E+00    0.0000E+00    0.0000E+00  setid=       0
 node=   399 local x,y,z moments=    0.0000E+00    0.0000E+00    0.0000E+00  setid=       0
 node=   400 local x,y,z forces =    0.0000E+00    0.0000E+00    0.0000E+00  setid=       0
 node=   400 local x,y,z moments=    0.0000E+00    0.0000E+00    0.0000E+00  setid=       0
 node=   401 local x,y,z forces =    0.0000E+00    0.0000E+00    0.0000E+00  setid=       0
 node=   401 local x,y,z moments=    0.0000E+00    0.0000E+00    0.0000E+00  setid=       0
 node=   402 local x,y,z forces =    0.0000E+00    0.0000E+00    0.0000E+00  setid=       0
 node=   402 local x,y,z moments=    0.0000E+00    0.0000E+00    0.0000E+00  setid=       0
 node=   403 local x,y,z forces =    0.0000E+00    0.0000E+00    0.0000E+00  setid=       0
 node=   403 local x,y,z moments=    0.0000E+00    0.0000E+00    0.0000E+00  setid=       0
 node=   404 local x,y,z forces =    0.0000E+00    0.0000E+00    0.0000E+00  setid=       0
 node=   404 local x,y,z moments=    0.0000E+00    0.0000E+00    0.0000E+00  setid=       0
 node=   405 local x,y,z forces =    0.0000E+00    0.0000E+00    0.0000E+00  setid=       0
 node=   405 local x,y,z moments=    0.0000E+00    0.0000E+00    0.0000E+00  setid=       0
 node=   406 local x,y,z forces =    0.0000E+00    0.0000E+00    0.0000E+00  setid=       0
 node=   406 local x,y,z moments=    0.0000E+00    0.0000E+00    0.0000E+00  setid=       0
 node=   407 local x,y,z forces =    0.0000E+00    0.0000E+00    0.0000E+00  setid=       0
 node=   407 local x,y,z moments=    0.0000E+00    0.0000E+00    0.0000E+00  setid=       0
 node=   408 local x,y,z forces =    0.0000E+00    0.0000E+00    0.0000E+00  setid=       0
 node=   408 local x,y,z moments=    0.0000E+00    0.0000E+00    0.0000E+00  setid=       0
 node=   409 local x,y,z forces =    0.0000E+00    0.0000E+00    0.0000E+00  setid=       0
 node=   409 local x,y,z moments=    0.0000E+00    0.0000E+00    0.0000E+00  setid=       0
 node=   410 local x,y,z forces =    0.0000E+00    0.0000E+00    0.0000E+00  setid=       0
 node=   410 local x,y,z moments=    0.0000E+00    0.0000E+00    0.0000E+00  setid=       0
 node=   411 local x,y,z forces =    0.0000E+00    0.0000E+00    0.0000E+00  setid=       0
 node=   411 local x,y,z moments=    0.0000E+00    0.0000E+00    0.0000E+00  setid=       0
 node=   412 local x,y,z forces =    0.0000E+00    0.0000E+00    0.0000E+00  setid=       0
 node=   412 local x,y,z moments=    0.0000E+00    0.0000E+00    0.0000E+00  setid=       0
 node=   413 local x,y,z forces =    0.0000E+00    0.0000E+00    0.0000E+00  setid=       0
 node=   413 local x,y,z moments=    0.0000E+00    0.0000E+00    0.0000E+00  setid=       0
 node=   414 local x,y,z forces =    0.0000E+00    0.0000E+00    0.0000E+00  setid=       0
 node=   414 local x,y,z moments=    0.0000E+00    0.0000E+00    0.0000E+00  setid=       0
 node=   415 local x,y,z forces =    0.0000E+00    0.0000E+00    0.0000E+00  setid=       0
 node=   415 local x,y,z moments=    0.0000E+00    0.0000E+00    0.0000E+00  setid=       0
 node=   416 local x,y,z forces =    0.0000E+00    0.0000E+00    0.0000E+00  setid=       0
 node=   416 local x,y,z moments=    0.0000E+00    0.0000E+00    0.0000E+00  setid=       0
 node=   417 local x,y,z forces =    0.0000E+00    0.0000E+00    0.0000E+00  setid=       0
 node=   417 local x,y,z moments=    0.0000E+00    0.0000E+00    0.0000E+00  setid=       0
 node=   418 local x,y,z forces =    0.0000E+00    0.0000E+00    0.0000E+00  setid=       0
 node=   418 local x,y,z moments=    0.0000E+00    0.0000E+00    0.0000E+00  setid=       0
 node=   419 local x,y,z forces =    0.0000E+00    0.0000E+00    0.0000E+00  setid=       0
 node=   419 local x,y,z moments=    0.0000E+00    0.0000E+00    0.0000E+00  setid=       0
 node=   420 local x,y,z forces =    0.0000E+00    0.0000E+00    0.0000E+00  setid=       0
 node=   420 local x,y,z moments=    0.0000E+00    0.0000E+00    0.0000E+00  setid=       0
 node=   421 local x,y,z forces =    0.0000E+00    0.0000E+00    0.0000E+00  setid=       0
 node=   421 local x,y,z moments=    0.0000E+00    0.0000E+00    0.0000E+00  setid=       0
 node=   422 local x,y,z forces =    0.0000E+00    0.0000E+00    0.0000E+00  setid=       0
 node=   422 local x,y,z moments=    0.0000E+00    0.0000E+00    0.0000E+00  setid=       0
 node=   423 local x,y,z forces =    0.0000E+00    0.0000E+00    0.0000E+00  setid=       0
 node=   423 local x,y,z moments=    0.0000E+00    0.0000E+00    0.0000E+00  setid=       0
 node=   424 local x,y,z forces =    0.0000E+00    0.0000E+00    0.0000E+00  setid=       0
 node=   424 local x,y,z moments=    0.0000E+00    0.0000E+00    0.0000E+00  setid=       0
 node=   425 local x,y,z forces =    0.0000E+00    0.0000E+00    0.0000E+00  setid=       0
 node=   425 local x,y,z moments=    0.0000E+00    0.0000E+00    0.0000E+00  setid=       0
 node=   426 local x,y,z forces =    0.0000E+00    0.0000E+00    0.0000E+00  setid=       0
 node=   426 local x,y,z moments=    0.0000E+00    0.0000E+00    0.0000E+00  setid=       0
 node=   427 local x,y,z forces =    0.0000E+00    0.0000E+00    0.0000E+00  setid=       0
 node=   427 local x,y,z moments=    0.0000E+00    0.0000E+00    0.0000E+00  setid=       0
 node=   428 local x,y,z forces =    0.0000E+00    0.0000E+00    0.0000E+00  setid=       0
 node=   428 local x,y,z moments=    0.0000E+00    0.0000E+00    0.0000E+00  setid=       0
 node=   429 local x,y,z forces =    0.0000E+00    0.0000E+00    0.0000E+00  setid=       0
 node=   429 local x,y,z moments=    0.0000E+00    0.0000E+00    0.0000E+00  setid=       0
 node=   430 local x,y,z forces =    0.0000E+00    0.0000E+00    0.0000E+00  setid=       0
 node=   430 local x,y,z moments=    0.0000E+00    0.0000E+00    0.0000E+00  setid=       0
 node=   431 local x,y,z forces =    0.0000E+00    0.0000E+00    0.0000E+00  setid=       0
 node=   431 local x,y,z moments=    0.0000E+00    0.0000E+00    0.0000E+00  setid=       0
 node=   432 local x,y,z forces =    0.0000E+00    0.0000E+00    0.0000E+00  setid=       0
 node=   432 local x,y,z moments=    0.0000E+00    0.0000E+00    0.0000E+00  setid=       0
 node=   433 local x,y,z forces =    0.0000E+00    0.0000E+00    0.0000E+00  setid=       0
 node=   433 local x,y,z moments=    0.0000E+00    0.0000E+00    0.0000E+00  setid=       0
 node=   434 local x,y,z forces =    0.0000E+00    0.0000E+00    0.0000E+00  setid=       0
 node=   434 local x,y,z moments=    0.0000E+00    0.0000E+00    0.0000E+00  setid=       0
 node=   435 local x,y,z forces =    0.0000E+00    0.0000E+00    0.0000E+00  setid=       0
 node=   435 local x,y,z moments=    0.0000E+00    0.0000E+00    0.0000E+00  setid=       0
 node=   436 local x,y,z forces =    0.0000E+00    0.0000E+00    0.0000E+00  setid=       0
 node=   436 local x,y,z moments=    0.0000E+00    0.0000E+00    0.0000E+00  setid=       0
 node=   437 local x,y,z forces =    0.0000E+00    0.0000E+00    0.0000E+00  setid=       0
 node=   437 local x,y,z moments=    0.0000E+00    0.0000E+00    0.0000E+00  setid=       0
 node=   438 local x,y,z forces =    0.0000E+00    0.0000E+00    0.0000E+00  setid=       0
 node=   438 local x,y,z moments=    0.0000E+00    0.0000E+00    0.0000E+00  setid=       0
 node=   439 local x,y,z forces =    0.0000E+00    0.0000E+00    0.0000E+00  setid=       0
 node=   439 local x,y,z moments=    0.0000E+00    0.0000E+00    0.0000E+00  setid=       0
 node=   440 local x,y,z forces =    0.0000E+00    0.0000E+00    0.0000E+00  setid=       0
 node=   440 local x,y,z moments=    0.0000E+00    0.0000E+00    0.0000E+00  setid=       0
 node=   441 local x,y,z forces =    0.0000E+00    0.0000E+00    0.0000E+00  setid=       0
 node=   441 local x,y,z moments=    0.0000E+00    0.0000E+00    0.0000E+00  setid=       0
 node=   442 local x,y,z forces =    0.0000E+00    0.0000E+00    0.0000E+00  setid=       0
 node=   442 local x,y,z moments=    0.0000E+00    0.0000E+00    0.0000E+00  setid=       0
 node=   443 local x,y,z forces =    0.0000E+00    0.0000E+00    0.0000E+00  setid=       0
 node=   443 local x,y,z moments=    0.0000E+00    0.0000E+00    0.0000E+00  setid=       0
 node=   444 local x,y,z forces =    0.0000E+00    0.0000E+00    0.0000E+00  setid=       0
 node=   444 local x,y,z moments=    0.0000E+00    0.0000E+00    0.0000E+00  setid=       0
 node=   445 local x,y,z forces =    0.0000E+00    0.0000E+00    0.0000E+00  setid=       0
 node=   445 local x,y,z moments=    0.0000E+00    0.0000E+00    0.0000E+00  setid=       0
 node=   446 local x,y,z forces =    0.0000E+00    0.0000E+00    0.0000E+00  setid=       0
 node=   446 local x,y,z moments=    0.0000E+00    0.0000E+00    0.0000E+00  setid=       0
 node=   447 local x,y,z forces =    0.0000E+00    0.0000E+00    0.0000E+00  setid=       0
 node=   447 local x,y,z moments=    0.0000E+00    0.0000E+00    0.0000E+00  setid=       0
 node=   448 local x,y,z forces =    0.0000E+00    0.0000E+00    0.0000E+00  setid=       0
 node=   448 local x,y,z moments=    0.0000E+00    0.0000E+00    0.0000E+00  setid=       0
 node=   449 local x,y,z forces =    0.0000E+00    0.0000E+00    0.0000E+00  setid=       0
 node=   449 local x,y,z moments=    0.0000E+00    0.0000E+00    0.0000E+00  setid=       0
 node=   450 local x,y,z forces =    0.0000E+00    0.0000E+00    0.0000E+00  setid=       0
 node=   450 local x,y,z moments=    0.0000E+00    0.0000E+00    0.0000E+00  setid=       0
 node=   451 local x,y,z forces =    0.0000E+00    0.0000E+00    0.0000E+00  setid=       0
 node=   451 local x,y,z moments=    0.0000E+00    0.0000E+00    0.0000E+00  setid=       0
 node=   452 local x,y,z forces =    0.0000E+00    0.0000E+00    0.0000E+00  setid=       0
 node=   452 local x,y,z moments=    0.0000E+00    0.0000E+00    0.0000E+00  setid=       0
 node=   453 local x,y,z forces =    0.0000E+00    0.0000E+00    0.0000E+00  setid=       0
 node=   453 local x,y,z moments=    0.0000E+00    0.0000E+00    0.0000E+00  setid=       0
 node=   454 local x,y,z forces =    0.0000E+00    0.0000E+00    0.0000E+00  setid=       0
 node=   454 local x,y,z moments=    0.0000E+00    0.0000E+00    0.0000E+00  setid=       0
 node=   455 local x,y,z forces =    0.0000E+00    0.0000E+00    0.0000E+00  setid=       0
 node=   455 local x,y,z moments=    0.0000E+00    0.0000E+00    0.0000E+00  setid=       0
 node=   456 local x,y,z forces =    0.0000E+00    0.0000E+00    0.0000E+00  setid=       0
 node=   456 local x,y,z moments=    0.0000E+00    0.0000E+00    0.0000E+00  setid=       0
 node=   457 local x,y,z forces =    0.0000E+00    0.0000E+00    0.0000E+00  setid=       0
 node=   457 local x,y,z moments=    0.0000E+00    0.0000E+00    0.0000E+00  setid=       0
 node=   458 local x,y,z forces =    0.0000E+00    0.0000E+00    0.0000E+00  setid=       0
 node=   458 local x,y,z moments=    0.0000E+00    0.0000E+00    0.0000E+00  setid=       0
 node=   459 local x,y,z forces =    0.0000E+00    0.0000E+00    0.0000E+00  setid=       0
 node=   459 local x,y,z moments=    0.0000E+00    0.0000E+00    0.0000E+00  setid=       0
 node=   460 local x,y,z forces =    0.0000E+00    0.0000E+00    0.0000E+00  setid=       0
 node=   460 local x,y,z moments=    0.0000E+00    0.0000E+00    0.0000E+00  setid=       0
 node=   461 local x,y,z forces =    0.0000E+00    0.0000E+00    0.0000E+00  setid=       0
 node=   461 local x,y,z moments=    0.0000E+00    0.0000E+00    0.0000E+00  setid=       0
 node=   462 local x,y,z forces =    0.0000E+00    0.0000E+00    0.0000E+00  setid=       0
 node=   462 local x,y,z moments=    0.0000E+00    0.0000E+00    0.0000E+00  setid=       0
 node=   463 local x,y,z forces =    0.0000E+00    0.0000E+00    0.0000E+00  setid=       0
 node=   463 local x,y,z moments=    0.0000E+00    0.0000E+00    0.0000E+00  setid=       0
 node=   464 local x,y,z forces =    0.0000E+00    0.0000E+00    0.0000E+00  setid=       0
 node=   464 local x,y,z moments=    0.0000E+00    0.0000E+00    0.0000E+00  setid=       0
 node=   465 local x,y,z forces =    0.0000E+00    0.0000E+00    0.0000E+00  setid=       0
 node=   465 local x,y,z moments=    0.0000E+00    0.0000E+00    0.0000E+00  setid=       0
 node=   466 local x,y,z forces =    0.0000E+00    0.0000E+00    0.0000E+00  setid=       0
 node=   466 local x,y,z moments=    0.0000E+00    0.0000E+00    0.0000E+00  setid=       0
 node=   467 local x,y,z forces =    0.0000E+00    0.0000E+00    0.0000E+00  setid=       0
 node=   467 local x,y,z moments=    0.0000E+00    0.0000E+00    0.0000E+00  setid=       0
 node=   468 local x,y,z forces =    0.0000E+00    0.0000E+00    0.0000E+00  setid=       0
 node=   468 local x,y,z moments=    0.0000E+00    0.0000E+00    0.0000E+00  setid=       0
 node=   469 local x,y,z forces =    0.0000E+00    0.0000E+00    0.0000E+00  setid=       0
 node=   469 local x,y,z moments=    0.0000E+00    0.0000E+00    0.0000E+00  setid=       0
 node=   470 local x,y,z forces =    0.0000E+00    0.0000E+00    0.0000E+00  setid=       0
 node=   470 local x,y,z moments=    0.0000E+00    0.0000E+00    0.0000E+00  setid=       0
 node=   471 local x,y,z forces =    0.0000E+00    0.0000E+00    0.0000E+00  setid=       0
 node=   471 local x,y,z moments=    0.0000E+00    0.0000E+00    0.0000E+00  setid=       0
 node=   472 local x,y,z forces =    0.0000E+00    0.0000E+00    0.0000E+00  setid=       0
 node=   472 local x,y,z moments=    0.0000E+00    0.0000E+00    0.0000E+00  setid=       0
 node=   473 local x,y,z forces =    0.0000E+00    0.0000E+00    0.0000E+00  setid=       0
 node=   473 local x,y,z moments=    0.0000E+00    0.0000E+00    0.0000E+00  setid=       0
 node=   474 local x,y,z forces =    0.0000E+00    0.0000E+00    0.0000E+00  setid=       0
 node=   474 local x,y,z moments=    0.0000E+00    0.0000E+00    0.0000E+00  setid=       0
 node=   475 local x,y,z forces =    0.0000E+00    0.0000E+00    0.0000E+00  setid=       0
 node=   475 local x,y,z moments=    0.0000E+00    0.0000E+00    0.0000E+00  setid=       0
 node=   476 local x,y,z forces =    0.0000E+00    0.0000E+00    0.0000E+00  setid=       0
 node=   476 local x,y,z moments=    0.0000E+00    0.0000E+00    0.0000E+00  setid=       0
 node=   477 local x,y,z forces =    0.0000E+00    0.0000E+00    0.0000E+00  setid=       0
 node=   477 local x,y,z moments=    0.0000E+00    0.0000E+00    0.0000E+00  setid=       0
 node=   478 local x,y,z forces =    0.0000E+00    0.0000E+00    0.0000E+00  setid=       0
 node=   478 local x,y,z moments=    0.0000E+00    0.0000E+00    0.0000E+00  setid=       0
 node=   479 local x,y,z forces =    0.0000E+00    0.0000E+00    0.0000E+00  setid=       0
 node=   479 local x,y,z moments=    0.0000E+00    0.0000E+00    0.0000E+00  setid=       0
 node=   480 local x,y,z forces =    0.0000E+00    0.0000E+00    0.0000E+00  setid=       0
 node=   480 local x,y,z moments=    0.0000E+00    0.0000E+00    0.0000E+00  setid=       0
 node=   481 local x,y,z forces =    0.0000E+00    0.0000E+00    0.0000E+00  setid=       0
 node=   481 local x,y,z moments=    0.0000E+00    0.0000E+00    0.0000E+00  setid=       0
 node=   482 local x,y,z forces =    0.0000E+00    0.0000E+00    0.0000E+00  setid=       0
 node=   482 local x,y,z moments=    0.0000E+00    0.0000E+00    0.0000E+00  setid=       0
 node=   483 local x,y,z forces =    0.0000E+00    0.0000E+00    0.0000E+00  setid=       0
 node=   483 local x,y,z moments=    0.0000E+00    0.0000E+00    0.0000E+00  setid=       0
 node=   484 local x,y,z forces =    0.0000E+00    0.0000E+00    0.0000E+00  setid=       0
 node=   484 local x,y,z moments=    0.0000E+00    0.0000E+00    0.0000E+00  setid=       0
 node=   485 local x,y,z forces =    0.0000E+00    0.0000E+00    0.0000E+00  setid=       0
 node=   485 local x,y,z moments=    0.0000E+00    0.0000E+00    0.0000E+00  setid=       0
 node=   486 local x,y,z forces =    0.0000E+00    0.0000E+00    0.0000E+00  setid=       0
 node=   486 local x,y,z moments=    0.0000E+00    0.0000E+00    0.0000E+00  setid=       0
 node=   487 local x,y,z forces =    0.0000E+00    0.0000E+00    0.0000E+00  setid=       0
 node=   487 local x,y,z moments=    0.0000E+00    0.0000E+00    0.0000E+00  setid=       0
 node=   488 local x,y,z forces =    0.0000E+00    0.0000E+00    0.0000E+00  setid=       0
 node=   488 local x,y,z moments=    0.0000E+00    0.0000E+00    0.0000E+00  setid=       0
 node=   489 local x,y,z forces =    0.0000E+00    0.0000E+00    0.0000E+00  setid=       0
 node=   489 local x,y,z moments=    0.0000E+00    0.0000E+00    0.0000E+00  setid=       0
 node=   490 local x,y,z forces =    0.0000E+00    0.0000E+00    0.0000E+00  setid=       0
 node=   490 local x,y,z moments=    0.0000E+00    0.0000E+00    0.0000E+00  setid=       0
 node=   491 local x,y,z forces =    0.0000E+00    0.0000E+00    0.0000E+00  setid=       0
 node=   491 local x,y,z moments=    0.0000E+00    0.0000E+00    0.0000E+00  setid=       0
 node=   492 local x,y,z forces =    0.0000E+00    0.0000E+00    0.0000E+00  setid=       0
 node=   492 local x,y,z moments=    0.0000E+00    0.0000E+00    0.0000E+00  setid=       0
 node=   493 local x,y,z forces =    0.0000E+00    0.0000E+00    0.0000E+00  setid=       0
 node=   493 local x,y,z moments=    0.0000E+00    0.0000E+00    0.0000E+00  setid=       0
 node=   494 local x,y,z forces =    0.0000E+00    0.0000E+00    0.0000E+00  setid=       0
 node=   494 local x,y,z moments=    0.0000E+00    0.0000E+00    0.0000E+00  setid=       0
 node=   495 local x,y,z forces =    0.0000E+00    0.0000E+00    0.0000E+00  setid=       0
 node=   495 local x,y,z moments=    0.0000E+00    0.0000E+00    0.0000E+00  setid=       0
 node=   496 local x,y,z forces =    0.0000E+00    0.0000E+00    0.0000E+00  setid=       0
 node=   496 local x,y,z moments=    0.0000E+00    0.0000E+00    0.0000E+00  setid=       0
 node=   497 local x,y,z forces =    0.0000E+00    0.0000E+00    0.0000E+00  setid=       0
 node=   497 local x,y,z moments=    0.0000E+00    0.0000E+00    0.0000E+00  setid=       0
 node=   498 local x,y,z forces =    0.0000E+00    0.0000E+00    0.0000E+00  setid=       0
 node=   498 local x,y,z moments=    0.0000E+00    0.0000E+00    0.0000E+00  setid=       0
 node=   499 local x,y,z forces =    0.0000E+00    0.0000E+00    0.0000E+00  setid=       0
 node=   499 local x,y,z moments=    0.0000E+00    0.0000E+00    0.0000E+00  setid=       0
 node=   500 local x,y,z forces =    0.0000E+00    0.0000E+00    0.0000E+00  setid=       0
 node=   500 local x,y,z moments=    0.0000E+00    0.0000E+00    0.0000E+00  setid=       0
 node=   501 local x,y,z forces =    0.0000E+00    0.0000E+00    0.0000E+00  setid=       0
 node=   501 local x,y,z moments=    0.0000E+00    0.0000E+00    0.0000E+00  setid=       0
 node=   502 local x,y,z forces =    0.0000E+00    0.0000E+00    0.0000E+00  setid=       0
 node=   502 local x,y,z moments=    0.0000E+00    0.0000E+00    0.0000E+00  setid=       0
 node=   503 local x,y,z forces =    0.0000E+00    0.0000E+00    0.0000E+00  setid=       0
 node=   503 local x,y,z moments=    0.0000E+00    0.0000E+00    0.0000E+00  setid=       0
 node=   504 local x,y,z forces =    0.0000E+00    0.0000E+00    0.0000E+00  setid=       0
 node=   504 local x,y,z moments=    0.0000E+00    0.0000E+00    0.0000E+00  setid=       0
 node=   505 local x,y,z forces =    0.0000E+00    0.0000E+00    0.0000E+00  setid=       0
 node=   505 local x,y,z moments=    0.0000E+00    0.0000E+00    0.0000E+00  setid=       0
 node=   506 local x,y,z forces =    0.0000E+00    0.0000E+00    0.0000E+00  setid=       0
 node=   506 local x,y,z moments=    0.0000E+00    0.0000E+00    0.0000E+00  setid=       0
 node=   507 local x,y,z forces =    0.0000E+00    0.0000E+00    0.0000E+00  setid=       0
 node=   507 local x,y,z moments=    0.0000E+00    0.0000E+00    0.0000E+00  setid=       0
 node=   508 local x,y,z forces =    0.0000E+00    0.0000E+00    0.0000E+00  setid=       0
 node=   508 local x,y,z moments=    0.0000E+00    0.0000E+00    0.0000E+00  setid=       0
 node=   509 local x,y,z forces =    0.0000E+00    0.0000E+00    0.0000E+00  setid=       0
 node=   509 local x,y,z moments=    0.0000E+00    0.0000E+00    0.0000E+00  setid=       0
 node=   510 local x,y,z forces =    0.0000E+00    0.0000E+00    0.0000E+00  setid=       0
 node=   510 local x,y,z moments=    0.0000E+00    0.0000E+00    0.0000E+00  setid=       0
 node=   511 local x,y,z forces =    0.0000E+00    0.0000E+00    0.0000E+00  setid=       0
 node=   511 local x,y,z moments=    0.0000E+00    0.0000E+00    0.0000E+00  setid=       0
 node=   512 local x,y,z forces =    0.0000E+00    0.0000E+00    0.0000E+00  setid=       0
 node=   512 local x,y,z moments=    0.0000E+00    0.0000E+00    0.0000E+00  setid=       0
 node=   513 local x,y,z forces =    0.0000E+00    0.0000E+00    0.0000E+00  setid=       0
 node=   513 local x,y,z moments=    0.0000E+00    0.0000E+00    0.0000E+00  setid=       0
 node=   514 local x,y,z forces =    0.0000E+00    0.0000E+00    0.0000E+00  setid=       0
 node=   514 local x,y,z moments=    0.0000E+00    0.0000E+00    0.0000E+00  setid=       0
 node=   515 local x,y,z forces =    0.0000E+00    0.0000E+00    0.0000E+00  setid=       0
 node=   515 local x,y,z moments=    0.0000E+00    0.0000E+00    0.0000E+00  setid=       0
 node=   516 local x,y,z forces =    0.0000E+00    0.0000E+00    0.0000E+00  setid=       0
 node=   516 local x,y,z moments=    0.0000E+00    0.0000E+00    0.0000E+00  setid=       0
 node=   529 local x,y,z forces =    0.0000E+00    0.0000E+00    0.0000E+00  setid=       0
 node=   529 local x,y,z moments=    0.0000E+00    0.0000E+00    0.0000E+00  setid=       0
 node=   530 local x,y,z forces =    0.0000E+00    0.0000E+00    0.0000E+00  setid=       0
 node=   530 local x,y,z moments=    0.0000E+00    0.0000E+00    0.0000E+00  setid=       0
 node=   531 local x,y,z forces =    0.0000E+00    0.0000E+00    0.0000E+00  setid=       0
 node=   531 local x,y,z moments=    0.0000E+00    0.0000E+00    0.0000E+00  setid=       0
 node=   532 local x,y,z forces =    0.0000E+00    0.0000E+00    0.0000E+00  setid=       0
 node=   532 local x,y,z moments=    0.0000E+00    0.0000E+00    0.0000E+00  setid=       0
 node=   545 local x,y,z forces =    0.0000E+00    0.0000E+00    0.0000E+00  setid=       0
 node=   545 local x,y,z moments=    0.0000E+00    0.0000E+00    0.0000E+00  setid=       0
 node=   546 local x,y,z forces =    0.0000E+00    0.0000E+00    0.0000E+00  setid=       0
 node=   546 local x,y,z moments=    0.0000E+00    0.0000E+00    0.0000E+00  setid=       0
 node=   547 local x,y,z forces =    0.0000E+00    0.0000E+00    0.0000E+00  setid=       0
 node=   547 local x,y,z moments=    0.0000E+00    0.0000E+00    0.0000E+00  setid=       0
 node=   548 local x,y,z forces =    0.0000E+00    0.0000E+00    0.0000E+00  setid=       0
 node=   548 local x,y,z moments=    0.0000E+00    0.0000E+00    0.0000E+00  setid=       0
 node=   561 local x,y,z forces =    0.0000E+00    0.0000E+00    0.0000E+00  setid=       0
 node=   561 local x,y,z moments=    0.0000E+00    0.0000E+00    0.0000E+00  setid=       0
 node=   562 local x,y,z forces =    0.0000E+00    0.0000E+00    0.0000E+00  setid=       0
 node=   562 local x,y,z moments=    0.0000E+00    0.0000E+00    0.0000E+00  setid=       0
 node=   563 local x,y,z forces =    0.0000E+00    0.0000E+00    0.0000E+00  setid=       0
 node=   563 local x,y,z moments=    0.0000E+00    0.0000E+00    0.0000E+00  setid=       0
 node=   564 local x,y,z forces =    0.0000E+00    0.0000E+00    0.0000E+00  setid=       0
 node=   564 local x,y,z moments=    0.0000E+00    0.0000E+00    0.0000E+00  setid=       0
 node=   571 local x,y,z forces =    0.0000E+00    0.0000E+00    0.0000E+00  setid=       0
 node=   571 local x,y,z moments=    0.0000E+00    0.0000E+00    0.0000E+00  setid=       0
 node=   572 local x,y,z forces =    0.0000E+00    0.0000E+00    0.0000E+00  setid=       0
 node=   572 local x,y,z moments=    0.0000E+00    0.0000E+00    0.0000E+00  setid=       0
 node=   585 local x,y,z forces =    0.0000E+00    0.0000E+00    0.0000E+00  setid=       0
 node=   585 local x,y,z moments=    0.0000E+00    0.0000E+00    0.0000E+00  setid=       0
 node=   586 local x,y,z forces =    0.0000E+00    0.0000E+00    0.0000E+00  setid=       0
 node=   586 local x,y,z moments=    0.0000E+00    0.0000E+00    0.0000E+00  setid=       0
 node=   587 local x,y,z forces =    0.0000E+00    0.0000E+00    0.0000E+00  setid=       0
 node=   587 local x,y,z moments=    0.0000E+00    0.0000E+00    0.0000E+00  setid=       0
 node=   588 local x,y,z forces =    0.0000E+00    0.0000E+00    0.0000E+00  setid=       0
 node=   588 local x,y,z moments=    0.0000E+00    0.0000E+00    0.0000E+00  setid=       0
 node=   601 local x,y,z forces =    0.0000E+00    0.0000E+00    0.0000E+00  setid=       0
 node=   601 local x,y,z moments=    0.0000E+00    0.0000E+00    0.0000E+00  setid=       0
 node=   602 local x,y,z forces =    0.0000E+00    0.0000E+00    0.0000E+00  setid=       0
 node=   602 local x,y,z moments=    0.0000E+00    0.0000E+00    0.0000E+00  setid=       0
 node=   603 local x,y,z forces =    0.0000E+00    0.0000E+00    0.0000E+00  setid=       0
 node=   603 local x,y,z moments=    0.0000E+00    0.0000E+00    0.0000E+00  setid=       0
 node=   604 local x,y,z forces =    0.0000E+00    0.0000E+00    0.0000E+00  setid=       0
 node=   604 local x,y,z moments=    0.0000E+00    0.0000E+00    0.0000E+00  setid=       0
 node=   617 local x,y,z forces =    0.0000E+00    0.0000E+00    0.0000E+00  setid=       0
 node=   617 local x,y,z moments=    0.0000E+00    0.0000E+00    0.0000E+00  setid=       0
 node=   618 local x,y,z forces =    0.0000E+00    0.0000E+00    0.0000E+00  setid=       0
 node=   618 local x,y,z moments=    0.0000E+00    0.0000E+00    0.0000E+00  setid=       0
 node=   619 local x,y,z forces =    0.0000E+00    0.0000E+00    0.0000E+00  setid=       0
 node=   619 local x,y,z moments=    0.0000E+00    0.0000E+00    0.0000E+00  setid=       0
 node=   620 local x,y,z forces =    0.0000E+00    0.0000E+00    0.0000E+00  setid=       0
 node=   620 local x,y,z moments=    0.0000E+00    0.0000E+00    0.0000E+00  setid=       0
 node=   633 local x,y,z forces =    0.0000E+00    0.0000E+00    0.0000E+00  setid=       0
 node=   633 local x,y,z moments=    0.0000E+00    0.0000E+00    0.0000E+00  setid=       0
 node=   634 local x,y,z forces =    0.0000E+00    0.0000E+00    0.0000E+00  setid=       0
 node=   634 local x,y,z moments=    0.0000E+00    0.0000E+00    0.0000E+00  setid=       0
 node=   635 local x,y,z forces =    0.0000E+00    0.0000E+00    0.0000E+00  setid=       0
 node=   635 local x,y,z moments=    0.0000E+00    0.0000E+00    0.0000E+00  setid=       0
 node=   636 local x,y,z forces =    0.0000E+00    0.0000E+00    0.0000E+00  setid=       0
 node=   636 local x,y,z moments=    0.0000E+00    0.0000E+00    0.0000E+00  setid=       0
 node=   646 local x,y,z forces =    0.0000E+00    0.0000E+00    0.0000E+00  setid=       0
 node=   646 local x,y,z moments=    0.0000E+00    0.0000E+00    0.0000E+00  setid=       0
 node=   647 local x,y,z forces =    0.0000E+00    0.0000E+00    0.0000E+00  setid=       0
 node=   647 local x,y,z moments=    0.0000E+00    0.0000E+00    0.0000E+00  setid=       0
 node=   648 local x,y,z forces =    0.0000E+00    0.0000E+00    0.0000E+00  setid=       0
 node=   648 local x,y,z moments=    0.0000E+00    0.0000E+00    0.0000E+00  setid=       0
 node=   658 local x,y,z forces =    0.0000E+00    0.0000E+00    0.0000E+00  setid=       0
 node=   658 local x,y,z moments=    0.0000E+00    0.0000E+00    0.0000E+00  setid=       0
 node=   659 local x,y,z forces =    0.0000E+00    0.0000E+00    0.0000E+00  setid=       0
 node=   659 local x,y,z moments=    0.0000E+00    0.0000E+00    0.0000E+00  setid=       0
 node=   660 local x,y,z forces =    0.0000E+00    0.0000E+00    0.0000E+00  setid=       0
 node=   660 local x,y,z moments=    0.0000E+00    0.0000E+00    0.0000E+00  setid=       0
 node=   670 local x,y,z forces =    0.0000E+00    0.0000E+00    0.0000E+00  setid=       0
 node=   670 local x,y,z moments=    0.0000E+00    0.0000E+00    0.0000E+00  setid=       0
 node=   671 local x,y,z forces =    0.0000E+00    0.0000E+00    0.0000E+00  setid=       0
 node=   671 local x,y,z moments=    0.0000E+00    0.0000E+00    0.0000E+00  setid=       0
 node=   672 local x,y,z forces =    0.0000E+00    0.0000E+00    0.0000E+00  setid=       0
 node=   672 local x,y,z moments=    0.0000E+00    0.0000E+00    0.0000E+00  setid=       0
 node=   679 local x,y,z forces =    0.0000E+00    0.0000E+00    0.0000E+00  setid=       0
 node=   679 local x,y,z moments=    0.0000E+00    0.0000E+00    0.0000E+00  setid=       0
 node=   680 local x,y,z forces =    0.0000E+00    0.0000E+00    0.0000E+00  setid=       0
 node=   680 local x,y,z moments=    0.0000E+00    0.0000E+00    0.0000E+00  setid=       0
 node=   693 local x,y,z forces =    0.0000E+00    0.0000E+00    0.0000E+00  setid=       0
 node=   693 local x,y,z moments=    0.0000E+00    0.0000E+00    0.0000E+00  setid=       0
 node=   694 local x,y,z forces =    0.0000E+00    0.0000E+00    0.0000E+00  setid=       0
 node=   694 local x,y,z moments=    0.0000E+00    0.0000E+00    0.0000E+00  setid=       0
 node=   695 local x,y,z forces =    0.0000E+00    0.0000E+00    0.0000E+00  setid=       0
 node=   695 local x,y,z moments=    0.0000E+00    0.0000E+00    0.0000E+00  setid=       0
 node=   696 local x,y,z forces =    0.0000E+00    0.0000E+00    0.0000E+00  setid=       0
 node=   696 local x,y,z moments=    0.0000E+00    0.0000E+00    0.0000E+00  setid=       0
 node=   700 local x,y,z forces =    0.0000E+00    0.0000E+00    0.0000E+00  setid=       0
 node=   700 local x,y,z moments=    0.0000E+00    0.0000E+00    0.0000E+00  setid=       0
 node=   707 local x,y,z forces =    0.0000E+00    0.0000E+00    0.0000E+00  setid=       0
 node=   707 local x,y,z moments=    0.0000E+00    0.0000E+00    0.0000E+00  setid=       0
 node=   708 local x,y,z forces =    0.0000E+00    0.0000E+00    0.0000E+00  setid=       0
 node=   708 local x,y,z moments=    0.0000E+00    0.0000E+00    0.0000E+00  setid=       0
 node=   712 local x,y,z forces =    0.0000E+00    0.0000E+00    0.0000E+00  setid=       0
 node=   712 local x,y,z moments=    0.0000E+00    0.0000E+00    0.0000E+00  setid=       0
 node=   716 local x,y,z forces =    0.0000E+00    0.0000E+00    0.0000E+00  setid=       0
 node=   716 local x,y,z moments=    0.0000E+00    0.0000E+00    0.0000E+00  setid=       0
 node=   723 local x,y,z forces =    0.0000E+00    0.0000E+00    0.0000E+00  setid=       0
 node=   723 local x,y,z moments=    0.0000E+00    0.0000E+00    0.0000E+00  setid=       0
 node=   724 local x,y,z forces =    0.0000E+00    0.0000E+00    0.0000E+00  setid=       0
 node=   724 local x,y,z moments=    0.0000E+00    0.0000E+00    0.0000E+00  setid=       0
 node=   731 local x,y,z forces =    0.0000E+00    0.0000E+00    0.0000E+00  setid=       0
 node=   731 local x,y,z moments=    0.0000E+00    0.0000E+00    0.0000E+00  setid=       0
 node=   732 local x,y,z forces =    0.0000E+00    0.0000E+00    0.0000E+00  setid=       0
 node=   732 local x,y,z moments=    0.0000E+00    0.0000E+00    0.0000E+00  setid=       0
 node=   739 local x,y,z forces =    0.0000E+00    0.0000E+00    0.0000E+00  setid=       0
 node=   739 local x,y,z moments=    0.0000E+00    0.0000E+00    0.0000E+00  setid=       0
 node=   740 local x,y,z forces =    0.0000E+00    0.0000E+00    0.0000E+00  setid=       0
 node=   740 local x,y,z moments=    0.0000E+00    0.0000E+00    0.0000E+00  setid=       0
 node=   750 local x,y,z forces =    0.0000E+00    0.0000E+00    0.0000E+00  setid=       0
 node=   750 local x,y,z moments=    0.0000E+00    0.0000E+00    0.0000E+00  setid=       0
 node=   751 local x,y,z forces =    0.0000E+00    0.0000E+00    0.0000E+00  setid=       0
 node=   751 local x,y,z moments=    0.0000E+00    0.0000E+00    0.0000E+00  setid=       0
 node=   752 local x,y,z forces =    0.0000E+00    0.0000E+00    0.0000E+00  setid=       0
 node=   752 local x,y,z moments=    0.0000E+00    0.0000E+00    0.0000E+00  setid=       0
 node=   756 local x,y,z forces =    0.0000E+00    0.0000E+00    0.0000E+00  setid=       0
 node=   756 local x,y,z moments=    0.0000E+00    0.0000E+00    0.0000E+00  setid=       0
 node=   763 local x,y,z forces =    0.0000E+00    0.0000E+00    0.0000E+00  setid=       0
 node=   763 local x,y,z moments=    0.0000E+00    0.0000E+00    0.0000E+00  setid=       0
 node=   764 local x,y,z forces =    0.0000E+00    0.0000E+00    0.0000E+00  setid=       0
 node=   764 local x,y,z moments=    0.0000E+00    0.0000E+00    0.0000E+00  setid=       0
 node=   771 local x,y,z forces =    0.0000E+00    0.0000E+00    0.0000E+00  setid=       0
 node=   771 local x,y,z moments=    0.0000E+00    0.0000E+00    0.0000E+00  setid=       0
 node=   772 local x,y,z forces =    0.0000E+00    0.0000E+00    0.0000E+00  setid=       0
 node=   772 local x,y,z moments=    0.0000E+00    0.0000E+00    0.0000E+00  setid=       0
 node=   776 local x,y,z forces =    0.0000E+00    0.0000E+00    0.0000E+00  setid=       0
 node=   776 local x,y,z moments=    0.0000E+00    0.0000E+00    0.0000E+00  setid=       0
 node=   780 local x,y,z forces =    0.0000E+00    0.0000E+00    0.0000E+00  setid=       0
 node=   780 local x,y,z moments=    0.0000E+00    0.0000E+00    0.0000E+00  setid=       0
 node=   790 local x,y,z forces =    0.0000E+00    0.0000E+00    0.0000E+00  setid=       0
 node=   790 local x,y,z moments=    0.0000E+00    0.0000E+00    0.0000E+00  setid=       0
 node=   791 local x,y,z forces =    0.0000E+00    0.0000E+00    0.0000E+00  setid=       0
 node=   791 local x,y,z moments=    0.0000E+00    0.0000E+00    0.0000E+00  setid=       0
 node=   792 local x,y,z forces =    0.0000E+00    0.0000E+00    0.0000E+00  setid=       0
 node=   792 local x,y,z moments=    0.0000E+00    0.0000E+00    0.0000E+00  setid=       0
 node=   799 local x,y,z forces =    0.0000E+00    0.0000E+00    0.0000E+00  setid=       0
 node=   799 local x,y,z moments=    0.0000E+00    0.0000E+00    0.0000E+00  setid=       0
 node=   800 local x,y,z forces =    0.0000E+00    0.0000E+00    0.0000E+00  setid=       0
 node=   800 local x,y,z moments=    0.0000E+00    0.0000E+00    0.0000E+00  setid=       0
 node=   804 local x,y,z forces =    0.0000E+00    0.0000E+00    0.0000E+00  setid=       0
 node=   804 local x,y,z moments=    0.0000E+00    0.0000E+00    0.0000E+00  setid=       0
 node=   811 local x,y,z forces =    0.0000E+00    0.0000E+00    0.0000E+00  setid=       0
 node=   811 local x,y,z moments=    0.0000E+00    0.0000E+00    0.0000E+00  setid=       0
 node=   812 local x,y,z forces =    0.0000E+00    0.0000E+00    0.0000E+00  setid=       0
 node=   812 local x,y,z moments=    0.0000E+00    0.0000E+00    0.0000E+00  setid=       0
 node=   819 local x,y,z forces =    0.0000E+00    0.0000E+00    0.0000E+00  setid=       0
 node=   819 local x,y,z moments=    0.0000E+00    0.0000E+00    0.0000E+00  setid=       0
 node=   820 local x,y,z forces =    0.0000E+00    0.0000E+00    0.0000E+00  setid=       0
 node=   820 local x,y,z moments=    0.0000E+00    0.0000E+00    0.0000E+00  setid=       0
 node=   824 local x,y,z forces =    0.0000E+00    0.0000E+00    0.0000E+00  setid=       0
 node=   824 local x,y,z moments=    0.0000E+00    0.0000E+00    0.0000E+00  setid=       0
 node=   828 local x,y,z forces =    0.0000E+00    0.0000E+00    0.0000E+00  setid=       0
 node=   828 local x,y,z moments=    0.0000E+00    0.0000E+00    0.0000E+00  setid=       0
 node=   841 local x,y,z forces =    0.0000E+00    0.0000E+00    0.0000E+00  setid=       0
 node=   841 local x,y,z moments=    0.0000E+00    0.0000E+00    0.0000E+00  setid=       0
 node=   842 local x,y,z forces =    0.0000E+00    0.0000E+00    0.0000E+00  setid=       0
 node=   842 local x,y,z moments=    0.0000E+00    0.0000E+00    0.0000E+00  setid=       0
 node=   843 local x,y,z forces =    0.0000E+00    0.0000E+00    0.0000E+00  setid=       0
 node=   843 local x,y,z moments=    0.0000E+00    0.0000E+00    0.0000E+00  setid=       0
 node=   844 local x,y,z forces =    0.0000E+00    0.0000E+00    0.0000E+00  setid=       0
 node=   844 local x,y,z moments=    0.0000E+00    0.0000E+00    0.0000E+00  setid=       0
 node=   848 local x,y,z forces =    0.0000E+00    0.0000E+00    0.0000E+00  setid=       0
 node=   848 local x,y,z moments=    0.0000E+00    0.0000E+00    0.0000E+00  setid=       0
 node=   855 local x,y,z forces =    0.0000E+00    0.0000E+00    0.0000E+00  setid=       0
 node=   855 local x,y,z moments=    0.0000E+00    0.0000E+00    0.0000E+00  setid=       0
 node=   856 local x,y,z forces =    0.0000E+00    0.0000E+00    0.0000E+00  setid=       0
 node=   856 local x,y,z moments=    0.0000E+00    0.0000E+00    0.0000E+00  setid=       0
 node=   860 local x,y,z forces =    0.0000E+00    0.0000E+00    0.0000E+00  setid=       0
 node=   860 local x,y,z moments=    0.0000E+00    0.0000E+00    0.0000E+00  setid=       0
 node=   864 local x,y,z forces =    0.0000E+00    0.0000E+00    0.0000E+00  setid=       0
 node=   864 local x,y,z moments=    0.0000E+00    0.0000E+00    0.0000E+00  setid=       0
 node=   868 local x,y,z forces =    0.0000E+00    0.0000E+00    0.0000E+00  setid=       0
 node=   868 local x,y,z moments=    0.0000E+00    0.0000E+00    0.0000E+00  setid=       0
 node=   875 local x,y,z forces =    0.0000E+00    0.0000E+00    0.0000E+00  setid=       0
 node=   875 local x,y,z moments=    0.0000E+00    0.0000E+00    0.0000E+00  setid=       0
 node=   876 local x,y,z forces =    0.0000E+00    0.0000E+00    0.0000E+00  setid=       0
 node=   876 local x,y,z moments=    0.0000E+00    0.0000E+00    0.0000E+00  setid=       0
 node=   880 local x,y,z forces =    0.0000E+00    0.0000E+00    0.0000E+00  setid=       0
 node=   880 local x,y,z moments=    0.0000E+00    0.0000E+00    0.0000E+00  setid=       0
 node=   884 local x,y,z forces =    0.0000E+00    0.0000E+00    0.0000E+00  setid=       0
 node=   884 local x,y,z moments=    0.0000E+00    0.0000E+00    0.0000E+00  setid=       0
 node=   894 local x,y,z forces =    0.0000E+00    0.0000E+00    0.0000E+00  setid=       0
 node=   894 local x,y,z moments=    0.0000E+00    0.0000E+00    0.0000E+00  setid=       0
 node=   895 local x,y,z forces =    0.0000E+00    0.0000E+00    0.0000E+00  setid=       0
 node=   895 local x,y,z moments=    0.0000E+00    0.0000E+00    0.0000E+00  setid=       0
 node=   896 local x,y,z forces =    0.0000E+00    0.0000E+00    0.0000E+00  setid=       0
 node=   896 local x,y,z moments=    0.0000E+00    0.0000E+00    0.0000E+00  setid=       0
 node=   900 local x,y,z forces =    0.0000E+00    0.0000E+00    0.0000E+00  setid=       0
 node=   900 local x,y,z moments=    0.0000E+00    0.0000E+00    0.0000E+00  setid=       0
 node=   904 local x,y,z forces =    0.0000E+00    0.0000E+00    0.0000E+00  setid=       0
 node=   904 local x,y,z moments=    0.0000E+00    0.0000E+00    0.0000E+00  setid=       0
 node=   908 local x,y,z forces =    0.0000E+00    0.0000E+00    0.0000E+00  setid=       0
 node=   908 local x,y,z moments=    0.0000E+00    0.0000E+00    0.0000E+00  setid=       0
             force resultants   =    0.0000E+00    0.0000E+00    0.0000E+00
 output at time =   5.00000E-01
 node=     1 local x,y,z forces =    0.0000E+00    9.6196E-01    1.3428E+01  setid=       0
 node=     1 local x,y,z moments=    2.4898E-03    2.0919E-03   -1.6906E-04  setid=       0
 node=     2 local x,y,z forces =    0.0000E+00    2.1105E+00    1.9831E+01  setid=       0
 node=     2 local x,y,z moments=    2.7121E-03    1.2470E-04   -8.6124E-06  setid=       0
 node=     3 local x,y,z forces =    0.0000E+00    2.3778E+00    1.4066E+01  setid=       0
 node=     3 local x,y,z moments=    1.2328E-03    5.1323E-05   -7.7632E-06  setid=       0
 node=     4 local x,y,z forces =    0.0000E+00    2.5347E+00    1.3657E+01  setid=       0
 node=     4 local x,y,z moments=    1.3320E-03    1.1758E-04   -5.9344E-06  setid=       0
 node=     5 local x,y,z forces =    1.2722E+00    1.2989E+00    6.9108E+00  setid=       0
 node=     5 local x,y,z moments=    6.8359E-04   -6.9410E-04    3.2848E-06  setid=       0
 node=     6 local x,y,z forces =    2.4953E+00    0.0000E+00    1.3298E+01  setid=       0
 node=     6 local x,y,z moments=   -7.0223E-05   -1.2433E-03    3.7185E-07  setid=       0
 node=     7 local x,y,z forces =    2.3356E+00    0.0000E+00    1.3511E+01  setid=       0
 node=     7 local x,y,z moments=    4.0622E-05   -1.1109E-03   -4.7464E-07  setid=       0
 node=     8 local x,y,z forces =    2.0640E+00    0.0000E+00    1.9389E+01  setid=       0
 node=     8 local x,y,z moments=    3.1527E-05   -2.6469E-03   -8.2487E-06  setid=       0
 node=     9 local x,y,z forces =    1.0994E+00    0.0000E+00    1.2703E+01  setid=       0
 node=     9 local x,y,z moments=   -1.9436E-03   -2.3917E-03    1.5619E-04  setid=       0
 node=    10 local x,y,z forces =    0.0000E+00    0.0000E+00    2.4907E+01  setid=       0
 node=    10 local x,y,z moments=   -3.4583E-03    1.6485E-03    0.0000E+00  setid=       0
 node=    11 local x,y,z forces =    0.0000E+00    0.0000E+00    2.2961E+01  setid=       0
 node=    11 local x,y,z moments=   -2.0559E-03    2.2529E-03    0.0000E+00  setid=       0
 node=    12 local x,y,z forces =    0.0000E+00    0.0000E+00    2.5709E+01  setid=       0
 node=    12 local x,y,z moments=   -1.3744E-03    3.6775E-03    0.0000E+00  setid=       0
 node=    13 local x,y,z forces =    0.0000E+00    0.0000E+00    1.6557E+01  setid=       0
 node=    13 local x,y,z moments=    2.8174E-06   -1.4636E-04    0.0000E+00  setid=       0
 node=    14 local x,y,z forces =    0.0000E+00    0.0000E+00    2.5368E+01  setid=       0
 node=    14 local x,y,z moments=    3.1915E-04   -1.1221E-04    0.0000E+00  setid=       0
 node=    15 local x,y,z forces =    0.0000E+00    0.0000E+00    2.4697E+01  setid=       0
 node=    15 local x,y,z moments=    1.6158E-04   -5.4849E-04    0.0000E+00  setid=       0
 node=    16 local x,y,z forces =    0.0000E+00    0.0000E+00    2.5397E+01  setid=       0
 node=    16 local x,y,z moments=   -4.4859E-04    2.2484E-04    0.0000E+00  setid=       0
 node=    17 local x,y,z forces =    0.0000E+00    0.0000E+00    3.3547E+01  setid=       0
 node=    17 local x,y,z moments=   -1.5339E-04   -2.3435E-04    0.0000E+00  setid=       0
 node=    18 local x,y,z forces =    0.0000E+00    0.0000E+00    3.6936E+01  setid=       0
 node=    18 local x,y,z moments=    7.9599E-04   -1.1816E-04    0.0000E+00  setid=       0
 node=    19 local x,y,z forces =    0.0000E+00    0.0000E+00    3.7551E+01  setid=       0
 node=    19 local x,y,z moments=   -3.4456E-04   -1.1588E-03    0.0000E+00  setid=       0
 node=    69 local x,y,z forces =    4.9630E+00    0.0000E+00    0.0000E+00  setid=       0
 node=    69 local x,y,z moments=    0.0000E+00    1.7487E-06   -4.4753E-07  setid=       0
 node=    70 local x,y,z forces =    2.5268E+00    2.5725E+00    0.0000E+00  setid=       0
 node=    70 local x,y,z moments=   -1.0863E-05    5.6242E-06    5.4582E-06  setid=       0
 node=    71 local x,y,z forces =    0.0000E+00    5.0300E+00    0.0000E+00  setid=       0
 node=    71 local x,y,z moments=   -4.0935E-05    0.0000E+00   -1.0844E-05  setid=       0
 node=    73 local x,y,z forces =    4.8263E+00    0.0000E+00    0.0000E+00  setid=       0
 node=    73 local x,y,z moments=    0.0000E+00   -8.6721E-06   -2.0672E-07  setid=       0
 node=    74 local x,y,z forces =    2.4515E+00    2.4777E+00    0.0000E+00  setid=       0
 node=    74 local x,y,z moments=   -1.5191E-05    5.6300E-06    2.5837E-06  setid=       0
 node=    75 local x,y,z forces =    0.0000E+00    4.8636E+00    0.0000E+00  setid=       0
 node=    75 local x,y,z moments=   -6.7101E-05    0.0000E+00   -9.9880E-06  setid=       0
 node=    77 local x,y,z forces =    4.3449E+00    0.0000E+00    0.0000E+00  setid=       0
 node=    77 local x,y,z moments=    0.0000E+00   -7.3699E-05   -3.5286E-06  setid=       0
 node=    78 local x,y,z forces =    2.1760E+00    2.1768E+00    0.0000E+00  setid=       0
 node=    78 local x,y,z moments=    2.6711E-05   -3.7823E-05   -4.0715E-07  setid=       0
 node=    79 local x,y,z forces =    0.0000E+00    4.3498E+00    0.0000E+00  setid=       0
 node=    79 local x,y,z moments=   -3.0511E-05    0.0000E+00    1.6470E-06  setid=       0
 node=    81 local x,y,z forces =    3.8048E+00    0.0000E+00    0.0000E+00  setid=       0
 node=    81 local x,y,z moments=    0.0000E+00    1.6200E-05   -1.4494E-05  setid=       0
[...]
 node=   507 local x,y,z forces =    0.0000E+00   -1.0066E+01    0.0000E+00  setid=       0
 node=   507 local x,y,z moments=   -5.3937E-05    0.0000E+00    2.5101E-03  setid=       0
 node=   508 local x,y,z forces =    0.0000E+00   -1.0693E+01    0.0000E+00  setid=       0
 node=   508 local x,y,z moments=    4.9083E-03    0.0000E+00    1.0723E-03  setid=       0
 node=   509 local x,y,z forces =    0.0000E+00   -1.4625E+01    0.0000E+00  setid=       0
 node=   509 local x,y,z moments=   -7.9336E-04    0.0000E+00    6.8226E-05  setid=       0
 node=   510 local x,y,z forces =    0.0000E+00   -1.6501E+01    0.0000E+00  setid=       0
 node=   510 local x,y,z moments=   -3.9044E-04    0.0000E+00    1.0981E-03  setid=       0
 node=   511 local x,y,z forces =    0.0000E+00   -1.7513E+01    0.0000E+00  setid=       0
 node=   511 local x,y,z moments=    2.3268E-03    0.0000E+00    1.3446E-03  setid=       0
 node=   512 local x,y,z forces =    0.0000E+00   -9.3101E+00    0.0000E+00  setid=       0
 node=   512 local x,y,z moments=    3.5281E-03    0.0000E+00    2.4313E-04  setid=       0
 node=   513 local x,y,z forces =    0.0000E+00   -2.1842E+01    0.0000E+00  setid=       0
 node=   513 local x,y,z moments=    9.7727E-04    0.0000E+00    2.4608E-03  setid=       0
 node=   514 local x,y,z forces =    0.0000E+00   -1.0091E+01    0.0000E+00  setid=       0
 node=   514 local x,y,z moments=   -2.6945E-03    0.0000E+00    4.1237E-04  setid=       0
 node=   515 local x,y,z forces =    0.0000E+00   -8.8004E+00    0.0000E+00  setid=       0
 node=   515 local x,y,z moments=    3.7513E-03    0.0000E+00    1.3239E-03  setid=       0
 node=   516 local x,y,z forces =    0.0000E+00   -1.0087E+01    0.0000E+00  setid=       0
 node=   516 local x,y,z moments=   -1.0247E-03    0.0000E+00    1.2450E-04  setid=       0
 node=   529 local x,y,z forces =   -2.7441E+00    0.0000E+00    0.0000E+00  setid=       0
 node=   529 local x,y,z moments=    0.0000E+00    2.8512E-04   -3.9537E-04  setid=       0
 node=   530 local x,y,z forces =   -2.9293E+00    0.0000E+00    0.0000E+00  setid=       0
 node=   530 local x,y,z moments=    0.0000E+00    6.4018E-04   -2.2196E-04  setid=       0
 node=   531 local x,y,z forces =   -2.7182E+00    0.0000E+00    0.0000E+00  setid=       0
 node=   531 local x,y,z moments=    0.0000E+00    1.9406E-04   -3.6000E-04  setid=       0
 node=   532 local x,y,z forces =   -2.7248E+00    0.0000E+00    0.0000E+00  setid=       0
 node=   532 local x,y,z moments=    0.0000E+00    1.8012E-03   -4.5275E-04  setid=       0
 node=   545 local x,y,z forces =   -5.7480E+00    0.0000E+00    0.0000E+00  setid=       0
 node=   545 local x,y,z moments=    0.0000E+00    5.6031E-03   -1.3752E-03  setid=       0
 node=   546 local x,y,z forces =   -5.3470E+00    0.0000E+00    0.0000E+00  setid=       0
 node=   546 local x,y,z moments=    0.0000E+00    4.2816E-03   -1.7913E-03  setid=       0
 node=   547 local x,y,z forces =   -6.3847E+00    0.0000E+00    0.0000E+00  setid=       0
 node=   547 local x,y,z moments=    0.0000E+00   -3.3085E-03   -3.8521E-03  setid=       0
 node=   548 local x,y,z forces =   -8.9036E+00    0.0000E+00    0.0000E+00  setid=       0
 node=   548 local x,y,z moments=    0.0000E+00   -6.5831E-04   -4.9928E-03  setid=       0
 node=   561 local x,y,z forces =   -6.1392E+00    0.0000E+00    0.0000E+00  setid=       0
 node=   561 local x,y,z moments=    0.0000E+00    3.8357E-04    5.4199E-05  setid=       0
 node=   562 local x,y,z forces =   -6.5918E+00    0.0000E+00    0.0000E+00  setid=       0
 node=   562 local x,y,z moments=    0.0000E+00    3.3912E-04   -1.0170E-04  setid=       0
 node=   563 local x,y,z forces =   -5.8745E+00    0.0000E+00    0.0000E+00  setid=       0
 node=   563 local x,y,z moments=    0.0000E+00    8.5425E-05   -1.6499E-04  setid=       0
 node=   564 local x,y,z forces =   -5.3549E+00    0.0000E+00    0.0000E+00  setid=       0
 node=   564 local x,y,z moments=    0.0000E+00   -4.6803E-05   -9.3038E-06  setid=       0
 node=   571 local x,y,z forces =   -6.6297E+00    0.0000E+00    0.0000E+00  setid=       0
 node=   571 local x,y,z moments=    0.0000E+00    8.3401E-04   -2.2244E-03  setid=       0
 node=   572 local x,y,z forces =   -6.7836E+00    0.0000E+00    0.0000E+00  setid=       0
 node=   572 local x,y,z moments=    0.0000E+00   -3.8194E-04   -3.2008E-04  setid=       0
 node=   585 local x,y,z forces =   -2.4139E+00    0.0000E+00    0.0000E+00  setid=       0
 node=   585 local x,y,z moments=    0.0000E+00    8.6655E-04    2.3216E-04  setid=       0
 node=   586 local x,y,z forces =   -2.5488E+00    0.0000E+00    0.0000E+00  setid=       0
 node=   586 local x,y,z moments=    0.0000E+00    1.1709E-03   -3.2244E-04  setid=       0
 node=   587 local x,y,z forces =   -3.5657E+00    0.0000E+00    0.0000E+00  setid=       0
 node=   587 local x,y,z moments=    0.0000E+00   -6.6139E-04    1.3708E-04  setid=       0
 node=   588 local x,y,z forces =   -3.5981E+00    0.0000E+00    0.0000E+00  setid=       0
 node=   588 local x,y,z moments=    0.0000E+00    1.2874E-04   -2.2644E-04  setid=       0
 node=   601 local x,y,z forces =   -5.0624E+00    0.0000E+00    0.0000E+00  setid=       0
 node=   601 local x,y,z moments=    0.0000E+00   -2.0787E-03   -3.3187E-03  setid=       0
 node=   602 local x,y,z forces =   -3.8540E+00    0.0000E+00    0.0000E+00  setid=       0
 node=   602 local x,y,z moments=    0.0000E+00   -4.8997E-03   -2.3475E-03  setid=       0
 node=   603 local x,y,z forces =    1.4207E+01    0.0000E+00    0.0000E+00  setid=       0
 node=   603 local x,y,z moments=    0.0000E+00    1.6223E-03    7.3677E-04  setid=       0
 node=   604 local x,y,z forces =    1.3255E+01    0.0000E+00    0.0000E+00  setid=       0
 node=   604 local x,y,z moments=    0.0000E+00   -3.0910E-04    1.1673E-03  setid=       0
 node=   617 local x,y,z forces =   -7.8055E+00    0.0000E+00    0.0000E+00  setid=       0
 node=   617 local x,y,z moments=    0.0000E+00    9.4573E-04   -3.1908E-04  setid=       0
 node=   618 local x,y,z forces =   -7.7092E+00    0.0000E+00    0.0000E+00  setid=       0
 node=   618 local x,y,z moments=    0.0000E+00    1.6716E-03   -6.6783E-04  setid=       0
 node=   619 local x,y,z forces =   -7.7351E+00    0.0000E+00    0.0000E+00  setid=       0
 node=   619 local x,y,z moments=    0.0000E+00    4.8343E-04   -1.0606E-03  setid=       0
 node=   620 local x,y,z forces =   -7.8938E+00    0.0000E+00    0.0000E+00  setid=       0
 node=   620 local x,y,z moments=    0.0000E+00    1.1202E-03   -6.6245E-04  setid=       0
 node=   633 local x,y,z forces =   -4.4102E+00    0.0000E+00    0.0000E+00  setid=       0
 node=   633 local x,y,z moments=    0.0000E+00    1.4390E-04    1.8429E-04  setid=       0
 node=   634 local x,y,z forces =   -4.5778E+00    0.0000E+00    0.0000E+00  setid=       0
 node=   634 local x,y,z moments=    0.0000E+00    1.2128E-04   -1.5130E-04  setid=       0
 node=   635 local x,y,z forces =   -3.7201E+00    0.0000E+00    0.0000E+00  setid=       0
 node=   635 local x,y,z moments=    0.0000E+00    8.9415E-04    2.4704E-04  setid=       0
 node=   636 local x,y,z forces =   -3.7583E+00    0.0000E+00    0.0000E+00  setid=       0
 node=   636 local x,y,z moments=    0.0000E+00    5.3107E-04    1.7595E-04  setid=       0
 node=   646 local x,y,z forces =   -8.1346E+00    0.0000E+00    0.0000E+00  setid=       0
 node=   646 local x,y,z moments=    0.0000E+00   -7.0342E-03   -7.3239E-03  setid=       0
 node=   647 local x,y,z forces =    7.6393E+00    0.0000E+00    0.0000E+00  setid=       0
 node=   647 local x,y,z moments=    0.0000E+00   -5.7772E-03    2.3194E-03  setid=       0
 node=   648 local x,y,z forces =    2.7466E+00    0.0000E+00    0.0000E+00  setid=       0
 node=   648 local x,y,z moments=    0.0000E+00   -1.8436E-02    2.2548E-03  setid=       0
 node=   658 local x,y,z forces =   -2.9241E+00    0.0000E+00    0.0000E+00  setid=       0
 node=   658 local x,y,z moments=    0.0000E+00    1.7598E-03   -1.1899E-03  setid=       0
 node=   659 local x,y,z forces =   -2.5906E+00    0.0000E+00    0.0000E+00  setid=       0
 node=   659 local x,y,z moments=    0.0000E+00    1.3798E-03   -6.8214E-05  setid=       0
 node=   660 local x,y,z forces =   -4.6084E+00    0.0000E+00    0.0000E+00  setid=       0
 node=   660 local x,y,z moments=    0.0000E+00    2.6987E-03   -1.4890E-03  setid=       0
 node=   670 local x,y,z forces =   -2.1153E+00    0.0000E+00    0.0000E+00  setid=       0
 node=   670 local x,y,z moments=    0.0000E+00    9.7764E-05   -4.7236E-04  setid=       0
 node=   671 local x,y,z forces =   -4.6450E+00    0.0000E+00    0.0000E+00  setid=       0
 node=   671 local x,y,z moments=    0.0000E+00   -4.1157E-04   -5.1094E-06  setid=       0
 node=   672 local x,y,z forces =   -1.8469E+00    0.0000E+00    0.0000E+00  setid=       0
 node=   672 local x,y,z moments=    0.0000E+00    1.7821E-04   -7.4311E-05  setid=       0
 node=   679 local x,y,z forces =   -3.2329E+00    0.0000E+00    0.0000E+00  setid=       0
 node=   679 local x,y,z moments=    0.0000E+00   -4.6407E-03   -3.1382E-03  setid=       0
 node=   680 local x,y,z forces =    1.4735E+01    0.0000E+00    0.0000E+00  setid=       0
 node=   680 local x,y,z moments=    0.0000E+00    1.4230E-03    9.7329E-04  setid=       0
 node=   693 local x,y,z forces =   -2.5901E+00    0.0000E+00    0.0000E+00  setid=       0
 node=   693 local x,y,z moments=    0.0000E+00   -5.9837E-04   -1.8408E-04  setid=       0
 node=   694 local x,y,z forces =   -2.4032E+00    0.0000E+00    0.0000E+00  setid=       0
 node=   694 local x,y,z moments=    0.0000E+00   -4.0606E-04   -9.6542E-05  setid=       0
 node=   695 local x,y,z forces =   -7.7470E+00    0.0000E+00    0.0000E+00  setid=       0
 node=   695 local x,y,z moments=    0.0000E+00    8.9286E-04   -2.4463E-04  setid=       0
 node=   696 local x,y,z forces =   -7.4611E+00    0.0000E+00    0.0000E+00  setid=       0
 node=   696 local x,y,z moments=    0.0000E+00    4.3359E-04   -4.9058E-05  setid=       0
 node=   700 local x,y,z forces =   -4.0484E+00    0.0000E+00    0.0000E+00  setid=       0
 node=   700 local x,y,z moments=    0.0000E+00    2.0564E-03   -9.1243E-04  setid=       0
 node=   707 local x,y,z forces =   -2.8176E+00    0.0000E+00    0.0000E+00  setid=       0
 node=   707 local x,y,z moments=    0.0000E+00    7.1420E-05   -3.5934E-04  setid=       0
 node=   708 local x,y,z forces =   -3.4727E+00    0.0000E+00    0.0000E+00  setid=       0
 node=   708 local x,y,z moments=    0.0000E+00    2.4542E-03   -5.4144E-04  setid=       0
 node=   712 local x,y,z forces =   -3.5397E+00    0.0000E+00    0.0000E+00  setid=       0
 node=   712 local x,y,z moments=    0.0000E+00    1.0675E-02   -2.3801E-03  setid=       0
 node=   716 local x,y,z forces =   -3.2300E+00    0.0000E+00    0.0000E+00  setid=       0
 node=   716 local x,y,z moments=    0.0000E+00    2.0885E-04   -9.2155E-04  setid=       0
 node=   723 local x,y,z forces =   -7.2876E+00    0.0000E+00    0.0000E+00  setid=       0
 node=   723 local x,y,z moments=    0.0000E+00    2.3395E-03   -1.6892E-03  setid=       0
 node=   724 local x,y,z forces =   -6.2291E+00    0.0000E+00    0.0000E+00  setid=       0
 node=   724 local x,y,z moments=    0.0000E+00   -1.4436E-03    5.2699E-04  setid=       0
 node=   731 local x,y,z forces =   -4.0642E+00    0.0000E+00    0.0000E+00  setid=       0
 node=   731 local x,y,z moments=    0.0000E+00   -4.3873E-04   -6.4141E-05  setid=       0
 node=   732 local x,y,z forces =   -1.3040E+00    0.0000E+00    0.0000E+00  setid=       0
 node=   732 local x,y,z moments=    0.0000E+00    5.4320E-04    2.3764E-04  setid=       0
 node=   739 local x,y,z forces =   -7.0324E+00    0.0000E+00    0.0000E+00  setid=       0
 node=   739 local x,y,z moments=    0.0000E+00    4.7469E-04   -1.5227E-04  setid=       0
 node=   740 local x,y,z forces =   -6.3822E+00    0.0000E+00    0.0000E+00  setid=       0
 node=   740 local x,y,z moments=    0.0000E+00    3.0563E-04   -2.9065E-04  setid=       0
 node=   750 local x,y,z forces =   -1.4759E+00    0.0000E+00    0.0000E+00  setid=       0
 node=   750 local x,y,z moments=    0.0000E+00    5.4533E-04   -5.8567E-04  setid=       0
 node=   751 local x,y,z forces =   -4.9930E-01    0.0000E+00    0.0000E+00  setid=       0
 node=   751 local x,y,z moments=    0.0000E+00    2.2424E-04   -6.8547E-04  setid=       0
 node=   752 local x,y,z forces =   -6.3209E+00    0.0000E+00    0.0000E+00  setid=       0
 node=   752 local x,y,z moments=    0.0000E+00    2.1027E-04   -1.2140E-03  setid=       0
 node=   756 local x,y,z forces =   -2.5135E+00    0.0000E+00    0.0000E+00  setid=       0
 node=   756 local x,y,z moments=    0.0000E+00    8.2994E-04   -2.0306E-05  setid=       0
 node=   763 local x,y,z forces =    6.5545E-01    0.0000E+00    0.0000E+00  setid=       0
 node=   763 local x,y,z moments=    0.0000E+00    1.6210E-03   -7.2753E-04  setid=       0
 node=   764 local x,y,z forces =   -3.9596E+00    0.0000E+00    0.0000E+00  setid=       0
 node=   764 local x,y,z moments=    0.0000E+00    2.5042E-03   -3.0047E-03  setid=       0
 node=   771 local x,y,z forces =   -5.1061E+00    0.0000E+00    0.0000E+00  setid=       0
 node=   771 local x,y,z moments=    0.0000E+00   -1.4730E-04   -6.2522E-05  setid=       0
 node=   772 local x,y,z forces =   -5.5021E+00    0.0000E+00    0.0000E+00  setid=       0
 node=   772 local x,y,z moments=    0.0000E+00   -3.6791E-04   -7.3501E-04  setid=       0
 node=   776 local x,y,z forces =   -2.0975E+00    0.0000E+00    0.0000E+00  setid=       0
 node=   776 local x,y,z moments=    0.0000E+00   -8.9660E-04   -2.6031E-04  setid=       0
 node=   780 local x,y,z forces =   -4.3513E+00    0.0000E+00    0.0000E+00  setid=       0
 node=   780 local x,y,z moments=    0.0000E+00   -1.9234E-05   -2.2463E-04  setid=       0
 node=   790 local x,y,z forces =   -4.5444E+00    0.0000E+00    0.0000E+00  setid=       0
 node=   790 local x,y,z moments=    0.0000E+00   -4.4572E-04   -2.5210E-04  setid=       0
 node=   791 local x,y,z forces =   -4.2103E+00    0.0000E+00    0.0000E+00  setid=       0
 node=   791 local x,y,z moments=    0.0000E+00    2.1750E-05   -1.8321E-04  setid=       0
 node=   792 local x,y,z forces =   -3.7379E+00    0.0000E+00    0.0000E+00  setid=       0
 node=   792 local x,y,z moments=    0.0000E+00   -1.1205E-03   -2.6505E-04  setid=       0
 node=   799 local x,y,z forces =   -5.4302E+00    0.0000E+00    0.0000E+00  setid=       0
 node=   799 local x,y,z moments=    0.0000E+00    1.1267E-04    6.4005E-06  setid=       0
 node=   800 local x,y,z forces =   -5.1067E+00    0.0000E+00    0.0000E+00  setid=       0
 node=   800 local x,y,z moments=    0.0000E+00   -2.3593E-04   -1.8741E-04  setid=       0
 node=   804 local x,y,z forces =   -3.7167E+00    0.0000E+00    0.0000E+00  setid=       0
 node=   804 local x,y,z moments=    0.0000E+00   -1.1026E-03   -2.4828E-04  setid=       0
 node=   811 local x,y,z forces =   -1.3367E+00    0.0000E+00    0.0000E+00  setid=       0
 node=   811 local x,y,z moments=    0.0000E+00    9.3430E-05   -4.6937E-04  setid=       0
 node=   812 local x,y,z forces =   -3.1756E+00    0.0000E+00    0.0000E+00  setid=       0
 node=   812 local x,y,z moments=    0.0000E+00    5.0759E-04   -8.0220E-04  setid=       0
 node=   819 local x,y,z forces =   -6.9440E+00    0.0000E+00    0.0000E+00  setid=       0
 node=   819 local x,y,z moments=    0.0000E+00   -8.8372E-04   -1.9015E-05  setid=       0
 node=   820 local x,y,z forces =   -6.8970E+00    0.0000E+00    0.0000E+00  setid=       0
 node=   820 local x,y,z moments=    0.0000E+00    8.0917E-05   -1.2329E-03  setid=       0
 node=   824 local x,y,z forces =    1.1775E+01    0.0000E+00    0.0000E+00  setid=       0
 node=   824 local x,y,z moments=    0.0000E+00   -1.5790E-03    1.2899E-03  setid=       0
 node=   828 local x,y,z forces =   -2.4813E+00    0.0000E+00    0.0000E+00  setid=       0
 node=   828 local x,y,z moments=    0.0000E+00    1.3195E-04   -6.8824E-04  setid=       0
 node=   841 local x,y,z forces =   -6.3778E+00    0.0000E+00    0.0000E+00  setid=       0
 node=   841 local x,y,z moments=    0.0000E+00   -6.2061E-04   -8.4604E-04  setid=       0
 node=   842 local x,y,z forces =   -6.9236E+00    0.0000E+00    0.0000E+00  setid=       0
 node=   842 local x,y,z moments=    0.0000E+00   -1.1703E-04    2.5293E-04  setid=       0
 node=   843 local x,y,z forces =   -7.2894E+00    0.0000E+00    0.0000E+00  setid=       0
 node=   843 local x,y,z moments=    0.0000E+00    9.5665E-04   -1.5726E-03  setid=       0
 node=   844 local x,y,z forces =   -5.1859E+00    0.0000E+00    0.0000E+00  setid=       0
 node=   844 local x,y,z moments=    0.0000E+00   -1.6397E-04   -1.3338E-03  setid=       0
 node=   848 local x,y,z forces =   -7.4434E+00    0.0000E+00    0.0000E+00  setid=       0
 node=   848 local x,y,z moments=    0.0000E+00    3.5862E-04   -2.3318E-04  setid=       0
 node=   855 local x,y,z forces =    2.0833E+00    0.0000E+00    0.0000E+00  setid=       0
 node=   855 local x,y,z moments=    0.0000E+00    7.3912E-03    1.6282E-02  setid=       0
 node=   856 local x,y,z forces =    6.3235E+00    0.0000E+00    0.0000E+00  setid=       0
 node=   856 local x,y,z moments=    0.0000E+00   -4.5285E-02    8.6483E-03  setid=       0
 node=   860 local x,y,z forces =   -6.9722E+00    0.0000E+00    0.0000E+00  setid=       0
 node=   860 local x,y,z moments=    0.0000E+00    3.4613E-04   -3.6103E-06  setid=       0
 node=   864 local x,y,z forces =   -2.8652E+00    0.0000E+00    0.0000E+00  setid=       0
 node=   864 local x,y,z moments=    0.0000E+00    3.1610E-04   -7.8922E-04  setid=       0
 node=   868 local x,y,z forces =   -1.9859E+00    0.0000E+00    0.0000E+00  setid=       0
 node=   868 local x,y,z moments=    0.0000E+00   -3.4212E-04   -1.6350E-04  setid=       0
 node=   875 local x,y,z forces =   -2.0944E+00    0.0000E+00    0.0000E+00  setid=       0
 node=   875 local x,y,z moments=    0.0000E+00    1.6861E-03    1.2628E-03  setid=       0
 node=   876 local x,y,z forces =   -3.4941E+00    0.0000E+00    0.0000E+00  setid=       0
 node=   876 local x,y,z moments=    0.0000E+00    4.8757E-03    2.6979E-03  setid=       0
 node=   880 local x,y,z forces =    5.9504E-01    0.0000E+00    0.0000E+00  setid=       0
 node=   880 local x,y,z moments=    0.0000E+00    1.6247E-02    5.7943E-03  setid=       0
 node=   884 local x,y,z forces =   -9.7512E-01    0.0000E+00    0.0000E+00  setid=       0
 node=   884 local x,y,z moments=    0.0000E+00    5.0806E-04    6.0498E-04  setid=       0
 node=   894 local x,y,z forces =   -4.9932E+00    0.0000E+00    0.0000E+00  setid=       0
 node=   894 local x,y,z moments=    0.0000E+00   -3.0782E-04   -1.4098E-04  setid=       0
 node=   895 local x,y,z forces =   -4.7341E+00    0.0000E+00    0.0000E+00  setid=       0
 node=   895 local x,y,z moments=    0.0000E+00   -3.1452E-04    1.6290E-04  setid=       0
 node=   896 local x,y,z forces =   -5.7765E+00    0.0000E+00    0.0000E+00  setid=       0
 node=   896 local x,y,z moments=    0.0000E+00   -1.5845E-03   -3.2728E-04  setid=       0
 node=   900 local x,y,z forces =   -3.1546E+00    0.0000E+00    0.0000E+00  setid=       0
 node=   900 local x,y,z moments=    0.0000E+00   -7.2586E-04   -2.9131E-04  setid=       0
 node=   904 local x,y,z forces =   -4.2580E+00    0.0000E+00    0.0000E+00  setid=       0
 node=   904 local x,y,z moments=    0.0000E+00    2.6147E-04    2.5475E-04  setid=       0
 node=   908 local x,y,z forces =   -1.4648E+00    0.0000E+00    0.0000E+00  setid=       0
 node=   908 local x,y,z moments=    0.0000E+00    8.7367E-04    3.3292E-04  setid=       0
             force resultants   =   -1.3904E+02   -2.2856E+02    1.7316E+03
