 LS-DYNA keyword deck by LS-PrePost                                      
                    ls-dyna smp d R14 R14.1.1s_1_ef50e1 date 06/16/2024

 n o d a l   f o r c e/e n e r g y    o u t p u t  t=   0.00000E+00

 velocity boundary condition forces/rigid body moments 

 nd#     179  xforce=   0.0000E+00   yforce=   0.0000E+00  zforce=   0.0000E+00   energy=   0.0000E+00   setid =     179 xmoment=   0.0000E+00 ymoment=   0.0000E+00 zmoment=   0.0000E+00
 nd#     180  xforce=   0.0000E+00   yforce=   0.0000E+00  zforce=   0.0000E+00   energy=   0.0000E+00   setid =     180 xmoment=   0.0000E+00 ymoment=   0.0000E+00 zmoment=   0.0000E+00
 nd#     181  xforce=   0.0000E+00   yforce=   0.0000E+00  zforce=   0.0000E+00   energy=   0.0000E+00   setid =     181 xmoment=   0.0000E+00 ymoment=   0.0000E+00 zmoment=   0.0000E+00
 nd#     182  xforce=   0.0000E+00   yforce=   0.0000E+00  zforce=   0.0000E+00   energy=   0.0000E+00   setid =     182 xmoment=   0.0000E+00 ymoment=   0.0000E+00 zmoment=   0.0000E+00
 nd#     248  xforce=   0.0000E+00   yforce=   0.0000E+00  zforce=   0.0000E+00   energy=   0.0000E+00   setid =     248 xmoment=   0.0000E+00 ymoment=   0.0000E+00 zmoment=   0.0000E+00
 nd#     284  xforce=   0.0000E+00   yforce=   0.0000E+00  zforce=   0.0000E+00   energy=   0.0000E+00   setid =     284 xmoment=   0.0000E+00 ymoment=   0.0000E+00 zmoment=   0.0000E+00
 nd#     333  xforce=   0.0000E+00   yforce=   0.0000E+00  zforce=   0.0000E+00   energy=   0.0000E+00   setid =     333 xmoment=   0.0000E+00 ymoment=   0.0000E+00 zmoment=   0.0000E+00
 nd#     334  xforce=   0.0000E+00   yforce=   0.0000E+00  zforce=   0.0000E+00   energy=   0.0000E+00   setid =     334 xmoment=   0.0000E+00 ymoment=   0.0000E+00 zmoment=   0.0000E+00
 nd#     335  xforce=   0.0000E+00   yforce=   0.0000E+00  zforce=   0.0000E+00   energy=   0.0000E+00   setid =     335 xmoment=   0.0000E+00 ymoment=   0.0000E+00 zmoment=   0.0000E+00
 nd#     436  xforce=   0.0000E+00   yforce=   0.0000E+00  zforce=   0.0000E+00   energy=   0.0000E+00   setid =     436 xmoment=   0.0000E+00 ymoment=   0.0000E+00 zmoment=   0.0000E+00
 nd#     628  xforce=   0.0000E+00   yforce=   0.0000E+00  zforce=   0.0000E+00   energy=   0.0000E+00   setid =     628 xmoment=   0.0000E+00 ymoment=   0.0000E+00 zmoment=   0.0000E+00
 nd#     631  xforce=   0.0000E+00   yforce=   0.0000E+00  zforce=   0.0000E+00   energy=   0.0000E+00   setid =     631 xmoment=   0.0000E+00 ymoment=   0.0000E+00 zmoment=   0.0000E+00
 nd#     632  xforce=   0.0000E+00   yforce=   0.0000E+00  zforce=   0.0000E+00   energy=   0.0000E+00   setid =     632 xmoment=   0.0000E+00 ymoment=   0.0000E+00 zmoment=   0.0000E+00
 nd#     635  xforce=   0.0000E+00   yforce=   0.0000E+00  zforce=   0.0000E+00   energy=   0.0000E+00   setid =     635 xmoment=   0.0000E+00 ymoment=   0.0000E+00 zmoment=   0.0000E+00
 nd#     636  xforce=   0.0000E+00   yforce=   0.0000E+00  zforce=   0.0000E+00   energy=   0.0000E+00   setid =     636 xmoment=   0.0000E+00 ymoment=   0.0000E+00 zmoment=   0.0000E+00
 nd#     639  xforce=   0.0000E+00   yforce=   0.0000E+00  zforce=   0.0000E+00   energy=   0.0000E+00   setid =     639 xmoment=   0.0000E+00 ymoment=   0.0000E+00 zmoment=   0.0000E+00
 nd#     692  xforce=   0.0000E+00   yforce=   0.0000E+00  zforce=   0.0000E+00   energy=   0.0000E+00   setid =     692 xmoment=   0.0000E+00 ymoment=   0.0000E+00 zmoment=   0.0000E+00
 nd#     694  xforce=   0.0000E+00   yforce=   0.0000E+00  zforce=   0.0000E+00   energy=   0.0000E+00   setid =     694 xmoment=   0.0000E+00 ymoment=   0.0000E+00 zmoment=   0.0000E+00
 nd#     696  xforce=   0.0000E+00   yforce=   0.0000E+00  zforce=   0.0000E+00   energy=   0.0000E+00   setid =     696 xmoment=   0.0000E+00 ymoment=   0.0000E+00 zmoment=   0.0000E+00
 nd#     900  xforce=   0.0000E+00   yforce=   0.0000E+00  zforce=   0.0000E+00   energy=   0.0000E+00   setid =     900 xmoment=   0.0000E+00 ymoment=   0.0000E+00 zmoment=   0.0000E+00
 nd#     902  xforce=   0.0000E+00   yforce=   0.0000E+00  zforce=   0.0000E+00   energy=   0.0000E+00   setid =     902 xmoment=   0.0000E+00 ymoment=   0.0000E+00 zmoment=   0.0000E+00
 nd#     903  xforce=   0.0000E+00   yforce=   0.0000E+00  zforce=   0.0000E+00   energy=   0.0000E+00   setid =     903 xmoment=   0.0000E+00 ymoment=   0.0000E+00 zmoment=   0.0000E+00
 nd#     905  xforce=   0.0000E+00   yforce=   0.0000E+00  zforce=   0.0000E+00   energy=   0.0000E+00   setid =     905 xmoment=   0.0000E+00 ymoment=   0.0000E+00 zmoment=   0.0000E+00
 nd#     906  xforce=   0.0000E+00   yforce=   0.0000E+00  zforce=   0.0000E+00   energy=   0.0000E+00   setid =     906 xmoment=   0.0000E+00 ymoment=   0.0000E+00 zmoment=   0.0000E+00
 nd#     908  xforce=   0.0000E+00   yforce=   0.0000E+00  zforce=   0.0000E+00   energy=   0.0000E+00   setid =     908 xmoment=   0.0000E+00 ymoment=   0.0000E+00 zmoment=   0.0000E+00
 nd#    1012  xforce=   0.0000E+00   yforce=   0.0000E+00  zforce=   0.0000E+00   energy=   0.0000E+00   setid =    1012 xmoment=   0.0000E+00 ymoment=   0.0000E+00 zmoment=   0.0000E+00
 nd#    1013  xforce=   0.0000E+00   yforce=   0.0000E+00  zforce=   0.0000E+00   energy=   0.0000E+00   setid =    1013 xmoment=   0.0000E+00 ymoment=   0.0000E+00 zmoment=   0.0000E+00
 nd#    1014  xforce=   0.0000E+00   yforce=   0.0000E+00  zforce=   0.0000E+00   energy=   0.0000E+00   setid =    1014 xmoment=   0.0000E+00 ymoment=   0.0000E+00 zmoment=   0.0000E+00
 nd#    1060  xforce=   0.0000E+00   yforce=   0.0000E+00  zforce=   0.0000E+00   energy=   0.0000E+00   setid =    1060 xmoment=   0.0000E+00 ymoment=   0.0000E+00 zmoment=   0.0000E+00
 nd#    1061  xforce=   0.0000E+00   yforce=   0.0000E+00  zforce=   0.0000E+00   energy=   0.0000E+00   setid =    1061 xmoment=   0.0000E+00 ymoment=   0.0000E+00 zmoment=   0.0000E+00
 nd#    1062  xforce=   0.0000E+00   yforce=   0.0000E+00  zforce=   0.0000E+00   energy=   0.0000E+00   setid =    1062 xmoment=   0.0000E+00 ymoment=   0.0000E+00 zmoment=   0.0000E+00
              xtotal=   0.0000E+00   ytotal=   0.0000E+00  ztotal=   0.0000E+00   etotal=   0.0000E+00

 n o d a l   f o r c e/e n e r g y    o u t p u t  t=   1.29245E+00

 velocity boundary condition forces/rigid body moments 

 nd#     179  xforce=   0.0000E+00   yforce=   0.0000E+00  zforce=  -7.3015E+01   energy=   9.5558E-04   setid =     179 xmoment=   0.0000E+00 ymoment=   0.0000E+00 zmoment=   0.0000E+00
 nd#     180  xforce=   0.0000E+00   yforce=   0.0000E+00  zforce=  -7.7889E+01   energy=   1.0224E-03   setid =     180 xmoment=   0.0000E+00 ymoment=   0.0000E+00 zmoment=   0.0000E+00
 nd#     181  xforce=   0.0000E+00   yforce=   0.0000E+00  zforce=  -1.0914E+02   energy=   1.4002E-03   setid =     181 xmoment=   0.0000E+00 ymoment=   0.0000E+00 zmoment=   0.0000E+00
 nd#     182  xforce=   0.0000E+00   yforce=   0.0000E+00  zforce=  -9.5729E+01   energy=   1.2339E-03   setid =     182 xmoment=   0.0000E+00 ymoment=   0.0000E+00 zmoment=   0.0000E+00
 nd#     248  xforce=   0.0000E+00   yforce=   0.0000E+00  zforce=  -1.0484E+02   energy=   1.3328E-03   setid =     248 xmoment=   0.0000E+00 ymoment=   0.0000E+00 zmoment=   0.0000E+00
 nd#     284  xforce=   0.0000E+00   yforce=   0.0000E+00  zforce=  -1.0097E+02   energy=   1.2868E-03   setid =     284 xmoment=   0.0000E+00 ymoment=   0.0000E+00 zmoment=   0.0000E+00
 nd#     333  xforce=   0.0000E+00   yforce=   0.0000E+00  zforce=  -7.6296E+01   energy=   1.0061E-03   setid =     333 xmoment=   0.0000E+00 ymoment=   0.0000E+00 zmoment=   0.0000E+00
 nd#     334  xforce=   0.0000E+00   yforce=   0.0000E+00  zforce=  -4.5793E+01   energy=   6.0302E-04   setid =     334 xmoment=   0.0000E+00 ymoment=   0.0000E+00 zmoment=   0.0000E+00
 nd#     335  xforce=   0.0000E+00   yforce=   0.0000E+00  zforce=  -9.3589E+01   energy=   1.2200E-03   setid =     335 xmoment=   0.0000E+00 ymoment=   0.0000E+00 zmoment=   0.0000E+00
 nd#     436  xforce=   0.0000E+00   yforce=   0.0000E+00  zforce=  -9.2213E+01   energy=   1.1959E-03   setid =     436 xmoment=   0.0000E+00 ymoment=   0.0000E+00 zmoment=   0.0000E+00
 nd#     628  xforce=   0.0000E+00   yforce=   0.0000E+00  zforce=  -9.3534E+01   energy=   1.2182E-03   setid =     628 xmoment=   0.0000E+00 ymoment=   0.0000E+00 zmoment=   0.0000E+00
 nd#     631  xforce=   0.0000E+00   yforce=   0.0000E+00  zforce=  -8.9881E+01   energy=   1.1670E-03   setid =     631 xmoment=   0.0000E+00 ymoment=   0.0000E+00 zmoment=   0.0000E+00
 nd#     632  xforce=   0.0000E+00   yforce=   0.0000E+00  zforce=  -7.2631E+01   energy=   9.5245E-04   setid =     632 xmoment=   0.0000E+00 ymoment=   0.0000E+00 zmoment=   0.0000E+00
 nd#     635  xforce=   0.0000E+00   yforce=   0.0000E+00  zforce=  -6.9037E+01   energy=   9.0499E-04   setid =     635 xmoment=   0.0000E+00 ymoment=   0.0000E+00 zmoment=   0.0000E+00
 nd#     636  xforce=   0.0000E+00   yforce=   0.0000E+00  zforce=  -9.2712E+01   energy=   1.2070E-03   setid =     636 xmoment=   0.0000E+00 ymoment=   0.0000E+00 zmoment=   0.0000E+00
 nd#     639  xforce=   0.0000E+00   yforce=   0.0000E+00  zforce=  -8.8116E+01   energy=   1.1448E-03   setid =     639 xmoment=   0.0000E+00 ymoment=   0.0000E+00 zmoment=   0.0000E+00
 nd#     692  xforce=   0.0000E+00   yforce=   0.0000E+00  zforce=  -9.6424E+01   energy=   1.2599E-03   setid =     692 xmoment=   0.0000E+00 ymoment=   0.0000E+00 zmoment=   0.0000E+00
 nd#     694  xforce=   0.0000E+00   yforce=   0.0000E+00  zforce=  -7.5644E+01   energy=   9.9266E-04   setid =     694 xmoment=   0.0000E+00 ymoment=   0.0000E+00 zmoment=   0.0000E+00
 nd#     696  xforce=   0.0000E+00   yforce=   0.0000E+00  zforce=  -9.6481E+01   energy=   1.2588E-03   setid =     696 xmoment=   0.0000E+00 ymoment=   0.0000E+00 zmoment=   0.0000E+00
 nd#     900  xforce=   0.0000E+00   yforce=   0.0000E+00  zforce=  -9.6609E+01   energy=   1.2726E-03   setid =     900 xmoment=   0.0000E+00 ymoment=   0.0000E+00 zmoment=   0.0000E+00
 nd#     902  xforce=   0.0000E+00   yforce=   0.0000E+00  zforce=  -9.8456E+01   energy=   1.2910E-03   setid =     902 xmoment=   0.0000E+00 ymoment=   0.0000E+00 zmoment=   0.0000E+00
 nd#     903  xforce=   0.0000E+00   yforce=   0.0000E+00  zforce=  -7.2411E+01   energy=   9.5964E-04   setid =     903 xmoment=   0.0000E+00 ymoment=   0.0000E+00 zmoment=   0.0000E+00
 nd#     905  xforce=   0.0000E+00   yforce=   0.0000E+00  zforce=  -7.7454E+01   energy=   1.0182E-03   setid =     905 xmoment=   0.0000E+00 ymoment=   0.0000E+00 zmoment=   0.0000E+00
 nd#     906  xforce=   0.0000E+00   yforce=   0.0000E+00  zforce=  -9.6480E+01   energy=   1.2686E-03   setid =     906 xmoment=   0.0000E+00 ymoment=   0.0000E+00 zmoment=   0.0000E+00
 nd#     908  xforce=   0.0000E+00   yforce=   0.0000E+00  zforce=  -9.9408E+01   energy=   1.3002E-03   setid =     908 xmoment=   0.0000E+00 ymoment=   0.0000E+00 zmoment=   0.0000E+00
 nd#    1012  xforce=   0.0000E+00   yforce=   0.0000E+00  zforce=  -8.5607E+01   energy=   1.1081E-03   setid =    1012 xmoment=   0.0000E+00 ymoment=   0.0000E+00 zmoment=   0.0000E+00
 nd#    1013  xforce=   0.0000E+00   yforce=   0.0000E+00  zforce=  -6.5173E+01   energy=   8.5359E-04   setid =    1013 xmoment=   0.0000E+00 ymoment=   0.0000E+00 zmoment=   0.0000E+00
 nd#    1014  xforce=   0.0000E+00   yforce=   0.0000E+00  zforce=  -8.3641E+01   energy=   1.0833E-03   setid =    1014 xmoment=   0.0000E+00 ymoment=   0.0000E+00 zmoment=   0.0000E+00
 nd#    1060  xforce=   0.0000E+00   yforce=   0.0000E+00  zforce=  -2.4869E+01   energy=   3.3045E-04   setid =    1060 xmoment=   0.0000E+00 ymoment=   0.0000E+00 zmoment=   0.0000E+00
 nd#    1061  xforce=   0.0000E+00   yforce=   0.0000E+00  zforce=  -7.3771E+00   energy=   1.1962E-04   setid =    1061 xmoment=   0.0000E+00 ymoment=   0.0000E+00 zmoment=   0.0000E+00
 nd#    1062  xforce=   0.0000E+00   yforce=   0.0000E+00  zforce=  -8.4284E+00   energy=   1.4103E-04   setid =    1062 xmoment=   0.0000E+00 ymoment=   0.0000E+00 zmoment=   0.0000E+00
              xtotal=   0.0000E+00   ytotal=   0.0000E+00  ztotal=  -2.4598E+03   etotal=   3.2109E-02

 n o d a l   f o r c e/e n e r g y    o u t p u t  t=   2.54839E+00

 velocity boundary condition forces/rigid body moments 

 nd#     179  xforce=   0.0000E+00   yforce=   0.0000E+00  zforce=  -1.0718E+02   energy=   3.2188E-03   setid =     179 xmoment=   0.0000E+00 ymoment=   0.0000E+00 zmoment=   0.0000E+00
 nd#     180  xforce=   0.0000E+00   yforce=   0.0000E+00  zforce=  -1.3565E+02   energy=   3.7043E-03   setid =     180 xmoment=   0.0000E+00 ymoment=   0.0000E+00 zmoment=   0.0000E+00
 nd#     181  xforce=   0.0000E+00   yforce=   0.0000E+00  zforce=  -1.3872E+02   energy=   4.5132E-03   setid =     181 xmoment=   0.0000E+00 ymoment=   0.0000E+00 zmoment=   0.0000E+00
 nd#     182  xforce=   0.0000E+00   yforce=   0.0000E+00  zforce=  -1.2002E+02   energy=   3.9435E-03   setid =     182 xmoment=   0.0000E+00 ymoment=   0.0000E+00 zmoment=   0.0000E+00
 nd#     248  xforce=   0.0000E+00   yforce=   0.0000E+00  zforce=  -2.0200E+02   energy=   5.1865E-03   setid =     248 xmoment=   0.0000E+00 ymoment=   0.0000E+00 zmoment=   0.0000E+00
 nd#     284  xforce=   0.0000E+00   yforce=   0.0000E+00  zforce=  -4.3903E+01   energy=   3.1064E-03   setid =     284 xmoment=   0.0000E+00 ymoment=   0.0000E+00 zmoment=   0.0000E+00
 nd#     333  xforce=   0.0000E+00   yforce=   0.0000E+00  zforce=  -1.8744E+02   energy=   4.3185E-03   setid =     333 xmoment=   0.0000E+00 ymoment=   0.0000E+00 zmoment=   0.0000E+00
 nd#     334  xforce=   0.0000E+00   yforce=   0.0000E+00  zforce=  -9.9733E+01   energy=   2.4307E-03   setid =     334 xmoment=   0.0000E+00 ymoment=   0.0000E+00 zmoment=   0.0000E+00
 nd#     335  xforce=   0.0000E+00   yforce=   0.0000E+00  zforce=  -1.4142E+02   energy=   4.1716E-03   setid =     335 xmoment=   0.0000E+00 ymoment=   0.0000E+00 zmoment=   0.0000E+00
 nd#     436  xforce=   0.0000E+00   yforce=   0.0000E+00  zforce=  -1.3645E+02   energy=   4.0677E-03   setid =     436 xmoment=   0.0000E+00 ymoment=   0.0000E+00 zmoment=   0.0000E+00
 nd#     628  xforce=   0.0000E+00   yforce=   0.0000E+00  zforce=  -9.6524E+01   energy=   3.6052E-03   setid =     628 xmoment=   0.0000E+00 ymoment=   0.0000E+00 zmoment=   0.0000E+00
 nd#     631  xforce=   0.0000E+00   yforce=   0.0000E+00  zforce=  -9.9098E+01   energy=   3.5405E-03   setid =     631 xmoment=   0.0000E+00 ymoment=   0.0000E+00 zmoment=   0.0000E+00
 nd#     632  xforce=   0.0000E+00   yforce=   0.0000E+00  zforce=  -8.8022E+01   energy=   2.9702E-03   setid =     632 xmoment=   0.0000E+00 ymoment=   0.0000E+00 zmoment=   0.0000E+00
 nd#     635  xforce=   0.0000E+00   yforce=   0.0000E+00  zforce=  -8.9067E+01   energy=   2.8907E-03   setid =     635 xmoment=   0.0000E+00 ymoment=   0.0000E+00 zmoment=   0.0000E+00
 nd#     636  xforce=   0.0000E+00   yforce=   0.0000E+00  zforce=  -1.1220E+02   energy=   3.7806E-03   setid =     636 xmoment=   0.0000E+00 ymoment=   0.0000E+00 zmoment=   0.0000E+00
 nd#     639  xforce=   0.0000E+00   yforce=   0.0000E+00  zforce=  -1.1556E+02   energy=   3.7029E-03   setid =     639 xmoment=   0.0000E+00 ymoment=   0.0000E+00 zmoment=   0.0000E+00
 nd#     692  xforce=   0.0000E+00   yforce=   0.0000E+00  zforce=  -9.1984E+01   energy=   3.6262E-03   setid =     692 xmoment=   0.0000E+00 ymoment=   0.0000E+00 zmoment=   0.0000E+00
 nd#     694  xforce=   0.0000E+00   yforce=   0.0000E+00  zforce=  -8.7011E+01   energy=   3.0355E-03   setid =     694 xmoment=   0.0000E+00 ymoment=   0.0000E+00 zmoment=   0.0000E+00
 nd#     696  xforce=   0.0000E+00   yforce=   0.0000E+00  zforce=  -1.0665E+02   energy=   3.8100E-03   setid =     696 xmoment=   0.0000E+00 ymoment=   0.0000E+00 zmoment=   0.0000E+00
 nd#     900  xforce=   0.0000E+00   yforce=   0.0000E+00  zforce=  -6.2689E+01   energy=   3.2733E-03   setid =     900 xmoment=   0.0000E+00 ymoment=   0.0000E+00 zmoment=   0.0000E+00
 nd#     902  xforce=   0.0000E+00   yforce=   0.0000E+00  zforce=  -8.4920E+01   energy=   3.5941E-03   setid =     902 xmoment=   0.0000E+00 ymoment=   0.0000E+00 zmoment=   0.0000E+00
 nd#     903  xforce=   0.0000E+00   yforce=   0.0000E+00  zforce=  -7.1445E+01   energy=   2.7664E-03   setid =     903 xmoment=   0.0000E+00 ymoment=   0.0000E+00 zmoment=   0.0000E+00
 nd#     905  xforce=   0.0000E+00   yforce=   0.0000E+00  zforce=  -8.4384E+01   energy=   3.0508E-03   setid =     905 xmoment=   0.0000E+00 ymoment=   0.0000E+00 zmoment=   0.0000E+00
 nd#     906  xforce=   0.0000E+00   yforce=   0.0000E+00  zforce=  -7.4047E+01   energy=   3.4104E-03   setid =     906 xmoment=   0.0000E+00 ymoment=   0.0000E+00 zmoment=   0.0000E+00
 nd#     908  xforce=   0.0000E+00   yforce=   0.0000E+00  zforce=  -9.5695E+01   energy=   3.7506E-03   setid =     908 xmoment=   0.0000E+00 ymoment=   0.0000E+00 zmoment=   0.0000E+00
 nd#    1012  xforce=   0.0000E+00   yforce=   0.0000E+00  zforce=  -1.0141E+02   energy=   3.4570E-03   setid =    1012 xmoment=   0.0000E+00 ymoment=   0.0000E+00 zmoment=   0.0000E+00
 nd#    1013  xforce=   0.0000E+00   yforce=   0.0000E+00  zforce=  -9.1041E+01   energy=   2.8156E-03   setid =    1013 xmoment=   0.0000E+00 ymoment=   0.0000E+00 zmoment=   0.0000E+00
 nd#    1014  xforce=   0.0000E+00   yforce=   0.0000E+00  zforce=  -1.2044E+02   energy=   3.6465E-03   setid =    1014 xmoment=   0.0000E+00 ymoment=   0.0000E+00 zmoment=   0.0000E+00
 nd#    1060  xforce=   0.0000E+00   yforce=   0.0000E+00  zforce=  -2.3682E+01   energy=   9.4022E-04   setid =    1060 xmoment=   0.0000E+00 ymoment=   0.0000E+00 zmoment=   0.0000E+00
 nd#    1061  xforce=   0.0000E+00   yforce=   0.0000E+00  zforce=   4.1652E+00   energy=   1.5996E-04   setid =    1061 xmoment=   0.0000E+00 ymoment=   0.0000E+00 zmoment=   0.0000E+00
 nd#    1062  xforce=   0.0000E+00   yforce=   0.0000E+00  zforce=   2.4018E+00   energy=   2.1672E-04   setid =    1062 xmoment=   0.0000E+00 ymoment=   0.0000E+00 zmoment=   0.0000E+00
              xtotal=   0.0000E+00   ytotal=   0.0000E+00  ztotal=  -3.0018E+03   etotal=   1.0070E-01

 n o d a l   f o r c e/e n e r g y    o u t p u t  t=   3.17785E+00

 velocity boundary condition forces/rigid body moments 

 nd#     179  xforce=   0.0000E+00   yforce=   0.0000E+00  zforce=  -1.1918E+02   energy=   4.6437E-03   setid =     179 xmoment=   0.0000E+00 ymoment=   0.0000E+00 zmoment=   0.0000E+00
 nd#     180  xforce=   0.0000E+00   yforce=   0.0000E+00  zforce=  -1.5928E+02   energy=   5.5609E-03   setid =     180 xmoment=   0.0000E+00 ymoment=   0.0000E+00 zmoment=   0.0000E+00
 nd#     181  xforce=   0.0000E+00   yforce=   0.0000E+00  zforce=  -1.3381E+02   energy=   6.2287E-03   setid =     181 xmoment=   0.0000E+00 ymoment=   0.0000E+00 zmoment=   0.0000E+00
 nd#     182  xforce=   0.0000E+00   yforce=   0.0000E+00  zforce=  -1.2146E+02   energy=   5.4635E-03   setid =     182 xmoment=   0.0000E+00 ymoment=   0.0000E+00 zmoment=   0.0000E+00
 nd#     248  xforce=   0.0000E+00   yforce=   0.0000E+00  zforce=  -2.0991E+02   energy=   7.7792E-03   setid =     248 xmoment=   0.0000E+00 ymoment=   0.0000E+00 zmoment=   0.0000E+00
 nd#     284  xforce=   0.0000E+00   yforce=   0.0000E+00  zforce=   3.4280E+00   energy=   3.3611E-03   setid =     284 xmoment=   0.0000E+00 ymoment=   0.0000E+00 zmoment=   0.0000E+00
 nd#     333  xforce=   0.0000E+00   yforce=   0.0000E+00  zforce=  -2.2223E+02   energy=   6.8972E-03   setid =     333 xmoment=   0.0000E+00 ymoment=   0.0000E+00 zmoment=   0.0000E+00
 nd#     334  xforce=   0.0000E+00   yforce=   0.0000E+00  zforce=  -1.2219E+02   energy=   3.8277E-03   setid =     334 xmoment=   0.0000E+00 ymoment=   0.0000E+00 zmoment=   0.0000E+00
 nd#     335  xforce=   0.0000E+00   yforce=   0.0000E+00  zforce=  -1.5630E+02   energy=   6.0456E-03   setid =     335 xmoment=   0.0000E+00 ymoment=   0.0000E+00 zmoment=   0.0000E+00
 nd#     436  xforce=   0.0000E+00   yforce=   0.0000E+00  zforce=  -1.4631E+02   energy=   5.8476E-03   setid =     436 xmoment=   0.0000E+00 ymoment=   0.0000E+00 zmoment=   0.0000E+00
 nd#     628  xforce=   0.0000E+00   yforce=   0.0000E+00  zforce=  -1.0353E+02   energy=   4.8644E-03   setid =     628 xmoment=   0.0000E+00 ymoment=   0.0000E+00 zmoment=   0.0000E+00
 nd#     631  xforce=   0.0000E+00   yforce=   0.0000E+00  zforce=  -1.0553E+02   energy=   4.8286E-03   setid =     631 xmoment=   0.0000E+00 ymoment=   0.0000E+00 zmoment=   0.0000E+00
 nd#     632  xforce=   0.0000E+00   yforce=   0.0000E+00  zforce=  -9.2287E+01   energy=   4.1051E-03   setid =     632 xmoment=   0.0000E+00 ymoment=   0.0000E+00 zmoment=   0.0000E+00
 nd#     635  xforce=   0.0000E+00   yforce=   0.0000E+00  zforce=  -9.3215E+01   energy=   4.0381E-03   setid =     635 xmoment=   0.0000E+00 ymoment=   0.0000E+00 zmoment=   0.0000E+00
 nd#     636  xforce=   0.0000E+00   yforce=   0.0000E+00  zforce=  -1.1221E+02   energy=   5.1933E-03   setid =     636 xmoment=   0.0000E+00 ymoment=   0.0000E+00 zmoment=   0.0000E+00
 nd#     639  xforce=   0.0000E+00   yforce=   0.0000E+00  zforce=  -1.1551E+02   energy=   5.1573E-03   setid =     639 xmoment=   0.0000E+00 ymoment=   0.0000E+00 zmoment=   0.0000E+00
 nd#     692  xforce=   0.0000E+00   yforce=   0.0000E+00  zforce=  -9.6317E+01   energy=   4.8115E-03   setid =     692 xmoment=   0.0000E+00 ymoment=   0.0000E+00 zmoment=   0.0000E+00
 nd#     694  xforce=   0.0000E+00   yforce=   0.0000E+00  zforce=  -8.9801E+01   energy=   4.1485E-03   setid =     694 xmoment=   0.0000E+00 ymoment=   0.0000E+00 zmoment=   0.0000E+00
 nd#     696  xforce=   0.0000E+00   yforce=   0.0000E+00  zforce=  -1.0478E+02   energy=   5.1410E-03   setid =     696 xmoment=   0.0000E+00 ymoment=   0.0000E+00 zmoment=   0.0000E+00
 nd#     900  xforce=   0.0000E+00   yforce=   0.0000E+00  zforce=  -6.4836E+01   energy=   4.0760E-03   setid =     900 xmoment=   0.0000E+00 ymoment=   0.0000E+00 zmoment=   0.0000E+00
 nd#     902  xforce=   0.0000E+00   yforce=   0.0000E+00  zforce=  -8.5003E+01   energy=   4.6637E-03   setid =     902 xmoment=   0.0000E+00 ymoment=   0.0000E+00 zmoment=   0.0000E+00
 nd#     903  xforce=   0.0000E+00   yforce=   0.0000E+00  zforce=  -7.5185E+01   energy=   3.6894E-03   setid =     903 xmoment=   0.0000E+00 ymoment=   0.0000E+00 zmoment=   0.0000E+00
 nd#     905  xforce=   0.0000E+00   yforce=   0.0000E+00  zforce=  -8.4345E+01   energy=   4.1129E-03   setid =     905 xmoment=   0.0000E+00 ymoment=   0.0000E+00 zmoment=   0.0000E+00
 nd#     906  xforce=   0.0000E+00   yforce=   0.0000E+00  zforce=  -5.7805E+01   energy=   4.2403E-03   setid =     906 xmoment=   0.0000E+00 ymoment=   0.0000E+00 zmoment=   0.0000E+00
 nd#     908  xforce=   0.0000E+00   yforce=   0.0000E+00  zforce=  -8.8273E+01   energy=   4.9086E-03   setid =     908 xmoment=   0.0000E+00 ymoment=   0.0000E+00 zmoment=   0.0000E+00
 nd#    1012  xforce=   0.0000E+00   yforce=   0.0000E+00  zforce=  -1.0583E+02   energy=   4.7615E-03   setid =    1012 xmoment=   0.0000E+00 ymoment=   0.0000E+00 zmoment=   0.0000E+00
 nd#    1013  xforce=   0.0000E+00   yforce=   0.0000E+00  zforce=  -9.7088E+01   energy=   3.9998E-03   setid =    1013 xmoment=   0.0000E+00 ymoment=   0.0000E+00 zmoment=   0.0000E+00
 nd#    1014  xforce=   0.0000E+00   yforce=   0.0000E+00  zforce=  -1.2289E+02   energy=   5.1781E-03   setid =    1014 xmoment=   0.0000E+00 ymoment=   0.0000E+00 zmoment=   0.0000E+00
 nd#    1060  xforce=   0.0000E+00   yforce=   0.0000E+00  zforce=  -4.9092E+01   energy=   1.3983E-03   setid =    1060 xmoment=   0.0000E+00 ymoment=   0.0000E+00 zmoment=   0.0000E+00
 nd#    1061  xforce=   0.0000E+00   yforce=   0.0000E+00  zforce=  -2.0579E+00   energy=   1.4669E-04   setid =    1061 xmoment=   0.0000E+00 ymoment=   0.0000E+00 zmoment=   0.0000E+00
 nd#    1062  xforce=   0.0000E+00   yforce=   0.0000E+00  zforce=  -5.7018E+01   energy=   5.6051E-04   setid =    1062 xmoment=   0.0000E+00 ymoment=   0.0000E+00 zmoment=   0.0000E+00
              xtotal=   0.0000E+00   ytotal=   0.0000E+00  ztotal=  -3.1899E+03   etotal=   1.3968E-01

 n o d a l   f o r c e/e n e r g y    o u t p u t  t=   4.80495E+00

 velocity boundary condition forces/rigid body moments 

 nd#     179  xforce=   0.0000E+00   yforce=   0.0000E+00  zforce=  -1.5285E+02   energy=   9.0545E-03   setid =     179 xmoment=   0.0000E+00 ymoment=   0.0000E+00 zmoment=   0.0000E+00
 nd#     180  xforce=   0.0000E+00   yforce=   0.0000E+00  zforce=  -2.0495E+02   energy=   1.1440E-02   setid =     180 xmoment=   0.0000E+00 ymoment=   0.0000E+00 zmoment=   0.0000E+00
 nd#     181  xforce=   0.0000E+00   yforce=   0.0000E+00  zforce=  -1.1020E+02   energy=   1.0274E-02   setid =     181 xmoment=   0.0000E+00 ymoment=   0.0000E+00 zmoment=   0.0000E+00
 nd#     182  xforce=   0.0000E+00   yforce=   0.0000E+00  zforce=  -1.0904E+02   energy=   9.2910E-03   setid =     182 xmoment=   0.0000E+00 ymoment=   0.0000E+00 zmoment=   0.0000E+00
 nd#     248  xforce=   0.0000E+00   yforce=   0.0000E+00  zforce=  -2.2197E+02   energy=   1.5042E-02   setid =     248 xmoment=   0.0000E+00 ymoment=   0.0000E+00 zmoment=   0.0000E+00
 nd#     284  xforce=   0.0000E+00   yforce=   0.0000E+00  zforce=   4.4625E+01   energy=   2.6725E-03   setid =     284 xmoment=   0.0000E+00 ymoment=   0.0000E+00 zmoment=   0.0000E+00
 nd#     333  xforce=   0.0000E+00   yforce=   0.0000E+00  zforce=  -2.6002E+02   energy=   1.4650E-02   setid =     333 xmoment=   0.0000E+00 ymoment=   0.0000E+00 zmoment=   0.0000E+00
 nd#     334  xforce=   0.0000E+00   yforce=   0.0000E+00  zforce=  -1.5502E+02   energy=   8.2891E-03   setid =     334 xmoment=   0.0000E+00 ymoment=   0.0000E+00 zmoment=   0.0000E+00
 nd#     335  xforce=   0.0000E+00   yforce=   0.0000E+00  zforce=  -1.6479E+02   energy=   1.1214E-02   setid =     335 xmoment=   0.0000E+00 ymoment=   0.0000E+00 zmoment=   0.0000E+00
 nd#     436  xforce=   0.0000E+00   yforce=   0.0000E+00  zforce=  -1.5657E+02   energy=   1.0756E-02   setid =     436 xmoment=   0.0000E+00 ymoment=   0.0000E+00 zmoment=   0.0000E+00
 nd#     628  xforce=   0.0000E+00   yforce=   0.0000E+00  zforce=  -9.4955E+01   energy=   8.1125E-03   setid =     628 xmoment=   0.0000E+00 ymoment=   0.0000E+00 zmoment=   0.0000E+00
 nd#     631  xforce=   0.0000E+00   yforce=   0.0000E+00  zforce=  -9.7439E+01   energy=   8.1707E-03   setid =     631 xmoment=   0.0000E+00 ymoment=   0.0000E+00 zmoment=   0.0000E+00
 nd#     632  xforce=   0.0000E+00   yforce=   0.0000E+00  zforce=  -1.1437E+02   energy=   7.4652E-03   setid =     632 xmoment=   0.0000E+00 ymoment=   0.0000E+00 zmoment=   0.0000E+00
 nd#     635  xforce=   0.0000E+00   yforce=   0.0000E+00  zforce=  -1.1961E+02   energy=   7.5060E-03   setid =     635 xmoment=   0.0000E+00 ymoment=   0.0000E+00 zmoment=   0.0000E+00
 nd#     636  xforce=   0.0000E+00   yforce=   0.0000E+00  zforce=  -1.1503E+02   energy=   8.8902E-03   setid =     636 xmoment=   0.0000E+00 ymoment=   0.0000E+00 zmoment=   0.0000E+00
 nd#     639  xforce=   0.0000E+00   yforce=   0.0000E+00  zforce=  -1.2235E+02   energy=   9.0323E-03   setid =     639 xmoment=   0.0000E+00 ymoment=   0.0000E+00 zmoment=   0.0000E+00
 nd#     692  xforce=   0.0000E+00   yforce=   0.0000E+00  zforce=  -8.8815E+01   energy=   7.8394E-03   setid =     692 xmoment=   0.0000E+00 ymoment=   0.0000E+00 zmoment=   0.0000E+00
 nd#     694  xforce=   0.0000E+00   yforce=   0.0000E+00  zforce=  -1.0937E+02   energy=   7.3809E-03   setid =     694 xmoment=   0.0000E+00 ymoment=   0.0000E+00 zmoment=   0.0000E+00
 nd#     696  xforce=   0.0000E+00   yforce=   0.0000E+00  zforce=  -1.0552E+02   energy=   8.5558E-03   setid =     696 xmoment=   0.0000E+00 ymoment=   0.0000E+00 zmoment=   0.0000E+00
 nd#     900  xforce=   0.0000E+00   yforce=   0.0000E+00  zforce=  -5.5197E+01   energy=   6.0347E-03   setid =     900 xmoment=   0.0000E+00 ymoment=   0.0000E+00 zmoment=   0.0000E+00
 nd#     902  xforce=   0.0000E+00   yforce=   0.0000E+00  zforce=  -7.9224E+01   energy=   7.3635E-03   setid =     902 xmoment=   0.0000E+00 ymoment=   0.0000E+00 zmoment=   0.0000E+00
 nd#     903  xforce=   0.0000E+00   yforce=   0.0000E+00  zforce=  -8.8460E+01   energy=   6.2827E-03   setid =     903 xmoment=   0.0000E+00 ymoment=   0.0000E+00 zmoment=   0.0000E+00
 nd#     905  xforce=   0.0000E+00   yforce=   0.0000E+00  zforce=  -1.0181E+02   energy=   7.1247E-03   setid =     905 xmoment=   0.0000E+00 ymoment=   0.0000E+00 zmoment=   0.0000E+00
 nd#     906  xforce=   0.0000E+00   yforce=   0.0000E+00  zforce=  -5.7830E+01   energy=   6.1757E-03   setid =     906 xmoment=   0.0000E+00 ymoment=   0.0000E+00 zmoment=   0.0000E+00
 nd#     908  xforce=   0.0000E+00   yforce=   0.0000E+00  zforce=  -8.8458E+01   energy=   7.7847E-03   setid =     908 xmoment=   0.0000E+00 ymoment=   0.0000E+00 zmoment=   0.0000E+00
 nd#    1012  xforce=   0.0000E+00   yforce=   0.0000E+00  zforce=  -1.0082E+02   energy=   8.1853E-03   setid =    1012 xmoment=   0.0000E+00 ymoment=   0.0000E+00 zmoment=   0.0000E+00
 nd#    1013  xforce=   0.0000E+00   yforce=   0.0000E+00  zforce=  -1.2489E+02   energy=   7.6086E-03   setid =    1013 xmoment=   0.0000E+00 ymoment=   0.0000E+00 zmoment=   0.0000E+00
 nd#    1014  xforce=   0.0000E+00   yforce=   0.0000E+00  zforce=  -1.3432E+02   energy=   9.3785E-03   setid =    1014 xmoment=   0.0000E+00 ymoment=   0.0000E+00 zmoment=   0.0000E+00
 nd#    1060  xforce=   0.0000E+00   yforce=   0.0000E+00  zforce=  -5.5536E+01   energy=   3.0507E-03   setid =    1060 xmoment=   0.0000E+00 ymoment=   0.0000E+00 zmoment=   0.0000E+00
 nd#    1061  xforce=   0.0000E+00   yforce=   0.0000E+00  zforce=  -3.4157E+01   energy=   6.4774E-04   setid =    1061 xmoment=   0.0000E+00 ymoment=   0.0000E+00 zmoment=   0.0000E+00
 nd#    1062  xforce=   0.0000E+00   yforce=   0.0000E+00  zforce=  -5.6818E+01   energy=   2.1160E-03   setid =    1062 xmoment=   0.0000E+00 ymoment=   0.0000E+00 zmoment=   0.0000E+00
              xtotal=   0.0000E+00   ytotal=   0.0000E+00  ztotal=  -3.4358E+03   etotal=   2.4739E-01

 n o d a l   f o r c e/e n e r g y    o u t p u t  t=   5.80258E+00

 velocity boundary condition forces/rigid body moments 

 nd#     179  xforce=   0.0000E+00   yforce=   0.0000E+00  zforce=  -1.6895E+02   energy=   1.2265E-02   setid =     179 xmoment=   0.0000E+00 ymoment=   0.0000E+00 zmoment=   0.0000E+00
 nd#     180  xforce=   0.0000E+00   yforce=   0.0000E+00  zforce=  -2.2991E+02   energy=   1.5778E-02   setid =     180 xmoment=   0.0000E+00 ymoment=   0.0000E+00 zmoment=   0.0000E+00
 nd#     181  xforce=   0.0000E+00   yforce=   0.0000E+00  zforce=  -9.8548E+01   energy=   1.2356E-02   setid =     181 xmoment=   0.0000E+00 ymoment=   0.0000E+00 zmoment=   0.0000E+00
 nd#     182  xforce=   0.0000E+00   yforce=   0.0000E+00  zforce=  -9.7846E+01   energy=   1.1355E-02   setid =     182 xmoment=   0.0000E+00 ymoment=   0.0000E+00 zmoment=   0.0000E+00
 nd#     248  xforce=   0.0000E+00   yforce=   0.0000E+00  zforce=  -2.1238E+02   energy=   1.9375E-02   setid =     248 xmoment=   0.0000E+00 ymoment=   0.0000E+00 zmoment=   0.0000E+00
 nd#     284  xforce=   0.0000E+00   yforce=   0.0000E+00  zforce=   6.9408E+01   energy=   1.5349E-03   setid =     284 xmoment=   0.0000E+00 ymoment=   0.0000E+00 zmoment=   0.0000E+00
 nd#     333  xforce=   0.0000E+00   yforce=   0.0000E+00  zforce=  -2.8144E+02   energy=   2.0052E-02   setid =     333 xmoment=   0.0000E+00 ymoment=   0.0000E+00 zmoment=   0.0000E+00
 nd#     334  xforce=   0.0000E+00   yforce=   0.0000E+00  zforce=  -1.7523E+02   energy=   1.1584E-02   setid =     334 xmoment=   0.0000E+00 ymoment=   0.0000E+00 zmoment=   0.0000E+00
 nd#     335  xforce=   0.0000E+00   yforce=   0.0000E+00  zforce=  -1.6801E+02   energy=   1.4535E-02   setid =     335 xmoment=   0.0000E+00 ymoment=   0.0000E+00 zmoment=   0.0000E+00
 nd#     436  xforce=   0.0000E+00   yforce=   0.0000E+00  zforce=  -1.6165E+02   energy=   1.3931E-02   setid =     436 xmoment=   0.0000E+00 ymoment=   0.0000E+00 zmoment=   0.0000E+00
 nd#     628  xforce=   0.0000E+00   yforce=   0.0000E+00  zforce=  -9.0408E+01   energy=   9.9617E-03   setid =     628 xmoment=   0.0000E+00 ymoment=   0.0000E+00 zmoment=   0.0000E+00
 nd#     631  xforce=   0.0000E+00   yforce=   0.0000E+00  zforce=  -9.1262E+01   energy=   1.0053E-02   setid =     631 xmoment=   0.0000E+00 ymoment=   0.0000E+00 zmoment=   0.0000E+00
 nd#     632  xforce=   0.0000E+00   yforce=   0.0000E+00  zforce=  -1.2439E+02   energy=   9.8471E-03   setid =     632 xmoment=   0.0000E+00 ymoment=   0.0000E+00 zmoment=   0.0000E+00
 nd#     635  xforce=   0.0000E+00   yforce=   0.0000E+00  zforce=  -1.3055E+02   energy=   1.0002E-02   setid =     635 xmoment=   0.0000E+00 ymoment=   0.0000E+00 zmoment=   0.0000E+00
 nd#     636  xforce=   0.0000E+00   yforce=   0.0000E+00  zforce=  -1.1614E+02   energy=   1.1196E-02   setid =     636 xmoment=   0.0000E+00 ymoment=   0.0000E+00 zmoment=   0.0000E+00
 nd#     639  xforce=   0.0000E+00   yforce=   0.0000E+00  zforce=  -1.2303E+02   energy=   1.1480E-02   setid =     639 xmoment=   0.0000E+00 ymoment=   0.0000E+00 zmoment=   0.0000E+00
 nd#     692  xforce=   0.0000E+00   yforce=   0.0000E+00  zforce=  -8.6242E+01   energy=   9.5859E-03   setid =     692 xmoment=   0.0000E+00 ymoment=   0.0000E+00 zmoment=   0.0000E+00
 nd#     694  xforce=   0.0000E+00   yforce=   0.0000E+00  zforce=  -1.1828E+02   energy=   9.6520E-03   setid =     694 xmoment=   0.0000E+00 ymoment=   0.0000E+00 zmoment=   0.0000E+00
 nd#     696  xforce=   0.0000E+00   yforce=   0.0000E+00  zforce=  -1.0576E+02   energy=   1.0664E-02   setid =     696 xmoment=   0.0000E+00 ymoment=   0.0000E+00 zmoment=   0.0000E+00
 nd#     900  xforce=   0.0000E+00   yforce=   0.0000E+00  zforce=  -5.4008E+01   energy=   7.1242E-03   setid =     900 xmoment=   0.0000E+00 ymoment=   0.0000E+00 zmoment=   0.0000E+00
 nd#     902  xforce=   0.0000E+00   yforce=   0.0000E+00  zforce=  -7.9256E+01   energy=   8.9445E-03   setid =     902 xmoment=   0.0000E+00 ymoment=   0.0000E+00 zmoment=   0.0000E+00
 nd#     903  xforce=   0.0000E+00   yforce=   0.0000E+00  zforce=  -9.9358E+01   energy=   8.1564E-03   setid =     903 xmoment=   0.0000E+00 ymoment=   0.0000E+00 zmoment=   0.0000E+00
 nd#     905  xforce=   0.0000E+00   yforce=   0.0000E+00  zforce=  -1.1127E+02   energy=   9.2505E-03   setid =     905 xmoment=   0.0000E+00 ymoment=   0.0000E+00 zmoment=   0.0000E+00
 nd#     906  xforce=   0.0000E+00   yforce=   0.0000E+00  zforce=  -5.6981E+01   energy=   7.3211E-03   setid =     906 xmoment=   0.0000E+00 ymoment=   0.0000E+00 zmoment=   0.0000E+00
 nd#     908  xforce=   0.0000E+00   yforce=   0.0000E+00  zforce=  -8.5379E+01   energy=   9.5190E-03   setid =     908 xmoment=   0.0000E+00 ymoment=   0.0000E+00 zmoment=   0.0000E+00
 nd#    1012  xforce=   0.0000E+00   yforce=   0.0000E+00  zforce=  -9.4101E+01   energy=   1.0130E-02   setid =    1012 xmoment=   0.0000E+00 ymoment=   0.0000E+00 zmoment=   0.0000E+00
 nd#    1013  xforce=   0.0000E+00   yforce=   0.0000E+00  zforce=  -1.3696E+02   energy=   1.0221E-02   setid =    1013 xmoment=   0.0000E+00 ymoment=   0.0000E+00 zmoment=   0.0000E+00
 nd#    1014  xforce=   0.0000E+00   yforce=   0.0000E+00  zforce=  -1.3479E+02   energy=   1.2063E-02   setid =    1014 xmoment=   0.0000E+00 ymoment=   0.0000E+00 zmoment=   0.0000E+00
 nd#    1060  xforce=   0.0000E+00   yforce=   0.0000E+00  zforce=  -6.1018E+01   energy=   4.2134E-03   setid =    1060 xmoment=   0.0000E+00 ymoment=   0.0000E+00 zmoment=   0.0000E+00
 nd#    1061  xforce=   0.0000E+00   yforce=   0.0000E+00  zforce=  -4.7722E+01   energy=   1.4646E-03   setid =    1061 xmoment=   0.0000E+00 ymoment=   0.0000E+00 zmoment=   0.0000E+00
 nd#    1062  xforce=   0.0000E+00   yforce=   0.0000E+00  zforce=  -7.5750E+01   energy=   3.4385E-03   setid =    1062 xmoment=   0.0000E+00 ymoment=   0.0000E+00 zmoment=   0.0000E+00
              xtotal=   0.0000E+00   ytotal=   0.0000E+00  ztotal=  -3.5472E+03   etotal=   3.1705E-01

 n o d a l   f o r c e/e n e r g y    o u t p u t  t=   6.80021E+00

 velocity boundary condition forces/rigid body moments 

 nd#     179  xforce=   0.0000E+00   yforce=   0.0000E+00  zforce=  -1.7556E+02   energy=   1.5702E-02   setid =     179 xmoment=   0.0000E+00 ymoment=   0.0000E+00 zmoment=   0.0000E+00
 nd#     180  xforce=   0.0000E+00   yforce=   0.0000E+00  zforce=  -2.3130E+02   energy=   2.0379E-02   setid =     180 xmoment=   0.0000E+00 ymoment=   0.0000E+00 zmoment=   0.0000E+00
 nd#     181  xforce=   0.0000E+00   yforce=   0.0000E+00  zforce=  -1.0692E+02   energy=   1.4406E-02   setid =     181 xmoment=   0.0000E+00 ymoment=   0.0000E+00 zmoment=   0.0000E+00
 nd#     182  xforce=   0.0000E+00   yforce=   0.0000E+00  zforce=  -1.0545E+02   energy=   1.3383E-02   setid =     182 xmoment=   0.0000E+00 ymoment=   0.0000E+00 zmoment=   0.0000E+00
 nd#     248  xforce=   0.0000E+00   yforce=   0.0000E+00  zforce=  -2.2826E+02   energy=   2.3771E-02   setid =     248 xmoment=   0.0000E+00 ymoment=   0.0000E+00 zmoment=   0.0000E+00
 nd#     284  xforce=   0.0000E+00   yforce=   0.0000E+00  zforce=   5.9853E+01   energy=   2.4536E-04   setid =     284 xmoment=   0.0000E+00 ymoment=   0.0000E+00 zmoment=   0.0000E+00
 nd#     333  xforce=   0.0000E+00   yforce=   0.0000E+00  zforce=  -2.8011E+02   energy=   2.5654E-02   setid =     333 xmoment=   0.0000E+00 ymoment=   0.0000E+00 zmoment=   0.0000E+00
 nd#     334  xforce=   0.0000E+00   yforce=   0.0000E+00  zforce=  -1.6854E+02   energy=   1.5013E-02   setid =     334 xmoment=   0.0000E+00 ymoment=   0.0000E+00 zmoment=   0.0000E+00
 nd#     335  xforce=   0.0000E+00   yforce=   0.0000E+00  zforce=  -1.7358E+02   energy=   1.7942E-02   setid =     335 xmoment=   0.0000E+00 ymoment=   0.0000E+00 zmoment=   0.0000E+00
 nd#     436  xforce=   0.0000E+00   yforce=   0.0000E+00  zforce=  -1.6776E+02   energy=   1.7217E-02   setid =     436 xmoment=   0.0000E+00 ymoment=   0.0000E+00 zmoment=   0.0000E+00
 nd#     628  xforce=   0.0000E+00   yforce=   0.0000E+00  zforce=  -9.2706E+01   energy=   1.1789E-02   setid =     628 xmoment=   0.0000E+00 ymoment=   0.0000E+00 zmoment=   0.0000E+00
 nd#     631  xforce=   0.0000E+00   yforce=   0.0000E+00  zforce=  -9.4551E+01   energy=   1.1907E-02   setid =     631 xmoment=   0.0000E+00 ymoment=   0.0000E+00 zmoment=   0.0000E+00
 nd#     632  xforce=   0.0000E+00   yforce=   0.0000E+00  zforce=  -1.3092E+02   energy=   1.2394E-02   setid =     632 xmoment=   0.0000E+00 ymoment=   0.0000E+00 zmoment=   0.0000E+00
 nd#     635  xforce=   0.0000E+00   yforce=   0.0000E+00  zforce=  -1.3647E+02   energy=   1.2665E-02   setid =     635 xmoment=   0.0000E+00 ymoment=   0.0000E+00 zmoment=   0.0000E+00
 nd#     636  xforce=   0.0000E+00   yforce=   0.0000E+00  zforce=  -1.2153E+02   energy=   1.3568E-02   setid =     636 xmoment=   0.0000E+00 ymoment=   0.0000E+00 zmoment=   0.0000E+00
 nd#     639  xforce=   0.0000E+00   yforce=   0.0000E+00  zforce=  -1.2782E+02   energy=   1.3983E-02   setid =     639 xmoment=   0.0000E+00 ymoment=   0.0000E+00 zmoment=   0.0000E+00
 nd#     692  xforce=   0.0000E+00   yforce=   0.0000E+00  zforce=  -8.7693E+01   energy=   1.1321E-02   setid =     692 xmoment=   0.0000E+00 ymoment=   0.0000E+00 zmoment=   0.0000E+00
 nd#     694  xforce=   0.0000E+00   yforce=   0.0000E+00  zforce=  -1.2475E+02   energy=   1.2077E-02   setid =     694 xmoment=   0.0000E+00 ymoment=   0.0000E+00 zmoment=   0.0000E+00
 nd#     696  xforce=   0.0000E+00   yforce=   0.0000E+00  zforce=  -1.0993E+02   energy=   1.2815E-02   setid =     696 xmoment=   0.0000E+00 ymoment=   0.0000E+00 zmoment=   0.0000E+00
 nd#     900  xforce=   0.0000E+00   yforce=   0.0000E+00  zforce=  -5.4742E+01   energy=   8.2091E-03   setid =     900 xmoment=   0.0000E+00 ymoment=   0.0000E+00 zmoment=   0.0000E+00
 nd#     902  xforce=   0.0000E+00   yforce=   0.0000E+00  zforce=  -8.1087E+01   energy=   1.0544E-02   setid =     902 xmoment=   0.0000E+00 ymoment=   0.0000E+00 zmoment=   0.0000E+00
 nd#     903  xforce=   0.0000E+00   yforce=   0.0000E+00  zforce=  -1.0546E+02   energy=   1.0200E-02   setid =     903 xmoment=   0.0000E+00 ymoment=   0.0000E+00 zmoment=   0.0000E+00
 nd#     905  xforce=   0.0000E+00   yforce=   0.0000E+00  zforce=  -1.1908E+02   energy=   1.1549E-02   setid =     905 xmoment=   0.0000E+00 ymoment=   0.0000E+00 zmoment=   0.0000E+00
 nd#     906  xforce=   0.0000E+00   yforce=   0.0000E+00  zforce=  -5.6587E+01   energy=   8.4541E-03   setid =     906 xmoment=   0.0000E+00 ymoment=   0.0000E+00 zmoment=   0.0000E+00
 nd#     908  xforce=   0.0000E+00   yforce=   0.0000E+00  zforce=  -8.6801E+01   energy=   1.1237E-02   setid =     908 xmoment=   0.0000E+00 ymoment=   0.0000E+00 zmoment=   0.0000E+00
 nd#    1012  xforce=   0.0000E+00   yforce=   0.0000E+00  zforce=  -9.7098E+01   energy=   1.2037E-02   setid =    1012 xmoment=   0.0000E+00 ymoment=   0.0000E+00 zmoment=   0.0000E+00
 nd#    1013  xforce=   0.0000E+00   yforce=   0.0000E+00  zforce=  -1.4222E+02   energy=   1.3006E-02   setid =    1013 xmoment=   0.0000E+00 ymoment=   0.0000E+00 zmoment=   0.0000E+00
 nd#    1014  xforce=   0.0000E+00   yforce=   0.0000E+00  zforce=  -1.4002E+02   energy=   1.4805E-02   setid =    1014 xmoment=   0.0000E+00 ymoment=   0.0000E+00 zmoment=   0.0000E+00
 nd#    1060  xforce=   0.0000E+00   yforce=   0.0000E+00  zforce=  -6.4038E+01   energy=   5.4610E-03   setid =    1060 xmoment=   0.0000E+00 ymoment=   0.0000E+00 zmoment=   0.0000E+00
 nd#    1061  xforce=   0.0000E+00   yforce=   0.0000E+00  zforce=  -5.0712E+01   energy=   2.4466E-03   setid =    1061 xmoment=   0.0000E+00 ymoment=   0.0000E+00 zmoment=   0.0000E+00
 nd#    1062  xforce=   0.0000E+00   yforce=   0.0000E+00  zforce=  -7.5028E+01   energy=   4.9428E-03   setid =    1062 xmoment=   0.0000E+00 ymoment=   0.0000E+00 zmoment=   0.0000E+00
              xtotal=   0.0000E+00   ytotal=   0.0000E+00  ztotal=  -3.6769E+03   etotal=   3.8912E-01

 n o d a l   f o r c e/e n e r g y    o u t p u t  t=   7.79784E+00

 velocity boundary condition forces/rigid body moments 

 nd#     179  xforce=   0.0000E+00   yforce=   0.0000E+00  zforce=  -1.8582E+02   energy=   1.9307E-02   setid =     179 xmoment=   0.0000E+00 ymoment=   0.0000E+00 zmoment=   0.0000E+00
 nd#     180  xforce=   0.0000E+00   yforce=   0.0000E+00  zforce=  -2.4757E+02   energy=   2.5157E-02   setid =     180 xmoment=   0.0000E+00 ymoment=   0.0000E+00 zmoment=   0.0000E+00
 nd#     181  xforce=   0.0000E+00   yforce=   0.0000E+00  zforce=  -1.0108E+02   energy=   1.6481E-02   setid =     181 xmoment=   0.0000E+00 ymoment=   0.0000E+00 zmoment=   0.0000E+00
 nd#     182  xforce=   0.0000E+00   yforce=   0.0000E+00  zforce=  -9.9745E+01   energy=   1.5430E-02   setid =     182 xmoment=   0.0000E+00 ymoment=   0.0000E+00 zmoment=   0.0000E+00
 nd#     248  xforce=   0.0000E+00   yforce=   0.0000E+00  zforce=  -2.2262E+02   energy=   2.8269E-02   setid =     248 xmoment=   0.0000E+00 ymoment=   0.0000E+00 zmoment=   0.0000E+00
 nd#     284  xforce=   0.0000E+00   yforce=   0.0000E+00  zforce=   7.2448E+01   energy=  -1.0745E-03   setid =     284 xmoment=   0.0000E+00 ymoment=   0.0000E+00 zmoment=   0.0000E+00
 nd#     333  xforce=   0.0000E+00   yforce=   0.0000E+00  zforce=  -2.9202E+02   energy=   3.1362E-02   setid =     333 xmoment=   0.0000E+00 ymoment=   0.0000E+00 zmoment=   0.0000E+00
 nd#     334  xforce=   0.0000E+00   yforce=   0.0000E+00  zforce=  -1.8065E+02   energy=   1.8497E-02   setid =     334 xmoment=   0.0000E+00 ymoment=   0.0000E+00 zmoment=   0.0000E+00
 nd#     335  xforce=   0.0000E+00   yforce=   0.0000E+00  zforce=  -1.7613E+02   energy=   2.1431E-02   setid =     335 xmoment=   0.0000E+00 ymoment=   0.0000E+00 zmoment=   0.0000E+00
 nd#     436  xforce=   0.0000E+00   yforce=   0.0000E+00  zforce=  -1.7201E+02   energy=   2.0607E-02   setid =     436 xmoment=   0.0000E+00 ymoment=   0.0000E+00 zmoment=   0.0000E+00
 nd#     628  xforce=   0.0000E+00   yforce=   0.0000E+00  zforce=  -9.1193E+01   energy=   1.3623E-02   setid =     628 xmoment=   0.0000E+00 ymoment=   0.0000E+00 zmoment=   0.0000E+00
 nd#     631  xforce=   0.0000E+00   yforce=   0.0000E+00  zforce=  -9.2052E+01   energy=   1.3769E-02   setid =     631 xmoment=   0.0000E+00 ymoment=   0.0000E+00 zmoment=   0.0000E+00
 nd#     632  xforce=   0.0000E+00   yforce=   0.0000E+00  zforce=  -1.3755E+02   energy=   1.5072E-02   setid =     632 xmoment=   0.0000E+00 ymoment=   0.0000E+00 zmoment=   0.0000E+00
 nd#     635  xforce=   0.0000E+00   yforce=   0.0000E+00  zforce=  -1.4397E+02   energy=   1.5463E-02   setid =     635 xmoment=   0.0000E+00 ymoment=   0.0000E+00 zmoment=   0.0000E+00
 nd#     636  xforce=   0.0000E+00   yforce=   0.0000E+00  zforce=  -1.2326E+02   energy=   1.6010E-02   setid =     636 xmoment=   0.0000E+00 ymoment=   0.0000E+00 zmoment=   0.0000E+00
 nd#     639  xforce=   0.0000E+00   yforce=   0.0000E+00  zforce=  -1.3011E+02   energy=   1.6556E-02   setid =     639 xmoment=   0.0000E+00 ymoment=   0.0000E+00 zmoment=   0.0000E+00
 nd#     692  xforce=   0.0000E+00   yforce=   0.0000E+00  zforce=  -8.8259E+01   energy=   1.3076E-02   setid =     692 xmoment=   0.0000E+00 ymoment=   0.0000E+00 zmoment=   0.0000E+00
 nd#     694  xforce=   0.0000E+00   yforce=   0.0000E+00  zforce=  -1.3301E+02   energy=   1.4648E-02   setid =     694 xmoment=   0.0000E+00 ymoment=   0.0000E+00 zmoment=   0.0000E+00
 nd#     696  xforce=   0.0000E+00   yforce=   0.0000E+00  zforce=  -1.1287E+02   energy=   1.5038E-02   setid =     696 xmoment=   0.0000E+00 ymoment=   0.0000E+00 zmoment=   0.0000E+00
 nd#     900  xforce=   0.0000E+00   yforce=   0.0000E+00  zforce=  -5.6105E+01   energy=   9.3149E-03   setid =     900 xmoment=   0.0000E+00 ymoment=   0.0000E+00 zmoment=   0.0000E+00
 nd#     902  xforce=   0.0000E+00   yforce=   0.0000E+00  zforce=  -8.2976E+01   energy=   1.2181E-02   setid =     902 xmoment=   0.0000E+00 ymoment=   0.0000E+00 zmoment=   0.0000E+00
 nd#     903  xforce=   0.0000E+00   yforce=   0.0000E+00  zforce=  -1.1260E+02   energy=   1.2375E-02   setid =     903 xmoment=   0.0000E+00 ymoment=   0.0000E+00 zmoment=   0.0000E+00
 nd#     905  xforce=   0.0000E+00   yforce=   0.0000E+00  zforce=  -1.2555E+02   energy=   1.3989E-02   setid =     905 xmoment=   0.0000E+00 ymoment=   0.0000E+00 zmoment=   0.0000E+00
 nd#     906  xforce=   0.0000E+00   yforce=   0.0000E+00  zforce=  -6.2555E+01   energy=   9.6427E-03   setid =     906 xmoment=   0.0000E+00 ymoment=   0.0000E+00 zmoment=   0.0000E+00
 nd#     908  xforce=   0.0000E+00   yforce=   0.0000E+00  zforce=  -8.7934E+01   energy=   1.2980E-02   setid =     908 xmoment=   0.0000E+00 ymoment=   0.0000E+00 zmoment=   0.0000E+00
 nd#    1012  xforce=   0.0000E+00   yforce=   0.0000E+00  zforce=  -9.4227E+01   energy=   1.3946E-02   setid =    1012 xmoment=   0.0000E+00 ymoment=   0.0000E+00 zmoment=   0.0000E+00
 nd#    1013  xforce=   0.0000E+00   yforce=   0.0000E+00  zforce=  -1.4992E+02   energy=   1.5921E-02   setid =    1013 xmoment=   0.0000E+00 ymoment=   0.0000E+00 zmoment=   0.0000E+00
 nd#    1014  xforce=   0.0000E+00   yforce=   0.0000E+00  zforce=  -1.4173E+02   energy=   1.7616E-02   setid =    1014 xmoment=   0.0000E+00 ymoment=   0.0000E+00 zmoment=   0.0000E+00
 nd#    1060  xforce=   0.0000E+00   yforce=   0.0000E+00  zforce=  -6.5370E+01   energy=   6.7521E-03   setid =    1060 xmoment=   0.0000E+00 ymoment=   0.0000E+00 zmoment=   0.0000E+00
 nd#    1061  xforce=   0.0000E+00   yforce=   0.0000E+00  zforce=  -5.5155E+01   energy=   3.5028E-03   setid =    1061 xmoment=   0.0000E+00 ymoment=   0.0000E+00 zmoment=   0.0000E+00
 nd#    1062  xforce=   0.0000E+00   yforce=   0.0000E+00  zforce=  -7.9480E+01   energy=   6.4842E-03   setid =    1062 xmoment=   0.0000E+00 ymoment=   0.0000E+00 zmoment=   0.0000E+00
              xtotal=   0.0000E+00   ytotal=   0.0000E+00  ztotal=  -3.7711E+03   etotal=   4.6343E-01

 n o d a l   f o r c e/e n e r g y    o u t p u t  t=   8.79547E+00

 velocity boundary condition forces/rigid body moments 

 nd#     179  xforce=   0.0000E+00   yforce=   0.0000E+00  zforce=  -1.8992E+02   energy=   2.3056E-02   setid =     179 xmoment=   0.0000E+00 ymoment=   0.0000E+00 zmoment=   0.0000E+00
 nd#     180  xforce=   0.0000E+00   yforce=   0.0000E+00  zforce=  -2.5282E+02   energy=   3.0149E-02   setid =     180 xmoment=   0.0000E+00 ymoment=   0.0000E+00 zmoment=   0.0000E+00
 nd#     181  xforce=   0.0000E+00   yforce=   0.0000E+00  zforce=  -9.9613E+01   energy=   1.8483E-02   setid =     181 xmoment=   0.0000E+00 ymoment=   0.0000E+00 zmoment=   0.0000E+00
 nd#     182  xforce=   0.0000E+00   yforce=   0.0000E+00  zforce=  -9.8041E+01   energy=   1.7403E-02   setid =     182 xmoment=   0.0000E+00 ymoment=   0.0000E+00 zmoment=   0.0000E+00
 nd#     248  xforce=   0.0000E+00   yforce=   0.0000E+00  zforce=  -2.2199E+02   energy=   3.2705E-02   setid =     248 xmoment=   0.0000E+00 ymoment=   0.0000E+00 zmoment=   0.0000E+00
 nd#     284  xforce=   0.0000E+00   yforce=   0.0000E+00  zforce=   7.6557E+01   energy=  -2.5610E-03   setid =     284 xmoment=   0.0000E+00 ymoment=   0.0000E+00 zmoment=   0.0000E+00
 nd#     333  xforce=   0.0000E+00   yforce=   0.0000E+00  zforce=  -2.9548E+02   energy=   3.7223E-02   setid =     333 xmoment=   0.0000E+00 ymoment=   0.0000E+00 zmoment=   0.0000E+00
 nd#     334  xforce=   0.0000E+00   yforce=   0.0000E+00  zforce=  -1.8374E+02   energy=   2.2132E-02   setid =     334 xmoment=   0.0000E+00 ymoment=   0.0000E+00 zmoment=   0.0000E+00
 nd#     335  xforce=   0.0000E+00   yforce=   0.0000E+00  zforce=  -1.7677E+02   energy=   2.4952E-02   setid =     335 xmoment=   0.0000E+00 ymoment=   0.0000E+00 zmoment=   0.0000E+00
 nd#     436  xforce=   0.0000E+00   yforce=   0.0000E+00  zforce=  -1.7341E+02   energy=   2.4053E-02   setid =     436 xmoment=   0.0000E+00 ymoment=   0.0000E+00 zmoment=   0.0000E+00
 nd#     628  xforce=   0.0000E+00   yforce=   0.0000E+00  zforce=  -9.0609E+01   energy=   1.5437E-02   setid =     628 xmoment=   0.0000E+00 ymoment=   0.0000E+00 zmoment=   0.0000E+00
 nd#     631  xforce=   0.0000E+00   yforce=   0.0000E+00  zforce=  -9.1001E+01   energy=   1.5595E-02   setid =     631 xmoment=   0.0000E+00 ymoment=   0.0000E+00 zmoment=   0.0000E+00
 nd#     632  xforce=   0.0000E+00   yforce=   0.0000E+00  zforce=  -1.4121E+02   energy=   1.7853E-02   setid =     632 xmoment=   0.0000E+00 ymoment=   0.0000E+00 zmoment=   0.0000E+00
 nd#     635  xforce=   0.0000E+00   yforce=   0.0000E+00  zforce=  -1.4737E+02   energy=   1.8370E-02   setid =     635 xmoment=   0.0000E+00 ymoment=   0.0000E+00 zmoment=   0.0000E+00
 nd#     636  xforce=   0.0000E+00   yforce=   0.0000E+00  zforce=  -1.2441E+02   energy=   1.8481E-02   setid =     636 xmoment=   0.0000E+00 ymoment=   0.0000E+00 zmoment=   0.0000E+00
 nd#     639  xforce=   0.0000E+00   yforce=   0.0000E+00  zforce=  -1.3076E+02   energy=   1.9159E-02   setid =     639 xmoment=   0.0000E+00 ymoment=   0.0000E+00 zmoment=   0.0000E+00
 nd#     692  xforce=   0.0000E+00   yforce=   0.0000E+00  zforce=  -8.8246E+01   energy=   1.4837E-02   setid =     692 xmoment=   0.0000E+00 ymoment=   0.0000E+00 zmoment=   0.0000E+00
 nd#     694  xforce=   0.0000E+00   yforce=   0.0000E+00  zforce=  -1.3556E+02   energy=   1.7327E-02   setid =     694 xmoment=   0.0000E+00 ymoment=   0.0000E+00 zmoment=   0.0000E+00
 nd#     696  xforce=   0.0000E+00   yforce=   0.0000E+00  zforce=  -1.1409E+02   energy=   1.7302E-02   setid =     696 xmoment=   0.0000E+00 ymoment=   0.0000E+00 zmoment=   0.0000E+00
 nd#     900  xforce=   0.0000E+00   yforce=   0.0000E+00  zforce=  -5.7003E+01   energy=   1.0443E-02   setid =     900 xmoment=   0.0000E+00 ymoment=   0.0000E+00 zmoment=   0.0000E+00
 nd#     902  xforce=   0.0000E+00   yforce=   0.0000E+00  zforce=  -8.3277E+01   energy=   1.3839E-02   setid =     902 xmoment=   0.0000E+00 ymoment=   0.0000E+00 zmoment=   0.0000E+00
 nd#     903  xforce=   0.0000E+00   yforce=   0.0000E+00  zforce=  -1.1587E+02   energy=   1.4654E-02   setid =     903 xmoment=   0.0000E+00 ymoment=   0.0000E+00 zmoment=   0.0000E+00
 nd#     905  xforce=   0.0000E+00   yforce=   0.0000E+00  zforce=  -1.2714E+02   energy=   1.6510E-02   setid =     905 xmoment=   0.0000E+00 ymoment=   0.0000E+00 zmoment=   0.0000E+00
 nd#     906  xforce=   0.0000E+00   yforce=   0.0000E+00  zforce=  -6.2499E+01   energy=   1.0890E-02   setid =     906 xmoment=   0.0000E+00 ymoment=   0.0000E+00 zmoment=   0.0000E+00
 nd#     908  xforce=   0.0000E+00   yforce=   0.0000E+00  zforce=  -8.8600E+01   energy=   1.4741E-02   setid =     908 xmoment=   0.0000E+00 ymoment=   0.0000E+00 zmoment=   0.0000E+00
 nd#    1012  xforce=   0.0000E+00   yforce=   0.0000E+00  zforce=  -9.3168E+01   energy=   1.5816E-02   setid =    1012 xmoment=   0.0000E+00 ymoment=   0.0000E+00 zmoment=   0.0000E+00
 nd#    1013  xforce=   0.0000E+00   yforce=   0.0000E+00  zforce=  -1.5317E+02   energy=   1.8944E-02   setid =    1013 xmoment=   0.0000E+00 ymoment=   0.0000E+00 zmoment=   0.0000E+00
 nd#    1014  xforce=   0.0000E+00   yforce=   0.0000E+00  zforce=  -1.4183E+02   energy=   2.0445E-02   setid =    1014 xmoment=   0.0000E+00 ymoment=   0.0000E+00 zmoment=   0.0000E+00
 nd#    1060  xforce=   0.0000E+00   yforce=   0.0000E+00  zforce=  -6.5562E+01   energy=   8.0583E-03   setid =    1060 xmoment=   0.0000E+00 ymoment=   0.0000E+00 zmoment=   0.0000E+00
 nd#    1061  xforce=   0.0000E+00   yforce=   0.0000E+00  zforce=  -5.5476E+01   energy=   4.6065E-03   setid =    1061 xmoment=   0.0000E+00 ymoment=   0.0000E+00 zmoment=   0.0000E+00
 nd#    1062  xforce=   0.0000E+00   yforce=   0.0000E+00  zforce=  -8.1779E+01   energy=   8.0929E-03   setid =    1062 xmoment=   0.0000E+00 ymoment=   0.0000E+00 zmoment=   0.0000E+00
              xtotal=   0.0000E+00   ytotal=   0.0000E+00  ztotal=  -3.8038E+03   etotal=   5.3899E-01

 n o d a l   f o r c e/e n e r g y    o u t p u t  t=   9.79310E+00

 velocity boundary condition forces/rigid body moments 

 nd#     179  xforce=   0.0000E+00   yforce=   0.0000E+00  zforce=  -1.9406E+02   energy=   2.6886E-02   setid =     179 xmoment=   0.0000E+00 ymoment=   0.0000E+00 zmoment=   0.0000E+00
 nd#     180  xforce=   0.0000E+00   yforce=   0.0000E+00  zforce=  -2.5110E+02   energy=   3.5176E-02   setid =     180 xmoment=   0.0000E+00 ymoment=   0.0000E+00 zmoment=   0.0000E+00
 nd#     181  xforce=   0.0000E+00   yforce=   0.0000E+00  zforce=  -1.0967E+02   energy=   2.0571E-02   setid =     181 xmoment=   0.0000E+00 ymoment=   0.0000E+00 zmoment=   0.0000E+00
 nd#     182  xforce=   0.0000E+00   yforce=   0.0000E+00  zforce=  -1.0801E+02   energy=   1.9459E-02   setid =     182 xmoment=   0.0000E+00 ymoment=   0.0000E+00 zmoment=   0.0000E+00
 nd#     248  xforce=   0.0000E+00   yforce=   0.0000E+00  zforce=  -2.3991E+02   energy=   3.7313E-02   setid =     248 xmoment=   0.0000E+00 ymoment=   0.0000E+00 zmoment=   0.0000E+00
 nd#     284  xforce=   0.0000E+00   yforce=   0.0000E+00  zforce=   6.0315E+01   energy=  -3.9265E-03   setid =     284 xmoment=   0.0000E+00 ymoment=   0.0000E+00 zmoment=   0.0000E+00
 nd#     333  xforce=   0.0000E+00   yforce=   0.0000E+00  zforce=  -2.9150E+02   energy=   4.3079E-02   setid =     333 xmoment=   0.0000E+00 ymoment=   0.0000E+00 zmoment=   0.0000E+00
 nd#     334  xforce=   0.0000E+00   yforce=   0.0000E+00  zforce=  -1.7615E+02   energy=   2.5723E-02   setid =     334 xmoment=   0.0000E+00 ymoment=   0.0000E+00 zmoment=   0.0000E+00
 nd#     335  xforce=   0.0000E+00   yforce=   0.0000E+00  zforce=  -1.8402E+02   energy=   2.8551E-02   setid =     335 xmoment=   0.0000E+00 ymoment=   0.0000E+00 zmoment=   0.0000E+00
 nd#     436  xforce=   0.0000E+00   yforce=   0.0000E+00  zforce=  -1.8025E+02   energy=   2.7581E-02   setid =     436 xmoment=   0.0000E+00 ymoment=   0.0000E+00 zmoment=   0.0000E+00
 nd#     628  xforce=   0.0000E+00   yforce=   0.0000E+00  zforce=  -9.4966E+01   energy=   1.7288E-02   setid =     628 xmoment=   0.0000E+00 ymoment=   0.0000E+00 zmoment=   0.0000E+00
 nd#     631  xforce=   0.0000E+00   yforce=   0.0000E+00  zforce=  -9.5911E+01   energy=   1.7459E-02   setid =     631 xmoment=   0.0000E+00 ymoment=   0.0000E+00 zmoment=   0.0000E+00
 nd#     632  xforce=   0.0000E+00   yforce=   0.0000E+00  zforce=  -1.4555E+02   energy=   2.0714E-02   setid =     632 xmoment=   0.0000E+00 ymoment=   0.0000E+00 zmoment=   0.0000E+00
 nd#     635  xforce=   0.0000E+00   yforce=   0.0000E+00  zforce=  -1.5092E+02   energy=   2.1345E-02   setid =     635 xmoment=   0.0000E+00 ymoment=   0.0000E+00 zmoment=   0.0000E+00
 nd#     636  xforce=   0.0000E+00   yforce=   0.0000E+00  zforce=  -1.3049E+02   energy=   2.1023E-02   setid =     636 xmoment=   0.0000E+00 ymoment=   0.0000E+00 zmoment=   0.0000E+00
 nd#     639  xforce=   0.0000E+00   yforce=   0.0000E+00  zforce=  -1.3703E+02   energy=   2.1830E-02   setid =     639 xmoment=   0.0000E+00 ymoment=   0.0000E+00 zmoment=   0.0000E+00
 nd#     692  xforce=   0.0000E+00   yforce=   0.0000E+00  zforce=  -9.2330E+01   energy=   1.6639E-02   setid =     692 xmoment=   0.0000E+00 ymoment=   0.0000E+00 zmoment=   0.0000E+00
 nd#     694  xforce=   0.0000E+00   yforce=   0.0000E+00  zforce=  -1.4038E+02   energy=   2.0080E-02   setid =     694 xmoment=   0.0000E+00 ymoment=   0.0000E+00 zmoment=   0.0000E+00
 nd#     696  xforce=   0.0000E+00   yforce=   0.0000E+00  zforce=  -1.1961E+02   energy=   1.9634E-02   setid =     696 xmoment=   0.0000E+00 ymoment=   0.0000E+00 zmoment=   0.0000E+00
 nd#     900  xforce=   0.0000E+00   yforce=   0.0000E+00  zforce=  -5.8761E+01   energy=   1.1598E-02   setid =     900 xmoment=   0.0000E+00 ymoment=   0.0000E+00 zmoment=   0.0000E+00
 nd#     902  xforce=   0.0000E+00   yforce=   0.0000E+00  zforce=  -8.6569E+01   energy=   1.5534E-02   setid =     902 xmoment=   0.0000E+00 ymoment=   0.0000E+00 zmoment=   0.0000E+00
 nd#     903  xforce=   0.0000E+00   yforce=   0.0000E+00  zforce=  -1.2054E+02   energy=   1.7013E-02   setid =     903 xmoment=   0.0000E+00 ymoment=   0.0000E+00 zmoment=   0.0000E+00
 nd#     905  xforce=   0.0000E+00   yforce=   0.0000E+00  zforce=  -1.3135E+02   energy=   1.9089E-02   setid =     905 xmoment=   0.0000E+00 ymoment=   0.0000E+00 zmoment=   0.0000E+00
 nd#     906  xforce=   0.0000E+00   yforce=   0.0000E+00  zforce=  -6.4198E+01   energy=   1.2154E-02   setid =     906 xmoment=   0.0000E+00 ymoment=   0.0000E+00 zmoment=   0.0000E+00
 nd#     908  xforce=   0.0000E+00   yforce=   0.0000E+00  zforce=  -9.3100E+01   energy=   1.6554E-02   setid =     908 xmoment=   0.0000E+00 ymoment=   0.0000E+00 zmoment=   0.0000E+00
 nd#    1012  xforce=   0.0000E+00   yforce=   0.0000E+00  zforce=  -9.8282E+01   energy=   1.7726E-02   setid =    1012 xmoment=   0.0000E+00 ymoment=   0.0000E+00 zmoment=   0.0000E+00
 nd#    1013  xforce=   0.0000E+00   yforce=   0.0000E+00  zforce=  -1.5654E+02   energy=   2.2034E-02   setid =    1013 xmoment=   0.0000E+00 ymoment=   0.0000E+00 zmoment=   0.0000E+00
 nd#    1014  xforce=   0.0000E+00   yforce=   0.0000E+00  zforce=  -1.4908E+02   energy=   2.3347E-02   setid =    1014 xmoment=   0.0000E+00 ymoment=   0.0000E+00 zmoment=   0.0000E+00
 nd#    1060  xforce=   0.0000E+00   yforce=   0.0000E+00  zforce=  -6.6474E+01   energy=   9.3755E-03   setid =    1060 xmoment=   0.0000E+00 ymoment=   0.0000E+00 zmoment=   0.0000E+00
 nd#    1061  xforce=   0.0000E+00   yforce=   0.0000E+00  zforce=  -5.3447E+01   energy=   5.6931E-03   setid =    1061 xmoment=   0.0000E+00 ymoment=   0.0000E+00 zmoment=   0.0000E+00
 nd#    1062  xforce=   0.0000E+00   yforce=   0.0000E+00  zforce=  -7.5684E+01   energy=   9.6638E-03   setid =    1062 xmoment=   0.0000E+00 ymoment=   0.0000E+00 zmoment=   0.0000E+00
              xtotal=   0.0000E+00   ytotal=   0.0000E+00  ztotal=  -3.9356E+03   etotal=   6.1621E-01

 n o d a l   f o r c e/e n e r g y    o u t p u t  t=   1.07907E+01

 velocity boundary condition forces/rigid body moments 

 nd#     179  xforce=   0.0000E+00   yforce=   0.0000E+00  zforce=  -1.9977E+02   energy=   3.0815E-02   setid =     179 xmoment=   0.0000E+00 ymoment=   0.0000E+00 zmoment=   0.0000E+00
 nd#     180  xforce=   0.0000E+00   yforce=   0.0000E+00  zforce=  -2.6557E+02   energy=   4.0330E-02   setid =     180 xmoment=   0.0000E+00 ymoment=   0.0000E+00 zmoment=   0.0000E+00
 nd#     181  xforce=   0.0000E+00   yforce=   0.0000E+00  zforce=  -1.0418E+02   energy=   2.2705E-02   setid =     181 xmoment=   0.0000E+00 ymoment=   0.0000E+00 zmoment=   0.0000E+00
 nd#     182  xforce=   0.0000E+00   yforce=   0.0000E+00  zforce=  -1.0074E+02   energy=   2.1541E-02   setid =     182 xmoment=   0.0000E+00 ymoment=   0.0000E+00 zmoment=   0.0000E+00
 nd#     248  xforce=   0.0000E+00   yforce=   0.0000E+00  zforce=  -2.2695E+02   energy=   4.1970E-02   setid =     248 xmoment=   0.0000E+00 ymoment=   0.0000E+00 zmoment=   0.0000E+00
 nd#     284  xforce=   0.0000E+00   yforce=   0.0000E+00  zforce=   7.4192E+01   energy=  -5.2684E-03   setid =     284 xmoment=   0.0000E+00 ymoment=   0.0000E+00 zmoment=   0.0000E+00
 nd#     333  xforce=   0.0000E+00   yforce=   0.0000E+00  zforce=  -3.0115E+02   energy=   4.8991E-02   setid =     333 xmoment=   0.0000E+00 ymoment=   0.0000E+00 zmoment=   0.0000E+00
 nd#     334  xforce=   0.0000E+00   yforce=   0.0000E+00  zforce=  -1.8967E+02   energy=   2.9372E-02   setid =     334 xmoment=   0.0000E+00 ymoment=   0.0000E+00 zmoment=   0.0000E+00
 nd#     335  xforce=   0.0000E+00   yforce=   0.0000E+00  zforce=  -1.8211E+02   energy=   3.2204E-02   setid =     335 xmoment=   0.0000E+00 ymoment=   0.0000E+00 zmoment=   0.0000E+00
 nd#     436  xforce=   0.0000E+00   yforce=   0.0000E+00  zforce=  -1.8048E+02   energy=   3.1180E-02   setid =     436 xmoment=   0.0000E+00 ymoment=   0.0000E+00 zmoment=   0.0000E+00
 nd#     628  xforce=   0.0000E+00   yforce=   0.0000E+00  zforce=  -9.4225E+01   energy=   1.9176E-02   setid =     628 xmoment=   0.0000E+00 ymoment=   0.0000E+00 zmoment=   0.0000E+00
 nd#     631  xforce=   0.0000E+00   yforce=   0.0000E+00  zforce=  -9.3289E+01   energy=   1.9347E-02   setid =     631 xmoment=   0.0000E+00 ymoment=   0.0000E+00 zmoment=   0.0000E+00
 nd#     632  xforce=   0.0000E+00   yforce=   0.0000E+00  zforce=  -1.4961E+02   energy=   2.3659E-02   setid =     632 xmoment=   0.0000E+00 ymoment=   0.0000E+00 zmoment=   0.0000E+00
 nd#     635  xforce=   0.0000E+00   yforce=   0.0000E+00  zforce=  -1.5574E+02   energy=   2.4405E-02   setid =     635 xmoment=   0.0000E+00 ymoment=   0.0000E+00 zmoment=   0.0000E+00
 nd#     636  xforce=   0.0000E+00   yforce=   0.0000E+00  zforce=  -1.3067E+02   energy=   2.3629E-02   setid =     636 xmoment=   0.0000E+00 ymoment=   0.0000E+00 zmoment=   0.0000E+00
 nd#     639  xforce=   0.0000E+00   yforce=   0.0000E+00  zforce=  -1.3680E+02   energy=   2.4562E-02   setid =     639 xmoment=   0.0000E+00 ymoment=   0.0000E+00 zmoment=   0.0000E+00
 nd#     692  xforce=   0.0000E+00   yforce=   0.0000E+00  zforce=  -9.2327E+01   energy=   1.8481E-02   setid =     692 xmoment=   0.0000E+00 ymoment=   0.0000E+00 zmoment=   0.0000E+00
 nd#     694  xforce=   0.0000E+00   yforce=   0.0000E+00  zforce=  -1.4287E+02   energy=   2.2906E-02   setid =     694 xmoment=   0.0000E+00 ymoment=   0.0000E+00 zmoment=   0.0000E+00
 nd#     696  xforce=   0.0000E+00   yforce=   0.0000E+00  zforce=  -1.2013E+02   energy=   2.2025E-02   setid =     696 xmoment=   0.0000E+00 ymoment=   0.0000E+00 zmoment=   0.0000E+00
 nd#     900  xforce=   0.0000E+00   yforce=   0.0000E+00  zforce=  -6.1576E+01   energy=   1.2799E-02   setid =     900 xmoment=   0.0000E+00 ymoment=   0.0000E+00 zmoment=   0.0000E+00
 nd#     902  xforce=   0.0000E+00   yforce=   0.0000E+00  zforce=  -8.8235E+01   energy=   1.7278E-02   setid =     902 xmoment=   0.0000E+00 ymoment=   0.0000E+00 zmoment=   0.0000E+00
 nd#     903  xforce=   0.0000E+00   yforce=   0.0000E+00  zforce=  -1.2398E+02   energy=   1.9452E-02   setid =     903 xmoment=   0.0000E+00 ymoment=   0.0000E+00 zmoment=   0.0000E+00
 nd#     905  xforce=   0.0000E+00   yforce=   0.0000E+00  zforce=  -1.3433E+02   energy=   2.1739E-02   setid =     905 xmoment=   0.0000E+00 ymoment=   0.0000E+00 zmoment=   0.0000E+00
 nd#     906  xforce=   0.0000E+00   yforce=   0.0000E+00  zforce=  -6.7110E+01   energy=   1.3464E-02   setid =     906 xmoment=   0.0000E+00 ymoment=   0.0000E+00 zmoment=   0.0000E+00
 nd#     908  xforce=   0.0000E+00   yforce=   0.0000E+00  zforce=  -9.4350E+01   energy=   1.8424E-02   setid =     908 xmoment=   0.0000E+00 ymoment=   0.0000E+00 zmoment=   0.0000E+00
 nd#    1012  xforce=   0.0000E+00   yforce=   0.0000E+00  zforce=  -9.5331E+01   energy=   1.9657E-02   setid =    1012 xmoment=   0.0000E+00 ymoment=   0.0000E+00 zmoment=   0.0000E+00
 nd#    1013  xforce=   0.0000E+00   yforce=   0.0000E+00  zforce=  -1.6157E+02   energy=   2.5208E-02   setid =    1013 xmoment=   0.0000E+00 ymoment=   0.0000E+00 zmoment=   0.0000E+00
 nd#    1014  xforce=   0.0000E+00   yforce=   0.0000E+00  zforce=  -1.4836E+02   energy=   2.6314E-02   setid =    1014 xmoment=   0.0000E+00 ymoment=   0.0000E+00 zmoment=   0.0000E+00
 nd#    1060  xforce=   0.0000E+00   yforce=   0.0000E+00  zforce=  -6.7339E+01   energy=   1.0710E-02   setid =    1060 xmoment=   0.0000E+00 ymoment=   0.0000E+00 zmoment=   0.0000E+00
 nd#    1061  xforce=   0.0000E+00   yforce=   0.0000E+00  zforce=  -5.7403E+01   energy=   6.7990E-03   setid =    1061 xmoment=   0.0000E+00 ymoment=   0.0000E+00 zmoment=   0.0000E+00
 nd#    1062  xforce=   0.0000E+00   yforce=   0.0000E+00  zforce=  -8.2627E+01   energy=   1.1243E-02   setid =    1062 xmoment=   0.0000E+00 ymoment=   0.0000E+00 zmoment=   0.0000E+00
              xtotal=   0.0000E+00   ytotal=   0.0000E+00  ztotal=  -3.9743E+03   etotal=   6.9512E-01

 n o d a l   f o r c e/e n e r g y    o u t p u t  t=   1.17884E+01

 velocity boundary condition forces/rigid body moments 

 nd#     179  xforce=   0.0000E+00   yforce=   0.0000E+00  zforce=  -2.0405E+02   energy=   3.4844E-02   setid =     179 xmoment=   0.0000E+00 ymoment=   0.0000E+00 zmoment=   0.0000E+00
 nd#     180  xforce=   0.0000E+00   yforce=   0.0000E+00  zforce=  -2.6749E+02   energy=   4.5648E-02   setid =     180 xmoment=   0.0000E+00 ymoment=   0.0000E+00 zmoment=   0.0000E+00
 nd#     181  xforce=   0.0000E+00   yforce=   0.0000E+00  zforce=  -1.0788E+02   energy=   2.4820E-02   setid =     181 xmoment=   0.0000E+00 ymoment=   0.0000E+00 zmoment=   0.0000E+00
 nd#     182  xforce=   0.0000E+00   yforce=   0.0000E+00  zforce=  -1.0422E+02   energy=   2.3586E-02   setid =     182 xmoment=   0.0000E+00 ymoment=   0.0000E+00 zmoment=   0.0000E+00
 nd#     248  xforce=   0.0000E+00   yforce=   0.0000E+00  zforce=  -2.3650E+02   energy=   4.6594E-02   setid =     248 xmoment=   0.0000E+00 ymoment=   0.0000E+00 zmoment=   0.0000E+00
 nd#     284  xforce=   0.0000E+00   yforce=   0.0000E+00  zforce=   6.9993E+01   energy=  -6.7068E-03   setid =     284 xmoment=   0.0000E+00 ymoment=   0.0000E+00 zmoment=   0.0000E+00
 nd#     333  xforce=   0.0000E+00   yforce=   0.0000E+00  zforce=  -3.0272E+02   energy=   5.5015E-02   setid =     333 xmoment=   0.0000E+00 ymoment=   0.0000E+00 zmoment=   0.0000E+00
 nd#     334  xforce=   0.0000E+00   yforce=   0.0000E+00  zforce=  -1.8807E+02   energy=   3.3141E-02   setid =     334 xmoment=   0.0000E+00 ymoment=   0.0000E+00 zmoment=   0.0000E+00
 nd#     335  xforce=   0.0000E+00   yforce=   0.0000E+00  zforce=  -1.8645E+02   energy=   3.5881E-02   setid =     335 xmoment=   0.0000E+00 ymoment=   0.0000E+00 zmoment=   0.0000E+00
 nd#     436  xforce=   0.0000E+00   yforce=   0.0000E+00  zforce=  -1.8481E+02   energy=   3.4824E-02   setid =     436 xmoment=   0.0000E+00 ymoment=   0.0000E+00 zmoment=   0.0000E+00
 nd#     628  xforce=   0.0000E+00   yforce=   0.0000E+00  zforce=  -9.6029E+01   energy=   2.1074E-02   setid =     628 xmoment=   0.0000E+00 ymoment=   0.0000E+00 zmoment=   0.0000E+00
 nd#     631  xforce=   0.0000E+00   yforce=   0.0000E+00  zforce=  -9.5275E+01   energy=   2.1228E-02   setid =     631 xmoment=   0.0000E+00 ymoment=   0.0000E+00 zmoment=   0.0000E+00
 nd#     632  xforce=   0.0000E+00   yforce=   0.0000E+00  zforce=  -1.5309E+02   energy=   2.6679E-02   setid =     632 xmoment=   0.0000E+00 ymoment=   0.0000E+00 zmoment=   0.0000E+00
 nd#     635  xforce=   0.0000E+00   yforce=   0.0000E+00  zforce=  -1.5886E+02   energy=   2.7543E-02   setid =     635 xmoment=   0.0000E+00 ymoment=   0.0000E+00 zmoment=   0.0000E+00
 nd#     636  xforce=   0.0000E+00   yforce=   0.0000E+00  zforce=  -1.3420E+02   energy=   2.6271E-02   setid =     636 xmoment=   0.0000E+00 ymoment=   0.0000E+00 zmoment=   0.0000E+00
 nd#     639  xforce=   0.0000E+00   yforce=   0.0000E+00  zforce=  -1.4054E+02   energy=   2.7329E-02   setid =     639 xmoment=   0.0000E+00 ymoment=   0.0000E+00 zmoment=   0.0000E+00
 nd#     692  xforce=   0.0000E+00   yforce=   0.0000E+00  zforce=  -9.3615E+01   energy=   2.0336E-02   setid =     692 xmoment=   0.0000E+00 ymoment=   0.0000E+00 zmoment=   0.0000E+00
 nd#     694  xforce=   0.0000E+00   yforce=   0.0000E+00  zforce=  -1.4616E+02   energy=   2.5789E-02   setid =     694 xmoment=   0.0000E+00 ymoment=   0.0000E+00 zmoment=   0.0000E+00
 nd#     696  xforce=   0.0000E+00   yforce=   0.0000E+00  zforce=  -1.2340E+02   energy=   2.4455E-02   setid =     696 xmoment=   0.0000E+00 ymoment=   0.0000E+00 zmoment=   0.0000E+00
 nd#     900  xforce=   0.0000E+00   yforce=   0.0000E+00  zforce=  -6.2680E+01   energy=   1.4038E-02   setid =     900 xmoment=   0.0000E+00 ymoment=   0.0000E+00 zmoment=   0.0000E+00
 nd#     902  xforce=   0.0000E+00   yforce=   0.0000E+00  zforce=  -8.9283E+01   energy=   1.9049E-02   setid =     902 xmoment=   0.0000E+00 ymoment=   0.0000E+00 zmoment=   0.0000E+00
 nd#     903  xforce=   0.0000E+00   yforce=   0.0000E+00  zforce=  -1.2784E+02   energy=   2.1964E-02   setid =     903 xmoment=   0.0000E+00 ymoment=   0.0000E+00 zmoment=   0.0000E+00
 nd#     905  xforce=   0.0000E+00   yforce=   0.0000E+00  zforce=  -1.3717E+02   energy=   2.4448E-02   setid =     905 xmoment=   0.0000E+00 ymoment=   0.0000E+00 zmoment=   0.0000E+00
 nd#     906  xforce=   0.0000E+00   yforce=   0.0000E+00  zforce=  -6.8390E+01   energy=   1.4816E-02   setid =     906 xmoment=   0.0000E+00 ymoment=   0.0000E+00 zmoment=   0.0000E+00
 nd#     908  xforce=   0.0000E+00   yforce=   0.0000E+00  zforce=  -9.7492E+01   energy=   2.0338E-02   setid =     908 xmoment=   0.0000E+00 ymoment=   0.0000E+00 zmoment=   0.0000E+00
 nd#    1012  xforce=   0.0000E+00   yforce=   0.0000E+00  zforce=  -9.8128E+01   energy=   2.1587E-02   setid =    1012 xmoment=   0.0000E+00 ymoment=   0.0000E+00 zmoment=   0.0000E+00
 nd#    1013  xforce=   0.0000E+00   yforce=   0.0000E+00  zforce=  -1.6507E+02   energy=   2.8466E-02   setid =    1013 xmoment=   0.0000E+00 ymoment=   0.0000E+00 zmoment=   0.0000E+00
 nd#    1014  xforce=   0.0000E+00   yforce=   0.0000E+00  zforce=  -1.5215E+02   energy=   2.9312E-02   setid =    1014 xmoment=   0.0000E+00 ymoment=   0.0000E+00 zmoment=   0.0000E+00
 nd#    1060  xforce=   0.0000E+00   yforce=   0.0000E+00  zforce=  -6.6620E+01   energy=   1.2047E-02   setid =    1060 xmoment=   0.0000E+00 ymoment=   0.0000E+00 zmoment=   0.0000E+00
 nd#    1061  xforce=   0.0000E+00   yforce=   0.0000E+00  zforce=  -5.6382E+01   energy=   7.9341E-03   setid =    1061 xmoment=   0.0000E+00 ymoment=   0.0000E+00 zmoment=   0.0000E+00
 nd#    1062  xforce=   0.0000E+00   yforce=   0.0000E+00  zforce=  -8.0687E+01   energy=   1.2872E-02   setid =    1062 xmoment=   0.0000E+00 ymoment=   0.0000E+00 zmoment=   0.0000E+00
              xtotal=   0.0000E+00   ytotal=   0.0000E+00  ztotal=  -4.0553E+03   etotal=   7.7522E-01

 n o d a l   f o r c e/e n e r g y    o u t p u t  t=   1.27860E+01

 velocity boundary condition forces/rigid body moments 

 nd#     179  xforce=   0.0000E+00   yforce=   0.0000E+00  zforce=  -2.0541E+02   energy=   3.8929E-02   setid =     179 xmoment=   0.0000E+00 ymoment=   0.0000E+00 zmoment=   0.0000E+00
 nd#     180  xforce=   0.0000E+00   yforce=   0.0000E+00  zforce=  -2.7028E+02   energy=   5.1013E-02   setid =     180 xmoment=   0.0000E+00 ymoment=   0.0000E+00 zmoment=   0.0000E+00
 nd#     181  xforce=   0.0000E+00   yforce=   0.0000E+00  zforce=  -1.0567E+02   energy=   2.6951E-02   setid =     181 xmoment=   0.0000E+00 ymoment=   0.0000E+00 zmoment=   0.0000E+00
 nd#     182  xforce=   0.0000E+00   yforce=   0.0000E+00  zforce=  -1.0207E+02   energy=   2.5644E-02   setid =     182 xmoment=   0.0000E+00 ymoment=   0.0000E+00 zmoment=   0.0000E+00
 nd#     248  xforce=   0.0000E+00   yforce=   0.0000E+00  zforce=  -2.3327E+02   energy=   5.1280E-02   setid =     248 xmoment=   0.0000E+00 ymoment=   0.0000E+00 zmoment=   0.0000E+00
 nd#     284  xforce=   0.0000E+00   yforce=   0.0000E+00  zforce=   7.3901E+01   energy=  -8.1424E-03   setid =     284 xmoment=   0.0000E+00 ymoment=   0.0000E+00 zmoment=   0.0000E+00
 nd#     333  xforce=   0.0000E+00   yforce=   0.0000E+00  zforce=  -3.0391E+02   energy=   6.1067E-02   setid =     333 xmoment=   0.0000E+00 ymoment=   0.0000E+00 zmoment=   0.0000E+00
 nd#     334  xforce=   0.0000E+00   yforce=   0.0000E+00  zforce=  -1.9053E+02   energy=   3.6918E-02   setid =     334 xmoment=   0.0000E+00 ymoment=   0.0000E+00 zmoment=   0.0000E+00
 nd#     335  xforce=   0.0000E+00   yforce=   0.0000E+00  zforce=  -1.8611E+02   energy=   3.9597E-02   setid =     335 xmoment=   0.0000E+00 ymoment=   0.0000E+00 zmoment=   0.0000E+00
 nd#     436  xforce=   0.0000E+00   yforce=   0.0000E+00  zforce=  -1.8475E+02   energy=   3.8511E-02   setid =     436 xmoment=   0.0000E+00 ymoment=   0.0000E+00 zmoment=   0.0000E+00
 nd#     628  xforce=   0.0000E+00   yforce=   0.0000E+00  zforce=  -9.5199E+01   energy=   2.2981E-02   setid =     628 xmoment=   0.0000E+00 ymoment=   0.0000E+00 zmoment=   0.0000E+00
 nd#     631  xforce=   0.0000E+00   yforce=   0.0000E+00  zforce=  -9.3480E+01   energy=   2.3111E-02   setid =     631 xmoment=   0.0000E+00 ymoment=   0.0000E+00 zmoment=   0.0000E+00
 nd#     632  xforce=   0.0000E+00   yforce=   0.0000E+00  zforce=  -1.5435E+02   energy=   2.9746E-02   setid =     632 xmoment=   0.0000E+00 ymoment=   0.0000E+00 zmoment=   0.0000E+00
 nd#     635  xforce=   0.0000E+00   yforce=   0.0000E+00  zforce=  -1.5982E+02   energy=   3.0722E-02   setid =     635 xmoment=   0.0000E+00 ymoment=   0.0000E+00 zmoment=   0.0000E+00
 nd#     636  xforce=   0.0000E+00   yforce=   0.0000E+00  zforce=  -1.3385E+02   energy=   2.8946E-02   setid =     636 xmoment=   0.0000E+00 ymoment=   0.0000E+00 zmoment=   0.0000E+00
 nd#     639  xforce=   0.0000E+00   yforce=   0.0000E+00  zforce=  -1.4018E+02   energy=   3.0130E-02   setid =     639 xmoment=   0.0000E+00 ymoment=   0.0000E+00 zmoment=   0.0000E+00
 nd#     692  xforce=   0.0000E+00   yforce=   0.0000E+00  zforce=  -9.2592E+01   energy=   2.2194E-02   setid =     692 xmoment=   0.0000E+00 ymoment=   0.0000E+00 zmoment=   0.0000E+00
 nd#     694  xforce=   0.0000E+00   yforce=   0.0000E+00  zforce=  -1.4662E+02   energy=   2.8710E-02   setid =     694 xmoment=   0.0000E+00 ymoment=   0.0000E+00 zmoment=   0.0000E+00
 nd#     696  xforce=   0.0000E+00   yforce=   0.0000E+00  zforce=  -1.2297E+02   energy=   2.6913E-02   setid =     696 xmoment=   0.0000E+00 ymoment=   0.0000E+00 zmoment=   0.0000E+00
 nd#     900  xforce=   0.0000E+00   yforce=   0.0000E+00  zforce=  -6.2304E+01   energy=   1.5285E-02   setid =     900 xmoment=   0.0000E+00 ymoment=   0.0000E+00 zmoment=   0.0000E+00
 nd#     902  xforce=   0.0000E+00   yforce=   0.0000E+00  zforce=  -8.8836E+01   energy=   2.0826E-02   setid =     902 xmoment=   0.0000E+00 ymoment=   0.0000E+00 zmoment=   0.0000E+00
 nd#     903  xforce=   0.0000E+00   yforce=   0.0000E+00  zforce=  -1.2881E+02   energy=   2.4525E-02   setid =     903 xmoment=   0.0000E+00 ymoment=   0.0000E+00 zmoment=   0.0000E+00
 nd#     905  xforce=   0.0000E+00   yforce=   0.0000E+00  zforce=  -1.3746E+02   energy=   2.7187E-02   setid =     905 xmoment=   0.0000E+00 ymoment=   0.0000E+00 zmoment=   0.0000E+00
 nd#     906  xforce=   0.0000E+00   yforce=   0.0000E+00  zforce=  -6.7580E+01   energy=   1.6172E-02   setid =     906 xmoment=   0.0000E+00 ymoment=   0.0000E+00 zmoment=   0.0000E+00
 nd#     908  xforce=   0.0000E+00   yforce=   0.0000E+00  zforce=  -9.7137E+01   energy=   2.2279E-02   setid =     908 xmoment=   0.0000E+00 ymoment=   0.0000E+00 zmoment=   0.0000E+00
 nd#    1012  xforce=   0.0000E+00   yforce=   0.0000E+00  zforce=  -9.6423E+01   energy=   2.3528E-02   setid =    1012 xmoment=   0.0000E+00 ymoment=   0.0000E+00 zmoment=   0.0000E+00
 nd#    1013  xforce=   0.0000E+00   yforce=   0.0000E+00  zforce=  -1.6612E+02   energy=   3.1770E-02   setid =    1013 xmoment=   0.0000E+00 ymoment=   0.0000E+00 zmoment=   0.0000E+00
 nd#    1014  xforce=   0.0000E+00   yforce=   0.0000E+00  zforce=  -1.5189E+02   energy=   3.2345E-02   setid =    1014 xmoment=   0.0000E+00 ymoment=   0.0000E+00 zmoment=   0.0000E+00
 nd#    1060  xforce=   0.0000E+00   yforce=   0.0000E+00  zforce=  -6.6570E+01   energy=   1.3376E-02   setid =    1060 xmoment=   0.0000E+00 ymoment=   0.0000E+00 zmoment=   0.0000E+00
 nd#    1061  xforce=   0.0000E+00   yforce=   0.0000E+00  zforce=  -5.7286E+01   energy=   9.0681E-03   setid =    1061 xmoment=   0.0000E+00 ymoment=   0.0000E+00 zmoment=   0.0000E+00
 nd#    1062  xforce=   0.0000E+00   yforce=   0.0000E+00  zforce=  -8.2045E+01   energy=   1.4496E-02   setid =    1062 xmoment=   0.0000E+00 ymoment=   0.0000E+00 zmoment=   0.0000E+00
              xtotal=   0.0000E+00   ytotal=   0.0000E+00  ztotal=  -4.0496E+03   etotal=   8.5608E-01

 n o d a l   f o r c e/e n e r g y    o u t p u t  t=   1.37836E+01

 velocity boundary condition forces/rigid body moments 

 nd#     179  xforce=   0.0000E+00   yforce=   0.0000E+00  zforce=  -2.0649E+02   energy=   4.3038E-02   setid =     179 xmoment=   0.0000E+00 ymoment=   0.0000E+00 zmoment=   0.0000E+00
 nd#     180  xforce=   0.0000E+00   yforce=   0.0000E+00  zforce=  -2.7061E+02   energy=   5.6409E-02   setid =     180 xmoment=   0.0000E+00 ymoment=   0.0000E+00 zmoment=   0.0000E+00
 nd#     181  xforce=   0.0000E+00   yforce=   0.0000E+00  zforce=  -1.0494E+02   energy=   2.9052E-02   setid =     181 xmoment=   0.0000E+00 ymoment=   0.0000E+00 zmoment=   0.0000E+00
 nd#     182  xforce=   0.0000E+00   yforce=   0.0000E+00  zforce=  -1.0243E+02   energy=   2.7684E-02   setid =     182 xmoment=   0.0000E+00 ymoment=   0.0000E+00 zmoment=   0.0000E+00
 nd#     248  xforce=   0.0000E+00   yforce=   0.0000E+00  zforce=  -2.3469E+02   energy=   5.5949E-02   setid =     248 xmoment=   0.0000E+00 ymoment=   0.0000E+00 zmoment=   0.0000E+00
 nd#     284  xforce=   0.0000E+00   yforce=   0.0000E+00  zforce=   7.4643E+01   energy=  -9.6243E-03   setid =     284 xmoment=   0.0000E+00 ymoment=   0.0000E+00 zmoment=   0.0000E+00
 nd#     333  xforce=   0.0000E+00   yforce=   0.0000E+00  zforce=  -3.0438E+02   energy=   6.7136E-02   setid =     333 xmoment=   0.0000E+00 ymoment=   0.0000E+00 zmoment=   0.0000E+00
[...]
 nd#     905  xforce=   0.0000E+00   yforce=   0.0000E+00  zforce=  -4.6791E+01   energy=   1.6138E-01   setid =     905 xmoment=   0.0000E+00 ymoment=   0.0000E+00 zmoment=   0.0000E+00
 nd#     906  xforce=   0.0000E+00   yforce=   0.0000E+00  zforce=  -1.4099E+01   energy=   7.6651E-02   setid =     906 xmoment=   0.0000E+00 ymoment=   0.0000E+00 zmoment=   0.0000E+00
 nd#     908  xforce=   0.0000E+00   yforce=   0.0000E+00  zforce=  -1.5637E+01   energy=   1.0141E-01   setid =     908 xmoment=   0.0000E+00 ymoment=   0.0000E+00 zmoment=   0.0000E+00
 nd#    1012  xforce=   0.0000E+00   yforce=   0.0000E+00  zforce=   4.1938E+01   energy=   5.7215E-02   setid =    1012 xmoment=   0.0000E+00 ymoment=   0.0000E+00 zmoment=   0.0000E+00
 nd#    1013  xforce=   0.0000E+00   yforce=   0.0000E+00  zforce=  -5.0076E+01   energy=   1.9385E-01   setid =    1013 xmoment=   0.0000E+00 ymoment=   0.0000E+00 zmoment=   0.0000E+00
 nd#    1014  xforce=   0.0000E+00   yforce=   0.0000E+00  zforce=   1.1856E+01   energy=   1.3387E-01   setid =    1014 xmoment=   0.0000E+00 ymoment=   0.0000E+00 zmoment=   0.0000E+00
 nd#    1060  xforce=   0.0000E+00   yforce=   0.0000E+00  zforce=  -3.0493E+00   energy=   6.5884E-02   setid =    1060 xmoment=   0.0000E+00 ymoment=   0.0000E+00 zmoment=   0.0000E+00
 nd#    1061  xforce=   0.0000E+00   yforce=   0.0000E+00  zforce=  -4.6858E+01   energy=   8.8795E-02   setid =    1061 xmoment=   0.0000E+00 ymoment=   0.0000E+00 zmoment=   0.0000E+00
 nd#    1062  xforce=   0.0000E+00   yforce=   0.0000E+00  zforce=   1.0925E+01   energy=   7.0276E-02   setid =    1062 xmoment=   0.0000E+00 ymoment=   0.0000E+00 zmoment=   0.0000E+00
              xtotal=   0.0000E+00   ytotal=   0.0000E+00  ztotal=  -1.3070E-02   etotal=   3.7771E+00

 n o d a l   f o r c e/e n e r g y    o u t p u t  t=   9.02605E+01

 velocity boundary condition forces/rigid body moments 

 nd#     179  xforce=   0.0000E+00   yforce=   0.0000E+00  zforce=  -6.1226E+01   energy=   2.4799E-01   setid =     179 xmoment=   0.0000E+00 ymoment=   0.0000E+00 zmoment=   0.0000E+00
 nd#     180  xforce=   0.0000E+00   yforce=   0.0000E+00  zforce=  -3.7234E+01   energy=   2.9307E-01   setid =     180 xmoment=   0.0000E+00 ymoment=   0.0000E+00 zmoment=   0.0000E+00
 nd#     181  xforce=   0.0000E+00   yforce=   0.0000E+00  zforce=   7.0678E+01   energy=   3.6186E-02   setid =     181 xmoment=   0.0000E+00 ymoment=   0.0000E+00 zmoment=   0.0000E+00
 nd#     182  xforce=   0.0000E+00   yforce=   0.0000E+00  zforce=   5.5930E+01   energy=   4.9038E-02   setid =     182 xmoment=   0.0000E+00 ymoment=   0.0000E+00 zmoment=   0.0000E+00
 nd#     248  xforce=   0.0000E+00   yforce=   0.0000E+00  zforce=   7.0018E+01   energy=   1.6837E-01   setid =     248 xmoment=   0.0000E+00 ymoment=   0.0000E+00 zmoment=   0.0000E+00
 nd#     284  xforce=   0.0000E+00   yforce=   0.0000E+00  zforce=  -3.2163E+00   energy=  -9.6177E-02   setid =     284 xmoment=   0.0000E+00 ymoment=   0.0000E+00 zmoment=   0.0000E+00
 nd#     333  xforce=   0.0000E+00   yforce=   0.0000E+00  zforce=   7.2388E+01   energy=   2.3713E-01   setid =     333 xmoment=   0.0000E+00 ymoment=   0.0000E+00 zmoment=   0.0000E+00
 nd#     334  xforce=   0.0000E+00   yforce=   0.0000E+00  zforce=   1.3389E+01   energy=   1.7161E-01   setid =     334 xmoment=   0.0000E+00 ymoment=   0.0000E+00 zmoment=   0.0000E+00
 nd#     335  xforce=   0.0000E+00   yforce=   0.0000E+00  zforce=   2.8367E+01   energy=   1.5251E-01   setid =     335 xmoment=   0.0000E+00 ymoment=   0.0000E+00 zmoment=   0.0000E+00
 nd#     436  xforce=   0.0000E+00   yforce=   0.0000E+00  zforce=   1.6110E+01   energy=   1.5995E-01   setid =     436 xmoment=   0.0000E+00 ymoment=   0.0000E+00 zmoment=   0.0000E+00
 nd#     628  xforce=   0.0000E+00   yforce=   0.0000E+00  zforce=   2.9734E+01   energy=   6.1620E-02   setid =     628 xmoment=   0.0000E+00 ymoment=   0.0000E+00 zmoment=   0.0000E+00
 nd#     631  xforce=   0.0000E+00   yforce=   0.0000E+00  zforce=   3.6092E+01   energy=   5.5290E-02   setid =     631 xmoment=   0.0000E+00 ymoment=   0.0000E+00 zmoment=   0.0000E+00
 nd#     632  xforce=   0.0000E+00   yforce=   0.0000E+00  zforce=  -4.4229E+01   energy=   1.8136E-01   setid =     632 xmoment=   0.0000E+00 ymoment=   0.0000E+00 zmoment=   0.0000E+00
 nd#     635  xforce=   0.0000E+00   yforce=   0.0000E+00  zforce=  -4.8837E+01   energy=   1.9280E-01   setid =     635 xmoment=   0.0000E+00 ymoment=   0.0000E+00 zmoment=   0.0000E+00
 nd#     636  xforce=   0.0000E+00   yforce=   0.0000E+00  zforce=  -4.1644E-01   energy=   1.2217E-01   setid =     636 xmoment=   0.0000E+00 ymoment=   0.0000E+00 zmoment=   0.0000E+00
 nd#     639  xforce=   0.0000E+00   yforce=   0.0000E+00  zforce=   5.8439E+00   energy=   1.2393E-01   setid =     639 xmoment=   0.0000E+00 ymoment=   0.0000E+00 zmoment=   0.0000E+00
 nd#     692  xforce=   0.0000E+00   yforce=   0.0000E+00  zforce=   1.9955E+01   energy=   6.7606E-02   setid =     692 xmoment=   0.0000E+00 ymoment=   0.0000E+00 zmoment=   0.0000E+00
 nd#     694  xforce=   0.0000E+00   yforce=   0.0000E+00  zforce=  -4.3825E+01   energy=   1.7206E-01   setid =     694 xmoment=   0.0000E+00 ymoment=   0.0000E+00 zmoment=   0.0000E+00
 nd#     696  xforce=   0.0000E+00   yforce=   0.0000E+00  zforce=  -9.0918E+00   energy=   1.1755E-01   setid =     696 xmoment=   0.0000E+00 ymoment=   0.0000E+00 zmoment=   0.0000E+00
 nd#     900  xforce=   0.0000E+00   yforce=   0.0000E+00  zforce=  -4.6465E+00   energy=   5.8654E-02   setid =     900 xmoment=   0.0000E+00 ymoment=   0.0000E+00 zmoment=   0.0000E+00
 nd#     902  xforce=   0.0000E+00   yforce=   0.0000E+00  zforce=   4.7375E+00   energy=   7.5952E-02   setid =     902 xmoment=   0.0000E+00 ymoment=   0.0000E+00 zmoment=   0.0000E+00
 nd#     903  xforce=   0.0000E+00   yforce=   0.0000E+00  zforce=  -5.7868E+01   energy=   1.6793E-01   setid =     903 xmoment=   0.0000E+00 ymoment=   0.0000E+00 zmoment=   0.0000E+00
 nd#     905  xforce=   0.0000E+00   yforce=   0.0000E+00  zforce=  -4.6895E+01   energy=   1.6607E-01   setid =     905 xmoment=   0.0000E+00 ymoment=   0.0000E+00 zmoment=   0.0000E+00
 nd#     906  xforce=   0.0000E+00   yforce=   0.0000E+00  zforce=  -1.4374E+01   energy=   7.8075E-02   setid =     906 xmoment=   0.0000E+00 ymoment=   0.0000E+00 zmoment=   0.0000E+00
 nd#     908  xforce=   0.0000E+00   yforce=   0.0000E+00  zforce=  -1.5839E+01   energy=   1.0299E-01   setid =     908 xmoment=   0.0000E+00 ymoment=   0.0000E+00 zmoment=   0.0000E+00
 nd#    1012  xforce=   0.0000E+00   yforce=   0.0000E+00  zforce=   4.1831E+01   energy=   5.3027E-02   setid =    1012 xmoment=   0.0000E+00 ymoment=   0.0000E+00 zmoment=   0.0000E+00
 nd#    1013  xforce=   0.0000E+00   yforce=   0.0000E+00  zforce=  -4.9978E+01   energy=   1.9886E-01   setid =    1013 xmoment=   0.0000E+00 ymoment=   0.0000E+00 zmoment=   0.0000E+00
 nd#    1014  xforce=   0.0000E+00   yforce=   0.0000E+00  zforce=   1.2039E+01   energy=   1.3267E-01   setid =    1014 xmoment=   0.0000E+00 ymoment=   0.0000E+00 zmoment=   0.0000E+00
 nd#    1060  xforce=   0.0000E+00   yforce=   0.0000E+00  zforce=  -3.0242E+00   energy=   6.6188E-02   setid =    1060 xmoment=   0.0000E+00 ymoment=   0.0000E+00 zmoment=   0.0000E+00
 nd#    1061  xforce=   0.0000E+00   yforce=   0.0000E+00  zforce=  -4.6955E+01   energy=   9.3486E-02   setid =    1061 xmoment=   0.0000E+00 ymoment=   0.0000E+00 zmoment=   0.0000E+00
 nd#    1062  xforce=   0.0000E+00   yforce=   0.0000E+00  zforce=   1.0803E+01   energy=   6.9190E-02   setid =    1062 xmoment=   0.0000E+00 ymoment=   0.0000E+00 zmoment=   0.0000E+00
              xtotal=   0.0000E+00   ytotal=   0.0000E+00  ztotal=   2.5649E-01   etotal=   3.7771E+00

 n o d a l   f o r c e/e n e r g y    o u t p u t  t=   9.52605E+01

 velocity boundary condition forces/rigid body moments 

 nd#     179  xforce=   0.0000E+00   yforce=   0.0000E+00  zforce=  -6.0769E+01   energy=   2.5409E-01   setid =     179 xmoment=   0.0000E+00 ymoment=   0.0000E+00 zmoment=   0.0000E+00
 nd#     180  xforce=   0.0000E+00   yforce=   0.0000E+00  zforce=  -3.6532E+01   energy=   2.9676E-01   setid =     180 xmoment=   0.0000E+00 ymoment=   0.0000E+00 zmoment=   0.0000E+00
 nd#     181  xforce=   0.0000E+00   yforce=   0.0000E+00  zforce=   7.0269E+01   energy=   2.9139E-02   setid =     181 xmoment=   0.0000E+00 ymoment=   0.0000E+00 zmoment=   0.0000E+00
 nd#     182  xforce=   0.0000E+00   yforce=   0.0000E+00  zforce=   5.5916E+01   energy=   4.3446E-02   setid =     182 xmoment=   0.0000E+00 ymoment=   0.0000E+00 zmoment=   0.0000E+00
 nd#     248  xforce=   0.0000E+00   yforce=   0.0000E+00  zforce=   7.0448E+01   energy=   1.6135E-01   setid =     248 xmoment=   0.0000E+00 ymoment=   0.0000E+00 zmoment=   0.0000E+00
 nd#     284  xforce=   0.0000E+00   yforce=   0.0000E+00  zforce=  -4.1677E+00   energy=  -9.5808E-02   setid =     284 xmoment=   0.0000E+00 ymoment=   0.0000E+00 zmoment=   0.0000E+00
 nd#     333  xforce=   0.0000E+00   yforce=   0.0000E+00  zforce=   7.2875E+01   energy=   2.2987E-01   setid =     333 xmoment=   0.0000E+00 ymoment=   0.0000E+00 zmoment=   0.0000E+00
 nd#     334  xforce=   0.0000E+00   yforce=   0.0000E+00  zforce=   1.3888E+01   energy=   1.7024E-01   setid =     334 xmoment=   0.0000E+00 ymoment=   0.0000E+00 zmoment=   0.0000E+00
 nd#     335  xforce=   0.0000E+00   yforce=   0.0000E+00  zforce=   2.8525E+01   energy=   1.4966E-01   setid =     335 xmoment=   0.0000E+00 ymoment=   0.0000E+00 zmoment=   0.0000E+00
 nd#     436  xforce=   0.0000E+00   yforce=   0.0000E+00  zforce=   1.6231E+01   energy=   1.5833E-01   setid =     436 xmoment=   0.0000E+00 ymoment=   0.0000E+00 zmoment=   0.0000E+00
 nd#     628  xforce=   0.0000E+00   yforce=   0.0000E+00  zforce=   2.9616E+01   energy=   5.8653E-02   setid =     628 xmoment=   0.0000E+00 ymoment=   0.0000E+00 zmoment=   0.0000E+00
 nd#     631  xforce=   0.0000E+00   yforce=   0.0000E+00  zforce=   3.5994E+01   energy=   5.1686E-02   setid =     631 xmoment=   0.0000E+00 ymoment=   0.0000E+00 zmoment=   0.0000E+00
 nd#     632  xforce=   0.0000E+00   yforce=   0.0000E+00  zforce=  -4.4197E+01   energy=   1.8578E-01   setid =     632 xmoment=   0.0000E+00 ymoment=   0.0000E+00 zmoment=   0.0000E+00
 nd#     635  xforce=   0.0000E+00   yforce=   0.0000E+00  zforce=  -4.8757E+01   energy=   1.9768E-01   setid =     635 xmoment=   0.0000E+00 ymoment=   0.0000E+00 zmoment=   0.0000E+00
 nd#     636  xforce=   0.0000E+00   yforce=   0.0000E+00  zforce=  -4.2814E-01   energy=   1.2221E-01   setid =     636 xmoment=   0.0000E+00 ymoment=   0.0000E+00 zmoment=   0.0000E+00
 nd#     639  xforce=   0.0000E+00   yforce=   0.0000E+00  zforce=   5.6893E+00   energy=   1.2335E-01   setid =     639 xmoment=   0.0000E+00 ymoment=   0.0000E+00 zmoment=   0.0000E+00
 nd#     692  xforce=   0.0000E+00   yforce=   0.0000E+00  zforce=   1.9732E+01   energy=   6.5622E-02   setid =     692 xmoment=   0.0000E+00 ymoment=   0.0000E+00 zmoment=   0.0000E+00
 nd#     694  xforce=   0.0000E+00   yforce=   0.0000E+00  zforce=  -4.3875E+01   energy=   1.7644E-01   setid =     694 xmoment=   0.0000E+00 ymoment=   0.0000E+00 zmoment=   0.0000E+00
 nd#     696  xforce=   0.0000E+00   yforce=   0.0000E+00  zforce=  -9.2161E+00   energy=   1.1846E-01   setid =     696 xmoment=   0.0000E+00 ymoment=   0.0000E+00 zmoment=   0.0000E+00
 nd#     900  xforce=   0.0000E+00   yforce=   0.0000E+00  zforce=  -4.8716E+00   energy=   5.9130E-02   setid =     900 xmoment=   0.0000E+00 ymoment=   0.0000E+00 zmoment=   0.0000E+00
 nd#     902  xforce=   0.0000E+00   yforce=   0.0000E+00  zforce=   4.5694E+00   energy=   7.5486E-02   setid =     902 xmoment=   0.0000E+00 ymoment=   0.0000E+00 zmoment=   0.0000E+00
 nd#     903  xforce=   0.0000E+00   yforce=   0.0000E+00  zforce=  -5.7919E+01   energy=   1.7372E-01   setid =     903 xmoment=   0.0000E+00 ymoment=   0.0000E+00 zmoment=   0.0000E+00
 nd#     905  xforce=   0.0000E+00   yforce=   0.0000E+00  zforce=  -4.7059E+01   energy=   1.7076E-01   setid =     905 xmoment=   0.0000E+00 ymoment=   0.0000E+00 zmoment=   0.0000E+00
 nd#     906  xforce=   0.0000E+00   yforce=   0.0000E+00  zforce=  -1.4450E+01   energy=   7.9516E-02   setid =     906 xmoment=   0.0000E+00 ymoment=   0.0000E+00 zmoment=   0.0000E+00
 nd#     908  xforce=   0.0000E+00   yforce=   0.0000E+00  zforce=  -1.6012E+01   energy=   1.0458E-01   setid =     908 xmoment=   0.0000E+00 ymoment=   0.0000E+00 zmoment=   0.0000E+00
 nd#    1012  xforce=   0.0000E+00   yforce=   0.0000E+00  zforce=   4.1769E+01   energy=   4.8847E-02   setid =    1012 xmoment=   0.0000E+00 ymoment=   0.0000E+00 zmoment=   0.0000E+00
 nd#    1013  xforce=   0.0000E+00   yforce=   0.0000E+00  zforce=  -4.9828E+01   energy=   2.0385E-01   setid =    1013 xmoment=   0.0000E+00 ymoment=   0.0000E+00 zmoment=   0.0000E+00
 nd#    1014  xforce=   0.0000E+00   yforce=   0.0000E+00  zforce=   1.2219E+01   energy=   1.3146E-01   setid =    1014 xmoment=   0.0000E+00 ymoment=   0.0000E+00 zmoment=   0.0000E+00
 nd#    1060  xforce=   0.0000E+00   yforce=   0.0000E+00  zforce=  -3.1079E+00   energy=   6.6495E-02   setid =    1060 xmoment=   0.0000E+00 ymoment=   0.0000E+00 zmoment=   0.0000E+00
 nd#    1061  xforce=   0.0000E+00   yforce=   0.0000E+00  zforce=  -4.6985E+01   energy=   9.8183E-02   setid =    1061 xmoment=   0.0000E+00 ymoment=   0.0000E+00 zmoment=   0.0000E+00
 nd#    1062  xforce=   0.0000E+00   yforce=   0.0000E+00  zforce=   1.0761E+01   energy=   6.8111E-02   setid =    1062 xmoment=   0.0000E+00 ymoment=   0.0000E+00 zmoment=   0.0000E+00
              xtotal=   0.0000E+00   ytotal=   0.0000E+00  ztotal=   3.2853E-01   etotal=   3.7771E+00

 n o d a l   f o r c e/e n e r g y    o u t p u t  t=   1.00000E+02

 velocity boundary condition forces/rigid body moments 

 nd#     179  xforce=   0.0000E+00   yforce=   0.0000E+00  zforce=  -6.0337E+01   energy=   2.5983E-01   setid =     179 xmoment=   0.0000E+00 ymoment=   0.0000E+00 zmoment=   0.0000E+00
 nd#     180  xforce=   0.0000E+00   yforce=   0.0000E+00  zforce=  -3.5777E+01   energy=   3.0018E-01   setid =     180 xmoment=   0.0000E+00 ymoment=   0.0000E+00 zmoment=   0.0000E+00
 nd#     181  xforce=   0.0000E+00   yforce=   0.0000E+00  zforce=   6.9896E+01   energy=   2.2496E-02   setid =     181 xmoment=   0.0000E+00 ymoment=   0.0000E+00 zmoment=   0.0000E+00
 nd#     182  xforce=   0.0000E+00   yforce=   0.0000E+00  zforce=   5.5868E+01   energy=   3.8148E-02   setid =     182 xmoment=   0.0000E+00 ymoment=   0.0000E+00 zmoment=   0.0000E+00
 nd#     248  xforce=   0.0000E+00   yforce=   0.0000E+00  zforce=   7.0752E+01   energy=   1.5466E-01   setid =     248 xmoment=   0.0000E+00 ymoment=   0.0000E+00 zmoment=   0.0000E+00
 nd#     284  xforce=   0.0000E+00   yforce=   0.0000E+00  zforce=  -5.0061E+00   energy=  -9.5373E-02   setid =     284 xmoment=   0.0000E+00 ymoment=   0.0000E+00 zmoment=   0.0000E+00
 nd#     333  xforce=   0.0000E+00   yforce=   0.0000E+00  zforce=   7.3265E+01   energy=   2.2294E-01   setid =     333 xmoment=   0.0000E+00 ymoment=   0.0000E+00 zmoment=   0.0000E+00
 nd#     334  xforce=   0.0000E+00   yforce=   0.0000E+00  zforce=   1.4432E+01   energy=   1.6890E-01   setid =     334 xmoment=   0.0000E+00 ymoment=   0.0000E+00 zmoment=   0.0000E+00
 nd#     335  xforce=   0.0000E+00   yforce=   0.0000E+00  zforce=   2.8635E+01   energy=   1.4695E-01   setid =     335 xmoment=   0.0000E+00 ymoment=   0.0000E+00 zmoment=   0.0000E+00
 nd#     436  xforce=   0.0000E+00   yforce=   0.0000E+00  zforce=   1.6253E+01   energy=   1.5679E-01   setid =     436 xmoment=   0.0000E+00 ymoment=   0.0000E+00 zmoment=   0.0000E+00
 nd#     628  xforce=   0.0000E+00   yforce=   0.0000E+00  zforce=   2.9527E+01   energy=   5.5850E-02   setid =     628 xmoment=   0.0000E+00 ymoment=   0.0000E+00 zmoment=   0.0000E+00
 nd#     631  xforce=   0.0000E+00   yforce=   0.0000E+00  zforce=   3.5769E+01   energy=   4.8284E-02   setid =     631 xmoment=   0.0000E+00 ymoment=   0.0000E+00 zmoment=   0.0000E+00
 nd#     632  xforce=   0.0000E+00   yforce=   0.0000E+00  zforce=  -4.4278E+01   energy=   1.8997E-01   setid =     632 xmoment=   0.0000E+00 ymoment=   0.0000E+00 zmoment=   0.0000E+00
 nd#     635  xforce=   0.0000E+00   yforce=   0.0000E+00  zforce=  -4.8660E+01   energy=   2.0230E-01   setid =     635 xmoment=   0.0000E+00 ymoment=   0.0000E+00 zmoment=   0.0000E+00
 nd#     636  xforce=   0.0000E+00   yforce=   0.0000E+00  zforce=  -5.5664E-01   energy=   1.2226E-01   setid =     636 xmoment=   0.0000E+00 ymoment=   0.0000E+00 zmoment=   0.0000E+00
 nd#     639  xforce=   0.0000E+00   yforce=   0.0000E+00  zforce=   5.5925E+00   energy=   1.2282E-01   setid =     639 xmoment=   0.0000E+00 ymoment=   0.0000E+00 zmoment=   0.0000E+00
 nd#     692  xforce=   0.0000E+00   yforce=   0.0000E+00  zforce=   1.9624E+01   energy=   6.3757E-02   setid =     692 xmoment=   0.0000E+00 ymoment=   0.0000E+00 zmoment=   0.0000E+00
 nd#     694  xforce=   0.0000E+00   yforce=   0.0000E+00  zforce=  -4.3928E+01   energy=   1.8060E-01   setid =     694 xmoment=   0.0000E+00 ymoment=   0.0000E+00 zmoment=   0.0000E+00
 nd#     696  xforce=   0.0000E+00   yforce=   0.0000E+00  zforce=  -9.4725E+00   energy=   1.1935E-01   setid =     696 xmoment=   0.0000E+00 ymoment=   0.0000E+00 zmoment=   0.0000E+00
 nd#     900  xforce=   0.0000E+00   yforce=   0.0000E+00  zforce=  -5.2334E+00   energy=   5.9609E-02   setid =     900 xmoment=   0.0000E+00 ymoment=   0.0000E+00 zmoment=   0.0000E+00
 nd#     902  xforce=   0.0000E+00   yforce=   0.0000E+00  zforce=   4.4288E+00   energy=   7.5060E-02   setid =     902 xmoment=   0.0000E+00 ymoment=   0.0000E+00 zmoment=   0.0000E+00
 nd#     903  xforce=   0.0000E+00   yforce=   0.0000E+00  zforce=  -5.7980E+01   energy=   1.7921E-01   setid =     903 xmoment=   0.0000E+00 ymoment=   0.0000E+00 zmoment=   0.0000E+00
 nd#     905  xforce=   0.0000E+00   yforce=   0.0000E+00  zforce=  -4.7156E+01   energy=   1.7523E-01   setid =     905 xmoment=   0.0000E+00 ymoment=   0.0000E+00 zmoment=   0.0000E+00
 nd#     906  xforce=   0.0000E+00   yforce=   0.0000E+00  zforce=  -1.4515E+01   energy=   8.0889E-02   setid =     906 xmoment=   0.0000E+00 ymoment=   0.0000E+00 zmoment=   0.0000E+00
 nd#     908  xforce=   0.0000E+00   yforce=   0.0000E+00  zforce=  -1.6119E+01   energy=   1.0610E-01   setid =     908 xmoment=   0.0000E+00 ymoment=   0.0000E+00 zmoment=   0.0000E+00
 nd#    1012  xforce=   0.0000E+00   yforce=   0.0000E+00  zforce=   4.1751E+01   energy=   4.4889E-02   setid =    1012 xmoment=   0.0000E+00 ymoment=   0.0000E+00 zmoment=   0.0000E+00
 nd#    1013  xforce=   0.0000E+00   yforce=   0.0000E+00  zforce=  -4.9615E+01   energy=   2.0856E-01   setid =    1013 xmoment=   0.0000E+00 ymoment=   0.0000E+00 zmoment=   0.0000E+00
 nd#    1014  xforce=   0.0000E+00   yforce=   0.0000E+00  zforce=   1.2346E+01   energy=   1.3030E-01   setid =    1014 xmoment=   0.0000E+00 ymoment=   0.0000E+00 zmoment=   0.0000E+00
 nd#    1060  xforce=   0.0000E+00   yforce=   0.0000E+00  zforce=  -3.1275E+00   energy=   6.6790E-02   setid =    1060 xmoment=   0.0000E+00 ymoment=   0.0000E+00 zmoment=   0.0000E+00
 nd#    1061  xforce=   0.0000E+00   yforce=   0.0000E+00  zforce=  -4.6955E+01   energy=   1.0264E-01   setid =    1061 xmoment=   0.0000E+00 ymoment=   0.0000E+00 zmoment=   0.0000E+00
 nd#    1062  xforce=   0.0000E+00   yforce=   0.0000E+00  zforce=   1.0792E+01   energy=   6.7090E-02   setid =    1062 xmoment=   0.0000E+00 ymoment=   0.0000E+00 zmoment=   0.0000E+00
              xtotal=   0.0000E+00   ytotal=   0.0000E+00  ztotal=   2.1667E-01   etotal=   3.7771E+00
