 LS-DYNA keyword deck by LS-PrePost                                      
                    ls-dyna smp d R14 R14.1.1s_1_ef50e1 date 06/16/2024



 n o d a l  s t r e s s  c a l c u l a t i o n s   f o r   t i m e  s t e p        1   ( at time 0.00000E+00 )

 node (global)
          stress       sig-xx      sig-yy      sig-zz      sig-xy      sig-yz      sig-zx       plastic
                                                                                                 strain 
       4-
 mid.  surface     4.3884E-06  4.3884E-06  4.3884E-06  0.0000E+00  0.0000E+00  0.0000E+00  0.0000E+00
       5-
 mid.  surface    -2.2719E-05 -2.2719E-05 -2.2719E-05  0.0000E+00  0.0000E+00  0.0000E+00  0.0000E+00
       6-
 mid.  surface    -1.0466E-04 -1.0466E-04 -1.0466E-04  0.0000E+00  0.0000E+00  0.0000E+00  0.0000E+00
       7-
 mid.  surface    -9.3825E-05 -9.3825E-05 -9.3825E-05  0.0000E+00  0.0000E+00  0.0000E+00  0.0000E+00
       8-
 mid.  surface    -6.4921E-05 -6.4921E-05 -6.4921E-05  0.0000E+00  0.0000E+00  0.0000E+00  0.0000E+00
       9-
 mid.  surface    -5.9035E-05 -5.9035E-05 -5.9035E-05  0.0000E+00  0.0000E+00  0.0000E+00  0.0000E+00
      10-
 mid.  surface    -2.1669E-05 -2.1669E-05 -2.1669E-05  0.0000E+00  0.0000E+00  0.0000E+00  0.0000E+00
      15-
 mid.  surface     2.9827E-05  2.9827E-05  2.9827E-05  0.0000E+00  0.0000E+00  0.0000E+00  0.0000E+00
      16-
 mid.  surface    -3.2415E-05 -3.2415E-05 -3.2415E-05  0.0000E+00  0.0000E+00  0.0000E+00  0.0000E+00
      18-
 mid.  surface     2.3031E-05  2.3031E-05  2.3031E-05  0.0000E+00  0.0000E+00  0.0000E+00  0.0000E+00
      40-
 mid.  surface     7.9568E-05  7.9568E-05  7.9568E-05  0.0000E+00  0.0000E+00  0.0000E+00  0.0000E+00
      41-
 mid.  surface     2.0005E-05  2.0005E-05  2.0005E-05  0.0000E+00  0.0000E+00  0.0000E+00  0.0000E+00
      50-
 mid.  surface     2.6276E-05  2.6276E-05  2.6276E-05  0.0000E+00  0.0000E+00  0.0000E+00  0.0000E+00
      51-
 mid.  surface     1.4888E-04  1.4888E-04  1.4888E-04  0.0000E+00  0.0000E+00  0.0000E+00  0.0000E+00
      52-
 mid.  surface     1.4888E-04  1.4888E-04  1.4888E-04  0.0000E+00  0.0000E+00  0.0000E+00  0.0000E+00
      53-
 mid.  surface    -3.2415E-05 -3.2415E-05 -3.2415E-05  0.0000E+00  0.0000E+00  0.0000E+00  0.0000E+00
      72-
 mid.  surface     8.3389E-05  8.3389E-05  8.3389E-05  0.0000E+00  0.0000E+00  0.0000E+00  0.0000E+00
      95-
 mid.  surface    -4.2418E-05 -4.2418E-05 -4.2418E-05  0.0000E+00  0.0000E+00  0.0000E+00  0.0000E+00
     100-
 mid.  surface     2.3031E-05  2.3031E-05  2.3031E-05  0.0000E+00  0.0000E+00  0.0000E+00  0.0000E+00
     110-
 mid.  surface    -2.1669E-05 -2.1669E-05 -2.1669E-05  0.0000E+00  0.0000E+00  0.0000E+00  0.0000E+00



 n o d a l  s t r a i n  c a l c u l a t i o n s   f o r   t i m e  s t e p        1   ( at time 0.00000E+00 )

 node (global)
          strain       eps-xx      eps-yy      eps-zz      eps-xy      eps-yz      eps-zx       
       4-
 mid.  surface     0.0000E+00  0.0000E+00  0.0000E+00  0.0000E+00  0.0000E+00  0.0000E+00
       5-
 mid.  surface     0.0000E+00  0.0000E+00  0.0000E+00  0.0000E+00  0.0000E+00  0.0000E+00
       6-
 mid.  surface     0.0000E+00  0.0000E+00  0.0000E+00  0.0000E+00  0.0000E+00  0.0000E+00
       7-
 mid.  surface     0.0000E+00  0.0000E+00  0.0000E+00  0.0000E+00  0.0000E+00  0.0000E+00
       8-
 mid.  surface     0.0000E+00  0.0000E+00  0.0000E+00  0.0000E+00  0.0000E+00  0.0000E+00
       9-
 mid.  surface     0.0000E+00  0.0000E+00  0.0000E+00  0.0000E+00  0.0000E+00  0.0000E+00
      10-
 mid.  surface     0.0000E+00  0.0000E+00  0.0000E+00  0.0000E+00  0.0000E+00  0.0000E+00
      15-
 mid.  surface     0.0000E+00  0.0000E+00  0.0000E+00  0.0000E+00  0.0000E+00  0.0000E+00
      16-
 mid.  surface     0.0000E+00  0.0000E+00  0.0000E+00  0.0000E+00  0.0000E+00  0.0000E+00
      18-
 mid.  surface     0.0000E+00  0.0000E+00  0.0000E+00  0.0000E+00  0.0000E+00  0.0000E+00
      40-
 mid.  surface     0.0000E+00  0.0000E+00  0.0000E+00  0.0000E+00  0.0000E+00  0.0000E+00
      41-
 mid.  surface     0.0000E+00  0.0000E+00  0.0000E+00  0.0000E+00  0.0000E+00  0.0000E+00
      50-
 mid.  surface     0.0000E+00  0.0000E+00  0.0000E+00  0.0000E+00  0.0000E+00  0.0000E+00
      51-
 mid.  surface     0.0000E+00  0.0000E+00  0.0000E+00  0.0000E+00  0.0000E+00  0.0000E+00
      52-
 mid.  surface     0.0000E+00  0.0000E+00  0.0000E+00  0.0000E+00  0.0000E+00  0.0000E+00
      53-
 mid.  surface     0.0000E+00  0.0000E+00  0.0000E+00  0.0000E+00  0.0000E+00  0.0000E+00
      72-
 mid.  surface     0.0000E+00  0.0000E+00  0.0000E+00  0.0000E+00  0.0000E+00  0.0000E+00
      95-
 mid.  surface     0.0000E+00  0.0000E+00  0.0000E+00  0.0000E+00  0.0000E+00  0.0000E+00
     100-
 mid.  surface     0.0000E+00  0.0000E+00  0.0000E+00  0.0000E+00  0.0000E+00  0.0000E+00
     110-
 mid.  surface     0.0000E+00  0.0000E+00  0.0000E+00  0.0000E+00  0.0000E+00  0.0000E+00



 n o d a l  s t r e s s  c a l c u l a t i o n s   f o r   t i m e  s t e p       10   ( at time 1.29245E+00 )

 node (global)
          stress       sig-xx      sig-yy      sig-zz      sig-xy      sig-yz      sig-zx       plastic
                                                                                                 strain 
       4-
 mid.  surface    -1.0321E+08 -1.1469E+08 -3.4374E+08  3.6790E+07 -7.4949E+05  1.3230E+07  1.1771E-03
       5-
 mid.  surface     2.0714E+07 -2.6964E+07 -2.2836E+08  7.1882E+07 -2.4160E+07 -1.2140E+08  2.6567E-04
       6-
 mid.  surface    -3.0267E+07 -2.6393E+07 -2.2842E+08  3.6564E+07 -1.3267E+08 -7.2046E+07  4.6693E-04
       7-
 mid.  surface    -8.8371E+07 -4.7196E+07 -2.6124E+08  3.2015E+07 -1.4797E+08  8.5488E+06  1.0310E-03
       8-
 mid.  surface    -1.1316E+08 -5.0897E+07 -2.8628E+08  1.0004E+07 -9.5736E+07  3.7526E+07  1.1996E-03
       9-
 mid.  surface    -1.7799E+08 -1.3873E+08 -3.7857E+08 -3.4690E+07 -2.9799E+07  2.9057E+07  1.2592E-03
      10-
 mid.  surface    -2.2984E+07  8.7148E+07 -1.9399E+08 -2.6815E+07  4.8584E+06  1.7996E+07  4.9989E-05
      15-
 mid.  surface     1.5089E+07 -3.3383E+07 -2.1088E+08  3.8157E+07 -5.8676E+07 -1.8977E+07  7.5066E-04
      16-
 mid.  surface    -5.1525E+07 -8.9482E+07 -2.8030E+08 -6.7596E+05 -4.0751E+07  1.3542E+06  1.0065E-03
      18-
 mid.  surface     4.0610E+07  1.0392E+08 -1.5018E+08  4.4314E+07 -5.0621E+07 -1.0375E+07  1.1827E-04
      40-
 mid.  surface    -6.8787E+07 -2.9075E+07 -3.1043E+08  3.5006E+07  2.8495E+07 -9.7352E+06 -1.5155E-05
      41-
 mid.  surface    -9.0194E+07 -1.9060E+07 -2.8880E+08  2.1668E+06 -2.7228E+07 -7.3026E+06 -8.9973E-05
      50-
 mid.  surface    -1.9076E+08 -2.1435E+08 -4.6280E+08 -3.0095E+07  5.6437E+07  3.5538E+07  7.9767E-04
      51-
 mid.  surface    -2.7829E+08 -2.3916E+08 -5.2982E+08 -1.2040E+06  7.5477E+07  4.2337E+07  9.6836E-04
      52-
 mid.  surface    -1.8766E+08 -2.1826E+08 -4.3942E+08  3.5549E+07  1.0229E+08 -7.8759E+07  2.0243E-04
      53-
 mid.  surface    -1.9813E+08 -2.2246E+08 -4.5794E+08  8.7701E+06  2.9312E+07 -7.6550E+07  2.4573E-04
      72-
 mid.  surface    -1.1114E+08 -1.8027E+08 -4.1464E+08  1.9662E+07  6.6036E+07  8.7740E+06  5.0645E-04
      95-
 mid.  surface    -1.9472E+08 -2.2141E+08 -4.8587E+08  2.6069E+07  2.2554E+07 -7.2002E+07  5.4578E-04
     100-
 mid.  surface    -1.9097E+08 -1.6245E+08 -4.4236E+08  2.3254E+07 -2.9329E+07 -5.3513E+07  8.1448E-04
     110-
 mid.  surface    -2.4207E+08 -2.2137E+08 -4.5103E+08  7.3960E+05 -6.4489E+07 -4.7646E+07  1.1847E-03



 n o d a l  s t r a i n  c a l c u l a t i o n s   f o r   t i m e  s t e p       10   ( at time 1.29245E+00 )

 node (global)
          strain       eps-xx      eps-yy      eps-zz      eps-xy      eps-yz      eps-zx       
       4-
 mid.  surface     2.2386E-03  1.8813E-03 -6.7784E-03  9.7798E-04 -2.2590E-04 -5.5520E-04
       5-
 mid.  surface     2.2483E-03  5.2592E-04 -3.8857E-03  1.6314E-03 -4.4106E-04 -3.0027E-03
       6-
 mid.  surface     1.7481E-03  1.0236E-03 -4.1285E-03  8.3922E-04 -2.7960E-03 -2.1242E-03
       7-
 mid.  surface     1.9236E-03  1.9833E-03 -5.8056E-03  1.0230E-03 -3.5428E-03 -7.3437E-04
       8-
 mid.  surface     1.4934E-03  2.8771E-03 -6.5237E-03  5.0278E-04 -2.6006E-03  1.9611E-04
       9-
 mid.  surface     1.4447E-03  2.6146E-03 -7.3669E-03 -6.7816E-04 -1.1422E-03  4.0503E-04
      10-
 mid.  surface    -3.1826E-05  2.4670E-03 -3.0411E-03 -3.7688E-04 -1.2639E-04  2.6203E-04
      15-
 mid.  surface     2.2079E-03  1.3848E-03 -4.6787E-03  9.8567E-04 -1.0133E-03 -1.1616E-03
      16-
 mid.  surface     2.1961E-03  1.5282E-03 -5.7194E-03  1.1189E-04 -4.5204E-04 -7.0665E-04
      18-
 mid.  surface     6.1845E-04  2.3554E-03 -2.9960E-03  9.9943E-04 -1.0051E-03 -6.2569E-04
      40-
 mid.  surface     3.1626E-05  1.5510E-03 -3.5170E-03  6.5143E-04 -4.2235E-05  2.2616E-04
      41-
 mid.  surface    -3.6532E-04  1.4031E-03 -2.9179E-03  1.0837E-04 -1.2019E-03  2.3725E-04
      50-
 mid.  surface     1.1166E-03  1.3713E-03 -6.6089E-03 -4.4436E-04  3.7614E-04  9.4997E-04
      51-
 mid.  surface     7.8269E-04  1.9545E-03 -7.7086E-03  2.8626E-04  4.5272E-04  8.4905E-04
      52-
 mid.  surface     9.3553E-04 -1.4149E-04 -4.8081E-03  7.4937E-04  1.8937E-03 -1.6789E-03
      53-
 mid.  surface     1.0376E-03  5.2442E-05 -5.2628E-03  1.7960E-04  4.1406E-04 -1.5086E-03
      72-
 mid.  surface     1.4169E-03  7.7451E-04 -5.5423E-03  4.5365E-04  4.7641E-04  6.5043E-04
      95-
 mid.  surface     1.8230E-03  6.2277E-04 -6.7340E-03  6.4842E-04  3.7719E-04 -1.5319E-03
     100-
 mid.  surface     1.3217E-03  1.8583E-03 -6.9648E-03  5.4530E-04 -8.0212E-04 -1.1762E-03
     110-
 mid.  surface     1.2019E-03  1.6826E-03 -7.2302E-03  1.9641E-04 -2.1369E-03 -9.7809E-04



 n o d a l  s t r e s s  c a l c u l a t i o n s   f o r   t i m e  s t e p       35   ( at time 2.54839E+00 )

 node (global)
          stress       sig-xx      sig-yy      sig-zz      sig-xy      sig-yz      sig-zx       plastic
                                                                                                 strain 
       4-
 mid.  surface    -1.1155E+09 -9.9064E+08 -1.2397E+09  4.6134E+07 -4.2337E+07  7.5135E+07  2.4789E-02
       5-
 mid.  surface    -2.6973E+08 -1.8414E+08 -4.0202E+08  3.7440E+07 -3.4303E+07 -5.8474E+03  1.4951E-02
       6-
 mid.  surface     5.4562E+08  5.3485E+08  3.5683E+08  7.0764E+06 -1.8630E+08 -1.0216E+08  1.2655E-02
       7-
 mid.  surface     1.3003E+08  1.0279E+08 -7.2056E+07  1.2272E+07 -1.7617E+08 -3.0014E+07  1.7785E-02
       8-
 mid.  surface     3.1991E+07  3.9798E+07 -1.5913E+08  2.0695E+07 -8.2003E+07  1.3866E+07  2.4167E-02
       9-
 mid.  surface    -3.8339E+08 -3.7148E+08 -6.7837E+08 -2.2966E+07  3.3539E+07  5.4139E+06  2.1842E-02
      10-
 mid.  surface     1.7545E+08  2.6068E+08 -4.3425E+07 -3.1918E+07  4.0592E+07  3.1406E+06  8.0728E-03
      15-
 mid.  surface     1.1988E+08  1.4216E+08 -3.6084E+07  2.2362E+07 -1.5439E+08 -7.0939E+07  1.8995E-02
      16-
 mid.  surface    -1.7827E+08 -1.3630E+08 -3.4287E+08  1.6483E+07 -1.6127E+08 -9.1929E+07  2.1219E-02
      18-
 mid.  surface     4.5098E+08  5.1408E+08  3.0801E+08  2.0549E+07 -7.7462E+07 -2.9927E+07  1.4417E-02
      40-
 mid.  surface    -1.7758E+07  3.1422E+07 -1.9146E+08  9.5629E+06  1.6198E+07  1.3600E+07  1.3569E-02
      41-
 mid.  surface    -4.7831E+07 -3.0869E+07 -2.6342E+08  9.7340E+06 -1.0878E+08 -1.8991E+07  5.2799E-03
      50-
 mid.  surface    -4.7927E+08 -5.3865E+08 -8.4804E+08  2.1501E+07  1.0497E+08  8.6183E+07  1.7789E-02
      51-
 mid.  surface    -1.2006E+09 -1.1981E+09 -1.3835E+09 -2.9319E+07  2.1326E+08 -3.0517E+07  2.6826E-02
      52-
 mid.  surface    -3.0360E+08 -3.3101E+08 -4.5805E+08 -9.7848E+06  2.4773E+08 -8.8266E+07  2.0293E-02
      53-
 mid.  surface    -7.5295E+06 -1.0662E+08 -3.9289E+08  2.0309E+07  1.1598E+08  4.3835E+07  1.1790E-02
      72-
 mid.  surface    -3.2322E+08 -3.1366E+08 -6.0165E+08  3.1701E+07  6.2067E+07  3.9136E+07  1.5178E-02
      95-
 mid.  surface    -3.1970E+08 -3.6265E+08 -6.5502E+08  1.7262E+07  7.4641E+07  1.4618E+07  1.4526E-02
     100-
 mid.  surface    -3.3629E+08 -3.5476E+08 -5.7605E+08  1.1853E+07  2.0769E+07 -1.5298E+07  2.3426E-02
     110-
 mid.  surface    -4.8645E+08 -5.4644E+08 -7.4777E+08  2.3570E+07 -1.0760E+08 -5.7443E+07  2.2513E-02



 n o d a l  s t r a i n  c a l c u l a t i o n s   f o r   t i m e  s t e p       35   ( at time 2.54839E+00 )

 node (global)
          strain       eps-xx      eps-yy      eps-zz      eps-xy      eps-yz      eps-zx       
       4-
 mid.  surface     2.9988E-03  1.0483E-02 -2.8903E-02  2.7497E-03  3.6492E-04  5.4573E-03
       5-
 mid.  surface     3.6218E-03  8.4381E-03 -1.5725E-02  3.8513E-03  2.3178E-05  9.6792E-05
       6-
 mid.  surface     8.7934E-03  7.6062E-03 -9.6534E-03  1.5401E-03 -1.5840E-02 -1.0995E-02
       7-
 mid.  surface     9.8535E-03  7.0699E-03 -1.6395E-02  1.7948E-03 -1.6880E-02 -4.6363E-03
       8-
 mid.  surface     9.9373E-03  1.1531E-02 -2.2069E-02  2.5729E-03 -9.2889E-03  2.8948E-04
       9-
 mid.  surface     9.7719E-03  1.1545E-02 -2.8298E-02 -2.4320E-03  2.4254E-03  3.9703E-04
      10-
 mid.  surface     3.9742E-03  1.2347E-02 -1.4501E-02 -2.4954E-03  3.3529E-03  1.5868E-04
      15-
 mid.  surface     8.7032E-03  8.6655E-03 -1.6423E-02  1.7914E-03 -1.2300E-02 -7.9280E-03
      16-
 mid.  surface     7.9204E-03  9.6730E-03 -2.0735E-02  8.9333E-04 -1.0750E-02 -1.0026E-02
      18-
 mid.  surface     6.1577E-03  1.2214E-02 -1.2366E-02  2.6341E-03 -7.6697E-03 -3.6945E-03
      40-
 mid.  surface     4.6317E-03  9.2658E-03 -1.4842E-02  1.2690E-03  7.8608E-05  1.1392E-03
      41-
 mid.  surface     3.5920E-03  5.0703E-03 -1.0286E-02  1.0813E-03 -1.0942E-02 -1.1333E-03
      50-
 mid.  surface     1.2888E-02  7.6083E-03 -2.9764E-02  2.1192E-03  5.8501E-03  8.2740E-03
      51-
 mid.  surface     6.3651E-03  5.6432E-03 -3.0022E-02 -2.9709E-03  8.3872E-03 -5.5987E-03
      52-
 mid.  surface     7.1459E-03  3.5871E-03 -1.6070E-02  1.9573E-04  1.2891E-02 -1.1126E-02
      53-
 mid.  surface     1.3157E-02  5.4471E-03 -2.1426E-02  3.5992E-03  7.0264E-03  4.2829E-03
      72-
 mid.  surface     8.6634E-03  8.5652E-03 -2.3376E-02  2.6736E-03  6.7694E-03  4.4107E-03
      95-
 mid.  surface     1.0688E-02  7.0746E-03 -2.4412E-02  2.1847E-03  8.3728E-03  4.9381E-04
     100-
 mid.  surface     9.8732E-03  8.3948E-03 -2.4495E-02  1.3269E-03  8.7108E-04 -2.4113E-03
     110-
 mid.  surface     1.0186E-02  4.5178E-03 -2.3361E-02  2.2179E-03 -1.1749E-02 -5.5334E-03



 n o d a l  s t r e s s  c a l c u l a t i o n s   f o r   t i m e  s t e p       58   ( at time 3.17785E+00 )

 node (global)
          stress       sig-xx      sig-yy      sig-zz      sig-xy      sig-yz      sig-zx       plastic
                                                                                                 strain 
       4-
 mid.  surface    -1.5141E+09 -1.4098E+09 -1.6645E+09  3.0675E+07 -6.7781E+07  1.0013E+08  3.3248E-02
       5-
 mid.  surface    -5.9243E+08 -4.3319E+08 -6.6829E+08 -8.6424E+06 -1.7095E+07  1.3448E+08  2.6942E-02
       6-
 mid.  surface     7.9132E+08  7.9056E+08  5.9256E+08  1.7845E+06 -1.6324E+08 -6.6852E+07  2.0088E-02
       7-
 mid.  surface     2.5786E+08  1.9197E+08  3.5525E+06  1.2331E+07 -1.4688E+08 -4.6139E+07  2.4398E-02
       8-
 mid.  surface     6.7727E+07  4.3491E+07 -8.0325E+07  2.4676E+07 -5.6635E+07 -4.6186E+06  3.6680E-02
       9-
 mid.  surface    -5.2528E+08 -5.0667E+08 -8.6524E+08 -9.4277E+06  7.4589E+07 -6.9083E+06  2.9802E-02
      10-
 mid.  surface     1.9727E+08  2.8311E+08 -8.3636E+07 -2.1642E+07  8.9786E+07 -3.6588E+06  1.3445E-02
      15-
 mid.  surface     1.5171E+08  2.2179E+08  1.3843E+07  1.3856E+07 -2.0124E+08 -1.0467E+08  2.8498E-02
      16-
 mid.  surface    -1.7070E+08 -1.0737E+08 -3.2578E+08  3.7806E+07 -2.2800E+08 -1.3192E+08  3.0083E-02
      18-
 mid.  surface     5.5172E+08  6.1036E+08  4.6253E+08  3.0482E+06 -6.4612E+07 -3.8103E+07  2.6027E-02
      40-
 mid.  surface    -5.6695E+07 -3.7108E+07 -1.9060E+08 -5.8613E+06  9.0171E+06  2.3274E+07  2.4571E-02
      41-
 mid.  surface    -6.5237E+07 -7.4597E+07 -3.5396E+08  7.5501E+06 -1.4553E+08 -2.2935E+07  8.2013E-03
      50-
 mid.  surface    -5.6910E+08 -6.4956E+08 -9.3577E+08  4.3725E+07  8.3703E+07  3.9205E+07  2.5760E-02
      51-
 mid.  surface    -1.5319E+09 -1.5866E+09 -1.6633E+09 -3.1204E+07  2.4687E+08 -1.5075E+08  3.8478E-02
      52-
 mid.  surface    -4.3325E+08 -4.0846E+08 -4.7364E+08 -2.5355E+07  2.9301E+08 -1.0072E+08  3.5347E-02
      53-
 mid.  surface     1.1766E+07 -7.2431E+07 -3.3230E+08  3.0975E+07  1.5790E+08  1.0020E+08  2.1756E-02
      72-
 mid.  surface    -3.9522E+08 -3.6823E+08 -6.9009E+08  2.9900E+07  4.8844E+07  3.5653E+07  2.2966E-02
      95-
 mid.  surface    -3.9271E+08 -4.3928E+08 -7.3635E+08  2.1328E+07  1.1804E+08  7.3673E+07  2.2462E-02
     100-
 mid.  surface    -4.4944E+08 -5.0040E+08 -6.3698E+08  4.7485E+06  2.9328E+07  4.2873E+06  3.5562E-02
     110-
 mid.  surface    -6.1304E+08 -6.9245E+08 -9.3553E+08  1.9506E+07 -1.5496E+08 -5.4105E+07  2.8531E-02



 n o d a l  s t r a i n  c a l c u l a t i o n s   f o r   t i m e  s t e p       58   ( at time 3.17785E+00 )

 node (global)
          strain       eps-xx      eps-yy      eps-zz      eps-xy      eps-yz      eps-zx       
       4-
 mid.  surface     3.0555E-03  1.3388E-02 -3.7581E-02  2.8351E-03  1.0431E-03  1.0430E-02
       5-
 mid.  surface     3.9913E-03  1.3400E-02 -2.4888E-02  3.1199E-03  1.0057E-03  5.6876E-03
       6-
 mid.  surface     1.2578E-02  1.1189E-02 -1.3520E-02  1.8685E-03 -2.0916E-02 -1.4478E-02
       7-
 mid.  surface     1.4121E-02  8.7895E-03 -2.0999E-02  2.3904E-03 -2.2630E-02 -7.7346E-03
       8-
 mid.  surface     1.4186E-02  1.4836E-02 -2.9074E-02  3.9638E-03 -1.1735E-02 -4.5997E-04
       9-
 mid.  surface     1.3757E-02  1.6148E-02 -3.9137E-02 -2.6298E-03  5.4193E-03 -2.1780E-04
      10-
 mid.  surface     6.1081E-03  1.7545E-02 -2.1843E-02 -2.9912E-03  7.1887E-03 -2.4801E-04
      15-
 mid.  surface     1.1097E-02  1.3544E-02 -2.2960E-02  2.0582E-03 -1.8656E-02 -1.1774E-02
      16-
 mid.  surface     1.0202E-02  1.3942E-02 -2.7032E-02  2.2906E-03 -1.7091E-02 -1.4756E-02
      18-
 mid.  surface     8.7626E-03  1.7187E-02 -1.8290E-02  3.0553E-03 -9.4485E-03 -4.9728E-03
      40-
 mid.  surface     7.4805E-03  1.2324E-02 -2.1288E-02  1.0604E-03  6.3433E-04  1.9548E-03
      41-
 mid.  surface     6.0551E-03  6.3917E-03 -1.4804E-02  1.1384E-03 -1.6209E-02 -1.8582E-03
      50-
 mid.  surface     1.8790E-02  1.0166E-02 -3.9724E-02  3.8968E-03  8.5233E-03  1.0797E-02
      51-
 mid.  surface     8.5792E-03  5.8835E-03 -3.7231E-02 -4.4130E-03  1.2713E-02 -1.3088E-02
      52-
 mid.  surface     9.7045E-03  7.0403E-03 -2.3176E-02  1.0368E-05  1.7144E-02 -1.7715E-02
      53-
 mid.  surface     1.8981E-02  8.9575E-03 -3.0362E-02  5.7266E-03  1.0464E-02  8.1232E-03
      72-
 mid.  surface     1.2837E-02  1.3003E-02 -3.3106E-02  3.7404E-03  1.1027E-02  6.7276E-03
      95-
 mid.  surface     1.4863E-02  1.0204E-02 -3.2891E-02  3.2458E-03  1.3027E-02  3.2161E-03
     100-
 mid.  surface     1.4016E-02  1.0335E-02 -3.2124E-02  1.4292E-03  1.0980E-03 -2.5990E-03
     110-
 mid.  surface     1.4589E-02  5.4257E-03 -3.0891E-02  2.5339E-03 -1.7812E-02 -7.4796E-03



 n o d a l  s t r e s s  c a l c u l a t i o n s   f o r   t i m e  s t e p       72   ( at time 4.80495E+00 )

 node (global)
          stress       sig-xx      sig-yy      sig-zz      sig-xy      sig-yz      sig-zx       plastic
                                                                                                 strain 
       4-
 mid.  surface    -5.2674E+09 -5.1950E+09 -4.1888E+09  1.3589E+07  1.4303E+08  1.8767E+08 -2.0523E-02
       5-
 mid.  surface    -3.7325E+09 -3.6862E+09 -2.6542E+09 -2.6497E+07  1.8316E+08  2.0299E+08 -3.0648E-02
       6-
 mid.  surface    -6.3271E+08 -6.0780E+08 -2.6684E+08  2.0424E+05 -1.0475E+07  3.1953E+07 -9.9038E-03
       7-
 mid.  surface     9.4187E+07  1.6512E+07 -1.6631E+08 -9.3092E+06 -1.1896E+08 -5.0069E+07  4.5351E-02
       8-
 mid.  surface     6.5193E+07  4.0800E+07 -2.2121E+08  9.6144E+05 -5.3435E+07  1.6021E+07  5.9363E-02
       9-
 mid.  surface    -7.0503E+08 -6.8197E+08 -9.5598E+08 -1.8733E+07 -9.6618E+06 -7.5466E+06  5.8870E-02
      10-
 mid.  surface     4.6074E+08  5.3092E+08  2.4430E+08 -2.0250E+07 -1.7009E+07 -6.7261E+06  3.4763E-02
      15-
 mid.  surface    -1.3719E+08 -1.5110E+08 -3.4235E+08 -2.2784E+06 -1.5347E+08 -9.3060E+07  5.4088E-02
      16-
 mid.  surface    -2.3080E+09 -2.2213E+09 -1.8758E+09  3.0777E+07 -3.5885E+07 -1.9719E+06  8.7632E-03
      18-
 mid.  surface     8.3365E+08  8.5348E+08  5.9449E+08 -3.3278E+06 -1.0273E+08 -3.0591E+07  4.5172E-02
      40-
 mid.  surface     8.6994E+07  1.1938E+08 -1.5071E+08  1.8824E+07  4.7644E+06  1.7099E+07  4.5472E-02
      41-
 mid.  surface    -1.4504E+08 -1.5440E+08 -3.7765E+08  3.4268E+06 -4.2927E+07 -5.4436E+06  2.8302E-02
      50-
 mid.  surface     1.4540E+09  1.3935E+09  3.7691E+08  3.2558E+07 -4.2196E+07 -5.5239E+07  9.7145E-02
      51-
 mid.  surface     1.1660E+09  1.1386E+09 -3.5141E+08 -1.5755E+07 -9.9213E+07 -3.0995E+08  1.7137E-01
      52-
 mid.  surface     3.0652E+09  3.0526E+09  1.5611E+09 -2.3843E+06 -5.4635E+07 -2.8739E+08  1.6598E-01
      53-
 mid.  surface     2.4950E+09  2.4010E+09  1.4118E+09  1.9574E+07  2.7757E+06 -3.1248E+07  8.9271E-02
      72-
 mid.  surface    -3.1242E+08 -2.6791E+08 -6.0802E+08  2.3865E+07  4.1518E+07  3.5761E+07  4.7086E-02
      95-
 mid.  surface    -8.4958E+07 -1.1594E+08 -4.2832E+08  7.5542E+06  9.7473E+07  4.7648E+07  4.5068E-02
     100-
 mid.  surface    -5.6431E+08 -5.7957E+08 -8.3577E+08  1.3610E+07  6.7255E+07  2.2004E+07  6.1863E-02
     110-
 mid.  surface    -1.0673E+09 -1.1290E+09 -1.3412E+09  2.3703E+06 -3.3858E+07 -3.2769E+07  5.6387E-02



 n o d a l  s t r a i n  c a l c u l a t i o n s   f o r   t i m e  s t e p       72   ( at time 4.80495E+00 )

 node (global)
          strain       eps-xx      eps-yy      eps-zz      eps-xy      eps-yz      eps-zx       
       4-
 mid.  surface     1.8651E-02  2.5170E-02 -6.8406E-02  5.8015E-03 -6.1070E-05  1.0982E-02
       5-
 mid.  surface     1.9923E-02  2.5005E-02 -4.7983E-02  2.5938E-03 -3.3283E-05  1.5057E-03
       6-
 mid.  surface     2.0803E-02  2.2037E-02 -2.4244E-02  1.8761E-03 -3.1594E-02 -2.2459E-02
       7-
 mid.  surface     2.6460E-02  1.4026E-02 -3.7430E-02  2.7357E-03 -3.2445E-02 -1.1844E-02
       8-
 mid.  surface     2.5208E-02  2.4628E-02 -5.0743E-02  4.8684E-03 -1.6905E-02  7.0627E-04
       9-
 mid.  surface     2.4010E-02  3.0441E-02 -6.6025E-02 -4.4788E-03  3.8775E-03 -8.3349E-04
      10-
 mid.  surface     1.2177E-02  3.2830E-02 -3.9351E-02 -4.8833E-03  6.4505E-03 -4.7965E-04
      15-
 mid.  surface     2.2735E-02  2.1826E-02 -4.4118E-02  2.5296E-03 -2.7909E-02 -1.8700E-02
      16-
 mid.  surface     1.7491E-02  2.6408E-02 -4.8461E-02  4.4470E-03 -2.6345E-02 -2.3480E-02
      18-
 mid.  surface     1.6601E-02  2.8915E-02 -3.4827E-02  3.9706E-03 -1.6263E-02 -6.9825E-03
      40-
 mid.  surface     1.5715E-02  2.4211E-02 -3.9941E-02  3.3096E-03  1.1745E-03  3.1817E-03
      41-
 mid.  surface     1.3696E-02  1.4365E-02 -3.1360E-02  1.5151E-03 -2.0078E-02 -2.2262E-03
      50-
 mid.  surface     3.3367E-02  2.0692E-02 -6.7752E-02  7.0888E-03  1.3033E-02  1.7732E-02
      51-
 mid.  surface     1.6291E-02  1.3816E-02 -6.9206E-02 -4.6253E-03  2.0016E-02 -1.9663E-02
      52-
 mid.  surface     1.8504E-02  1.6844E-02 -4.7456E-02  1.1773E-03  2.6312E-02 -2.8305E-02
      53-
 mid.  surface     3.3615E-02  1.7949E-02 -5.0654E-02  8.2794E-03  1.5458E-02  1.3380E-02
      72-
 mid.  surface     2.4030E-02  2.5199E-02 -5.9575E-02  7.1100E-03  1.6377E-02  1.0632E-02
      95-
 mid.  surface     2.8364E-02  1.9550E-02 -5.5660E-02  4.9671E-03  1.9752E-02  6.1003E-03
     100-
 mid.  surface     2.5846E-02  2.0795E-02 -5.6483E-02  2.7217E-03  3.9763E-03 -2.3602E-03
     110-
 mid.  surface     2.7039E-02  1.2470E-02 -5.6710E-02  2.7173E-03 -2.2574E-02 -1.1155E-02



 n o d a l  s t r e s s  c a l c u l a t i o n s   f o r   t i m e  s t e p       82   ( at time 5.80258E+00 )

 node (global)
          stress       sig-xx      sig-yy      sig-zz      sig-xy      sig-yz      sig-zx       plastic
                                                                                                 strain 
       4-
 mid.  surface    -5.8975E+09 -5.9770E+09 -5.0956E+09  1.3782E+08  2.3185E+08  2.8913E+08 -3.6997E-02
       5-
 mid.  surface    -3.2507E+09 -3.3207E+09 -2.9346E+09 -3.2514E+07  8.6039E+07  1.2929E+08 -2.6966E-02
       6-
 mid.  surface    -2.4424E+09 -2.3129E+09 -1.4617E+09 -5.2467E+07  1.9366E+08  2.3206E+08 -7.3152E-02
       7-
 mid.  surface    -8.0321E+08 -9.0851E+08 -7.5454E+08  1.0043E+06  3.4145E+07  7.5065E+07  4.1326E-02
       8-
 mid.  surface    -2.2051E+07 -6.6815E+07 -3.1926E+08 -9.1337E+06 -3.4805E+07  3.1121E+07  7.3097E-02
       9-
 mid.  surface    -8.0742E+08 -7.7129E+08 -1.0731E+09 -2.8011E+07 -1.7980E+07 -7.4729E+06  7.5432E-02
      10-
 mid.  surface     6.7226E+08  7.4997E+08  4.4091E+08 -2.1273E+07 -3.2870E+07 -6.5239E+06  4.6499E-02
      15-
 mid.  surface    -9.3316E+08 -9.9443E+08 -8.8566E+08 -7.8259E+06 -5.6181E+07 -6.9252E+06  5.8638E-02
      16-
 mid.  surface    -3.3278E+09 -3.2133E+09 -2.9142E+09  1.3242E+07  6.8335E+07  7.8083E+07 -9.6076E-03
      18-
 mid.  surface     9.4732E+08  9.4885E+08  6.9731E+08 -5.9070E+06 -9.2450E+07 -2.1239E+07  5.6347E-02
      40-
 mid.  surface     1.3411E+08  1.6054E+08 -8.4973E+07  1.2437E+07 -2.2748E+06  1.7605E+07  5.9229E-02
      41-
 mid.  surface    -9.2917E+07 -9.2414E+07 -3.4155E+08  4.9261E+06 -3.4192E+07 -2.5945E+06  3.9886E-02
      50-
 mid.  surface     2.2432E+09  2.2294E+09  1.1960E+09  3.2715E+07 -1.6002E+08 -1.6816E+08  1.4092E-01
      51-
 mid.  surface     6.0962E+08  5.5829E+08 -3.1984E+08  1.4671E+08  1.7037E+08 -1.5736E+08  2.3605E-01
      52-
 mid.  surface     2.3520E+09  2.3861E+09  1.6510E+09  1.1341E+07  7.1752E+07 -2.3373E+08  2.1609E-01
      53-
 mid.  surface     2.9501E+09  3.0059E+09  2.2160E+09 -3.3301E+07 -8.6411E+07 -1.0157E+08  1.1072E-01
      72-
 mid.  surface     1.2011E+09  1.1730E+09  2.2045E+08 -3.0383E+05 -2.9128E+08 -2.1513E+08  1.0339E-01
      95-
 mid.  surface     9.0777E+08  8.5486E+08  2.0183E+08  7.6486E+06 -6.7349E+07 -9.6981E+07  8.2899E-02
     100-
 mid.  surface    -6.8984E+08 -7.1991E+08 -9.5076E+08  7.1766E+06  6.9187E+07  2.1295E+07  7.8936E-02
     110-
 mid.  surface    -1.3116E+09 -1.3577E+09 -1.5991E+09 -3.3030E+06 -1.8779E+07 -3.2951E+07  7.3092E-02



 n o d a l  s t r a i n  c a l c u l a t i o n s   f o r   t i m e  s t e p       82   ( at time 5.80258E+00 )

 node (global)
          strain       eps-xx      eps-yy      eps-zz      eps-xy      eps-yz      eps-zx       
       4-
 mid.  surface     3.0459E-02  3.6424E-02 -9.3862E-02  1.0805E-02 -2.0571E-03  9.7168E-03
       5-
 mid.  surface     3.1250E-02  3.3290E-02 -6.5894E-02  1.7326E-03 -1.6120E-03 -2.4975E-03
       6-
 mid.  surface     2.1044E-02  2.8523E-02 -2.6037E-02 -3.9793E-04 -3.9564E-02 -2.7232E-02
       7-
 mid.  surface     3.6310E-02  1.6387E-02 -4.9734E-02  4.1144E-03 -3.7431E-02 -1.5439E-02
       8-
 mid.  surface     3.2401E-02  2.8721E-02 -6.3525E-02  4.2657E-03 -1.8897E-02  2.4641E-03
       9-
 mid.  surface     3.0023E-02  3.9371E-02 -8.2597E-02 -6.2910E-03  2.9332E-03 -1.1406E-03
      10-
 mid.  surface     1.6039E-02  4.2256E-02 -4.9759E-02 -6.1763E-03  5.3378E-03 -6.7246E-04
      15-
 mid.  surface     3.3002E-02  2.5808E-02 -5.9146E-02  3.5937E-03 -3.3472E-02 -2.3631E-02
      16-
 mid.  surface     1.7435E-02  3.5133E-02 -6.0310E-02  4.9854E-03 -3.2390E-02 -2.9517E-02
      18-
 mid.  surface     2.1825E-02  3.4618E-02 -4.4333E-02  3.8197E-03 -1.9402E-02 -7.2223E-03
      40-
 mid.  surface     2.0453E-02  3.0420E-02 -5.0245E-02  4.1375E-03  5.5941E-04  3.5840E-03
      41-
 mid.  surface     1.8699E-02  2.0250E-02 -4.1595E-02  1.8331E-03 -2.2130E-02 -2.2494E-03
      50-
 mid.  surface     4.2100E-02  2.6912E-02 -8.3404E-02  8.0780E-03  1.5853E-02  2.3400E-02
      51-
 mid.  surface     2.3665E-02  1.9731E-02 -9.5161E-02 -3.2090E-03  2.5666E-02 -2.6241E-02
      52-
 mid.  surface     2.6220E-02  2.2107E-02 -6.6127E-02  3.1868E-03  3.5466E-02 -3.5821E-02
      53-
 mid.  surface     4.1537E-02  2.3479E-02 -5.8933E-02  8.6472E-03  1.7307E-02  1.7113E-02
      72-
 mid.  surface     3.1175E-02  3.3667E-02 -7.7308E-02  8.7824E-03  1.8133E-02  1.2225E-02
      95-
 mid.  surface     3.7542E-02  2.5758E-02 -7.1557E-02  5.5627E-03  2.3194E-02  6.8262E-03
     100-
 mid.  surface     3.3294E-02  2.5287E-02 -7.0356E-02  3.1941E-03  4.7739E-03 -2.7186E-03
     110-
 mid.  surface     3.4545E-02  1.7823E-02 -7.3171E-02  2.4097E-03 -2.4466E-02 -1.3407E-02



 n o d a l  s t r e s s  c a l c u l a t i o n s   f o r   t i m e  s t e p       90   ( at time 6.80021E+00 )

 node (global)
          stress       sig-xx      sig-yy      sig-zz      sig-xy      sig-yz      sig-zx       plastic
                                                                                                 strain 
       4-
 mid.  surface    -5.8682E+09 -5.9430E+09 -5.0659E+09  1.3349E+08  1.3000E+08  1.7960E+08 -5.7328E-02
       5-
 mid.  surface    -3.5415E+09 -3.6551E+09 -3.2798E+09 -4.8824E+07  8.1751E+07  8.3227E+07 -2.5654E-02
       6-
 mid.  surface    -3.2851E+09 -3.1684E+09 -2.4020E+09 -5.8405E+07  1.2358E+08  2.0741E+08 -1.2379E-01
       7-
 mid.  surface    -3.9218E+08 -5.6912E+08 -5.3895E+08  1.3184E+07 -7.1796E+07 -1.1322E+07  5.4500E-02
       8-
 mid.  surface    -8.4830E+07 -1.4574E+08 -4.2456E+08 -6.5850E+06 -4.5468E+07  2.8919E+07  8.4710E-02
       9-
 mid.  surface    -8.7267E+08 -8.4403E+08 -1.1292E+09 -1.1115E+07 -4.0419E+07 -1.4530E+07  9.2289E-02
      10-
 mid.  surface     8.3003E+08  9.1752E+08  6.1264E+08 -1.6257E+07 -4.3388E+07 -8.1187E+06  5.9425E-02
      15-
 mid.  surface    -7.5853E+08 -8.9818E+08 -8.9186E+08  7.0536E+06 -8.6618E+07 -1.9597E+07  7.3630E-02
      16-
 mid.  surface    -4.6447E+09 -4.5012E+09 -4.0343E+09  2.7688E+07  1.1889E+08  1.3632E+08 -4.0418E-02
      18-
 mid.  surface     9.5277E+08  9.6446E+08  6.7604E+08 -1.7193E+07 -1.0398E+08 -1.6910E+07  6.6927E-02
      40-
 mid.  surface     2.4001E+08  2.9092E+08 -2.5437E+07  2.3364E+07  1.5907E+07  3.0787E+07  7.2185E-02
      41-
 mid.  surface    -8.7876E+07 -9.4105E+07 -3.4621E+08 -4.8589E+06 -3.1381E+06  9.5429E+05  5.2638E-02
      50-
 mid.  surface     1.7347E+09  1.8252E+09  1.1552E+09  2.3054E+07  3.2278E+07 -4.9625E+07  1.5590E-01
      51-
 mid.  surface     1.3532E+09  1.2924E+09  4.3238E+08  1.3603E+08  8.5233E+07 -1.9085E+08  2.9144E-01
      52-
 mid.  surface     2.6459E+09  2.6703E+09  1.9136E+09  1.1674E+07  5.8060E+07 -1.8229E+08  2.6170E-01
      53-
 mid.  surface     2.6369E+09  2.7551E+09  2.0950E+09 -5.4318E+07  1.3553E+07 -6.2845E+07  1.2414E-01
      72-
 mid.  surface     1.4187E+09  1.4404E+09  5.4081E+08  1.0162E+07 -1.6818E+08 -1.6146E+08  1.5254E-01
      95-
 mid.  surface     1.7456E+09  1.6919E+09  8.3450E+08  4.5492E+06 -1.3947E+08 -1.7546E+08  1.3120E-01
     100-
 mid.  surface    -6.8650E+08 -6.9602E+08 -9.8947E+08  1.8435E+07  8.1160E+07  3.7228E+07  9.4549E-02
     110-
 mid.  surface    -1.5440E+09 -1.6078E+09 -1.8394E+09 -1.3259E+07 -2.8057E+06 -3.0246E+07  9.0211E-02



 n o d a l  s t r a i n  c a l c u l a t i o n s   f o r   t i m e  s t e p       90   ( at time 6.80021E+00 )

 node (global)
          strain       eps-xx      eps-yy      eps-zz      eps-xy      eps-yz      eps-zx       
       4-
 mid.  surface     4.2178E-02  4.6203E-02 -1.1494E-01  1.4218E-02 -3.8302E-03  5.1992E-03
       5-
 mid.  surface     4.2996E-02  3.9171E-02 -8.2690E-02 -1.3200E-03 -1.8236E-03 -6.4140E-03
       6-
 mid.  surface     2.1639E-02  3.5260E-02 -3.0326E-02 -2.6397E-03 -4.3873E-02 -3.0623E-02
       7-
 mid.  surface     4.8754E-02  2.0448E-02 -6.3226E-02  6.5088E-03 -4.1846E-02 -2.0989E-02
       8-
 mid.  surface     3.9860E-02  3.2198E-02 -7.5717E-02  3.9065E-03 -2.1285E-02  3.9980E-03
       9-
 mid.  surface     3.6091E-02  4.7954E-02 -9.8319E-02 -6.4360E-03  7.3516E-04 -1.7971E-03
      10-
 mid.  surface     1.9514E-02  5.2092E-02 -6.0793E-02 -6.9641E-03  4.6248E-03 -8.1919E-04
      15-
 mid.  surface     4.5816E-02  3.1253E-02 -7.6580E-02  5.9550E-03 -3.6257E-02 -2.8202E-02
      16-
 mid.  surface     1.7779E-02  4.3906E-02 -7.2075E-02  6.5119E-03 -3.6913E-02 -3.3132E-02
      18-
 mid.  surface     2.6635E-02  4.0345E-02 -5.4898E-02  2.7107E-03 -2.3490E-02 -7.3554E-03
      40-
 mid.  surface     2.5753E-02  3.8689E-02 -6.2525E-02  6.0472E-03  4.1601E-04  4.6649E-03
      41-
 mid.  surface     2.4385E-02  2.6074E-02 -5.3183E-02  1.3841E-03 -2.2600E-02 -1.9802E-03
      50-
 mid.  surface     5.0539E-02  3.2781E-02 -9.7183E-02  8.3622E-03  1.7231E-02  2.8368E-02
      51-
 mid.  surface     3.3046E-02  2.4956E-02 -1.1772E-01 -5.7976E-05  3.0105E-02 -3.2263E-02
      52-
 mid.  surface     3.5814E-02  2.8619E-02 -8.4765E-02  6.4353E-03  4.2549E-02 -3.9923E-02
      53-
 mid.  surface     4.9118E-02  2.8536E-02 -6.7952E-02  8.1792E-03  1.8564E-02  1.8791E-02
      72-
 mid.  surface     3.7110E-02  4.2717E-02 -9.6538E-02  9.9887E-03  2.0166E-02  1.3626E-02
      95-
 mid.  surface     4.5016E-02  3.2097E-02 -8.6932E-02  5.7605E-03  2.4153E-02  5.5596E-03
     100-
 mid.  surface     4.0951E-02  3.2144E-02 -8.5083E-02  4.7881E-03  6.1456E-03 -1.8102E-03
     110-
 mid.  surface     4.2798E-02  2.2393E-02 -8.9561E-02  1.5394E-03 -2.6652E-02 -1.5378E-02



 n o d a l  s t r e s s  c a l c u l a t i o n s   f o r   t i m e  s t e p       99   ( at time 7.79784E+00 )

 node (global)
          stress       sig-xx      sig-yy      sig-zz      sig-xy      sig-yz      sig-zx       plastic
                                                                                                 strain 
       4-
 mid.  surface    -6.0765E+09 -6.1696E+09 -5.2574E+09  1.2264E+08  1.2527E+08  1.4634E+08 -7.7094E-02
       5-
 mid.  surface    -3.8084E+09 -3.9331E+09 -3.5619E+09 -3.4073E+07  8.0833E+07  8.3405E+07 -2.7139E-02
       6-
 mid.  surface    -3.6771E+09 -3.6657E+09 -2.8507E+09 -4.6749E+07  1.2887E+08  2.5259E+08 -1.7508E-01
       7-
 mid.  surface    -2.6791E+07 -1.4204E+08 -3.2504E+08  1.0246E+07 -1.1823E+08 -2.3303E+07  7.6104E-02
       8-
 mid.  surface    -5.7110E+08 -7.0352E+08 -7.7631E+08  1.1031E+07  5.5075E+06  7.2506E+07  8.4718E-02
       9-
 mid.  surface    -8.6234E+08 -8.1952E+08 -1.1101E+09 -4.4375E+06 -5.6537E+07 -2.8133E+07  1.0995E-01
      10-
 mid.  surface     1.0642E+09  1.1741E+09  8.6370E+08 -1.3167E+07 -4.7213E+07 -1.3008E+07  7.3370E-02
      15-
 mid.  surface    -4.1754E+08 -4.3419E+08 -7.2973E+08 -8.9115E+06 -1.6449E+08 -8.9857E+07  1.0365E-01
      16-
 mid.  surface    -5.5036E+09 -5.4177E+09 -4.8845E+09  4.0014E+07  1.1815E+08  1.0826E+08 -6.8961E-02
      18-
 mid.  surface     1.2522E+09  1.2745E+09  8.0836E+08 -4.3582E+07 -1.6681E+08 -4.3636E+07  8.7416E-02
      40-
 mid.  surface     1.1478E+07  1.2842E+07 -1.1207E+08  2.8591E+07  6.5564E+07  7.6512E+07  7.4454E-02
      41-
 mid.  surface    -1.1853E+08 -1.7347E+08 -3.9301E+08 -1.3615E+07  1.5071E+07 -3.3950E+06  6.6285E-02
      50-
 mid.  surface     1.7222E+09  1.8138E+09  1.1563E+09  8.2939E+06  2.5714E+07 -8.0906E+07  1.7318E-01
      51-
 mid.  surface     1.5987E+09  1.6121E+09  7.1321E+08  1.0195E+08  8.0942E+07 -2.4350E+08  3.4940E-01
      52-
 mid.  surface     2.8403E+09  2.8927E+09  2.0927E+09 -2.5343E+06  6.8335E+07 -1.6394E+08  3.0643E-01
      53-
 mid.  surface     2.7815E+09  2.8605E+09  2.1985E+09 -6.7968E+07  2.1925E+07 -2.3718E+07  1.3826E-01
      72-
 mid.  surface     1.8134E+09  1.9142E+09  8.1032E+08 -1.1184E+07 -2.2254E+08 -2.2910E+08  2.1225E-01
      95-
 mid.  surface     1.7738E+09  1.7393E+09  1.0355E+09 -5.2321E+06 -8.0056E+07 -1.1593E+08  1.6949E-01
     100-
 mid.  surface    -1.6386E+09 -1.7357E+09 -1.4937E+09  3.9799E+07  2.4064E+08  1.4620E+08  8.1630E-02
     110-
 mid.  surface    -1.8581E+09 -1.9680E+09 -2.1679E+09 -2.5192E+07  6.6408E+06 -4.5453E+07  1.0824E-01



 n o d a l  s t r a i n  c a l c u l a t i o n s   f o r   t i m e  s t e p       99   ( at time 7.79784E+00 )

 node (global)
          strain       eps-xx      eps-yy      eps-zz      eps-xy      eps-yz      eps-zx       
       4-
 mid.  surface     5.1899E-02  5.6324E-02 -1.3665E-01  1.7315E-02 -5.6428E-03 -7.6685E-05
       5-
 mid.  surface     5.2410E-02  4.5468E-02 -9.7617E-02 -2.9031E-03 -2.6422E-03 -1.1903E-02
       6-
 mid.  surface     2.2980E-02  4.1780E-02 -3.5004E-02 -5.8079E-03 -4.7578E-02 -3.3138E-02
       7-
 mid.  surface     5.9106E-02  2.5471E-02 -7.7696E-02  7.7547E-03 -4.6028E-02 -2.3793E-02
       8-
 mid.  surface     4.8343E-02  3.3170E-02 -8.7216E-02  4.0787E-03 -2.3459E-02  5.8123E-03
       9-
 mid.  surface     4.2506E-02  5.7621E-02 -1.1431E-01 -6.2657E-03 -2.4074E-03 -3.1793E-03
      10-
 mid.  surface     2.2805E-02  6.3713E-02 -7.2291E-02 -7.7036E-03  4.3948E-03 -1.3326E-03
      15-
 mid.  surface     5.4244E-02  3.9284E-02 -9.4058E-02  6.2937E-03 -3.9542E-02 -3.2547E-02
      16-
 mid.  surface     1.8196E-02  5.1953E-02 -8.4859E-02  6.6617E-03 -4.0880E-02 -3.7342E-02
      18-
 mid.  surface     3.1725E-02  4.5196E-02 -6.5620E-02  6.4459E-04 -2.7605E-02 -6.5213E-03
      40-
 mid.  surface     3.1991E-02  4.6298E-02 -7.4666E-02  7.2378E-03  5.7653E-04  5.9960E-03
      41-
 mid.  surface     3.1553E-02  3.0229E-02 -6.5327E-02  3.1924E-04 -2.2189E-02 -2.0230E-03
      50-
 mid.  surface     5.7876E-02  3.9057E-02 -1.1178E-01  8.9597E-03  1.8196E-02  3.2127E-02
      51-
 mid.  surface     4.1110E-02  3.1467E-02 -1.4176E-01  2.0312E-03  3.4214E-02 -3.7245E-02
      52-
 mid.  surface     4.3831E-02  3.5451E-02 -1.0236E-01  8.3382E-03  5.0218E-02 -4.3091E-02
      53-
 mid.  surface     5.6474E-02  3.4010E-02 -7.7891E-02  8.1497E-03  2.0156E-02  2.1132E-02
      72-
 mid.  surface     4.3586E-02  5.1960E-02 -1.1530E-01  1.1676E-02  2.1191E-02  1.2821E-02
      95-
 mid.  surface     5.3670E-02  3.9156E-02 -1.0278E-01  6.5304E-03  2.5604E-02  4.4592E-03
     100-
 mid.  surface     4.9615E-02  3.8304E-02 -9.9279E-02  5.3679E-03  8.0171E-03 -1.2707E-03
     110-
 mid.  surface     5.2506E-02  2.4766E-02 -1.0654E-01 -1.3313E-04 -2.9165E-02 -1.8504E-02



 n o d a l  s t r e s s  c a l c u l a t i o n s   f o r   t i m e  s t e p      109   ( at time 8.79547E+00 )

 node (global)
          stress       sig-xx      sig-yy      sig-zz      sig-xy      sig-yz      sig-zx       plastic
                                                                                                 strain 
       4-
 mid.  surface    -1.9017E+09 -2.3710E+09 -3.0181E+09  8.6726E+07  9.6931E+07 -1.6679E+08  1.1394E-02
       5-
 mid.  surface    -5.0930E+09 -5.1883E+09 -4.0272E+09 -7.1221E+07  2.4358E+07  1.0043E+08 -5.8074E-02
       6-
 mid.  surface    -6.0855E+09 -5.9152E+09 -4.6737E+09 -3.2119E+07  9.7785E+07  3.7029E+08 -2.6188E-01
       7-
 mid.  surface    -2.0553E+08 -3.1164E+08 -5.1755E+08 -1.4939E+07 -1.2748E+08 -1.3820E+07  9.4522E-02
       8-
 mid.  surface    -8.0149E+08 -9.3955E+08 -1.0023E+09  1.4523E+07  3.1250E+06  7.7185E+07  8.5678E-02
       9-
 mid.  surface    -8.7398E+08 -8.3833E+08 -1.1360E+09 -2.0149E+06 -6.0572E+07 -2.8007E+07  1.2741E-01
      10-
 mid.  surface     1.2974E+09  1.3934E+09  1.0892E+09 -1.5338E+07 -6.7865E+07 -1.3873E+07  8.7452E-02
      15-
 mid.  surface    -5.2792E+08 -5.6039E+08 -8.4648E+08 -8.1174E+07 -1.8833E+08 -1.2916E+08  1.3195E-01
      16-
 mid.  surface    -5.3961E+09 -5.3721E+09 -5.3147E+09  1.5420E+07  1.3746E+08  7.9391E+07 -7.5830E-02
      18-
 mid.  surface     1.2889E+09  1.2903E+09  8.5162E+08 -5.7928E+07 -1.8875E+08 -5.0238E+07  1.0992E-01
      40-
 mid.  surface     3.6272E+07  3.1075E+07 -8.9525E+07  4.1679E+07  5.1661E+07  7.2583E+07  7.7704E-02
      41-
 mid.  surface    -1.3602E+08 -1.9152E+08 -4.2077E+08 -1.2577E+07  1.5941E+07 -2.9156E+06  8.0177E-02
      50-
 mid.  surface     2.0559E+09  2.1835E+09  1.3276E+09  4.9792E+07  7.4779E+07 -5.5458E+07  1.9711E-01
      51-
 mid.  surface     5.5194E+09  5.1308E+09  3.3729E+09  1.3342E+08  1.1323E+08 -4.4475E+08  4.8422E-01
      52-
 mid.  surface     2.1730E+09  2.1786E+09  2.3234E+09 -1.1070E+07  8.2264E+07 -2.1929E+08  3.2195E-01
      53-
 mid.  surface     7.4725E+08  1.0520E+09  1.0960E+09  4.9039E+05  1.0870E+07  1.6730E+08  1.0059E-01
      72-
 mid.  surface     2.0370E+09  2.2017E+09  1.0303E+09 -1.9951E+07 -2.3441E+08 -2.4262E+08  2.7205E-01
      95-
 mid.  surface     1.8764E+09  1.9232E+09  1.1331E+09  5.5933E+07 -6.4198E+07 -6.9220E+07  2.0572E-01
     100-
 mid.  surface    -1.8233E+09 -1.9197E+09 -1.6868E+09  7.0619E+07  2.5018E+08  1.5763E+08  6.8922E-02
     110-
 mid.  surface    -2.1787E+09 -2.2825E+09 -2.4928E+09 -2.5750E+07  2.6379E+07 -4.2755E+07  1.2711E-01



 n o d a l  s t r a i n  c a l c u l a t i o n s   f o r   t i m e  s t e p      109   ( at time 8.79547E+00 )

 node (global)
          strain       eps-xx      eps-yy      eps-zz      eps-xy      eps-yz      eps-zx       
       4-
 mid.  surface     8.3347E-02  6.4157E-02 -1.6524E-01  2.1625E-02 -8.8419E-03 -4.9102E-03
       5-
 mid.  surface     8.0470E-02  5.6286E-02 -1.1741E-01 -4.8734E-03 -6.4156E-03 -2.8339E-02
       6-
 mid.  surface     2.6171E-02  5.2171E-02 -4.0623E-02 -7.1086E-03 -5.3338E-02 -3.5177E-02
       7-
 mid.  surface     6.5908E-02  2.9764E-02 -9.1212E-02  8.3047E-03 -4.9072E-02 -2.4858E-02
       8-
 mid.  surface     5.6641E-02  3.4465E-02 -9.8962E-02  3.7471E-03 -2.5797E-02  7.5312E-03
       9-
 mid.  surface     4.9207E-02  6.6744E-02 -1.3058E-01 -6.0322E-03 -5.7257E-03 -4.4354E-03
      10-
 mid.  surface     2.6688E-02  7.4836E-02 -8.4189E-02 -8.6465E-03  3.3847E-03 -1.7447E-03
      15-
 mid.  surface     6.1226E-02  4.6255E-02 -1.1078E-01  3.9010E-03 -4.3551E-02 -3.7022E-02
      16-
 mid.  surface     2.1609E-02  6.0836E-02 -9.9427E-02  7.6596E-03 -4.2856E-02 -4.0018E-02
      18-
 mid.  surface     3.7832E-02  5.0289E-02 -7.7551E-02 -1.4136E-03 -3.1954E-02 -5.9589E-03
      40-
 mid.  surface     3.8465E-02  5.4428E-02 -8.7863E-02  8.9140E-03  1.6996E-04  6.9168E-03
      41-
 mid.  surface     3.8859E-02  3.5302E-02 -7.8102E-02 -4.6329E-04 -2.2683E-02 -2.0235E-03
      50-
 mid.  surface     6.3047E-02  4.6798E-02 -1.2733E-01  9.5889E-03  2.1047E-02  3.5804E-02
      51-
 mid.  surface     4.6293E-02  3.9508E-02 -1.7124E-01  3.4737E-03  3.8385E-02 -3.8417E-02
      52-
 mid.  surface     4.8055E-02  4.4355E-02 -1.2398E-01  8.9727E-03  5.8263E-02 -5.1702E-02
      53-
 mid.  surface     6.0888E-02  4.1365E-02 -8.7022E-02  8.6313E-03  2.0307E-02  2.1929E-02
      72-
 mid.  surface     5.0742E-02  6.2124E-02 -1.3370E-01  1.3892E-02  2.1121E-02  1.1524E-02
      95-
 mid.  surface     6.3860E-02  4.6878E-02 -1.1826E-01  8.6975E-03  2.7325E-02  4.1075E-03
     100-
 mid.  surface     5.8362E-02  4.4661E-02 -1.1389E-01  6.4714E-03  8.9983E-03 -6.6379E-04
     110-
 mid.  surface     6.2290E-02  2.7997E-02 -1.2428E-01 -1.6814E-03 -3.1891E-02 -2.1494E-02



 n o d a l  s t r e s s  c a l c u l a t i o n s   f o r   t i m e  s t e p      117   ( at time 9.79310E+00 )

 node (global)
          stress       sig-xx      sig-yy      sig-zz      sig-xy      sig-yz      sig-zx       plastic
                                                                                                 strain 
       4-
 mid.  surface    -4.6202E+09 -4.6428E+09 -4.2032E+09  2.2332E+07  6.3094E+07  5.4101E+07  1.3751E-02
       5-
 mid.  surface    -2.1467E+09 -2.3784E+09 -2.6521E+09 -3.1959E+07 -2.4426E+07 -1.3920E+08 -2.6580E-02
       6-
 mid.  surface    -5.5432E+09 -5.4142E+09 -4.8181E+09  9.7915E+06  7.2127E+07  2.2818E+08 -3.0059E-01
       7-
 mid.  surface    -1.6903E+08 -1.8508E+08 -4.4487E+08  6.7874E+06 -1.3900E+08 -2.4836E+07  1.1218E-01
       8-
 mid.  surface    -1.0598E+09 -1.1677E+09 -1.2338E+09  7.4771E+06 -4.0983E+06  5.9970E+07  8.8344E-02
       9-
 mid.  surface    -9.3055E+08 -9.1074E+08 -1.1996E+09 -7.4964E+06 -5.8532E+07 -1.9919E+07  1.4466E-01
      10-
 mid.  surface     1.4174E+09  1.5011E+09  1.2040E+09 -1.8953E+07 -7.9334E+07 -9.4245E+06  1.0171E-01
      15-
 mid.  surface    -5.1314E+08 -5.5706E+08 -8.7073E+08 -5.5403E+07 -1.8948E+08 -1.3394E+08  1.5574E-01
      16-
 mid.  surface    -7.5381E+09 -7.4606E+09 -6.7162E+09 -1.6775E+07  1.1961E+08  1.7460E+08 -1.1400E-01
      18-
 mid.  surface     1.3436E+09  1.3501E+09  8.9044E+08 -3.9702E+07 -1.7471E+08 -6.0079E+07  1.3144E-01
      40-
 mid.  surface    -2.8572E+07 -1.4071E+07 -1.5573E+08  4.0042E+07  4.9505E+07  7.1580E+07  8.0983E-02
      41-
 mid.  surface    -1.6748E+08 -1.7424E+08 -4.5132E+08 -1.2752E+07  4.2424E+06  7.9289E+06  9.3547E-02
      50-
 mid.  surface     7.5660E+08  8.2385E+08  6.9264E+08  1.0587E+07  1.1279E+08  5.6257E+07  1.9176E-01
      51-
 mid.  surface     3.9263E+09  3.7337E+09  3.1707E+09  5.5150E+07  9.5494E+07 -1.8929E+08  5.3400E-01
      52-
 mid.  surface     6.0401E+09  5.6801E+09  4.4741E+09  3.1817E+07  4.9411E+07 -3.8681E+08  4.0115E-01
      53-
 mid.  surface     2.1940E+09  2.2684E+09  1.7136E+09  2.9258E+07  4.4581E+07  4.5289E+07  1.1159E-01
      72-
 mid.  surface     2.5275E+09  2.5786E+09  1.3869E+09 -1.0323E+06 -1.8467E+08 -2.2197E+08  3.2618E-01
      95-
 mid.  surface     2.2200E+09  2.2994E+09  1.4427E+09  5.9232E+07 -4.4710E+07 -6.5459E+07  2.4087E-01
     100-
 mid.  surface    -2.1759E+09 -2.2380E+09 -2.0100E+09  5.1200E+07  2.2365E+08  1.5117E+08  5.8211E-02
     110-
 mid.  surface    -2.4257E+09 -2.4906E+09 -2.7441E+09 -2.4752E+07  2.6430E+07 -2.7769E+07  1.4493E-01



 n o d a l  s t r a i n  c a l c u l a t i o n s   f o r   t i m e  s t e p      117   ( at time 9.79310E+00 )

 node (global)
          strain       eps-xx      eps-yy      eps-zz      eps-xy      eps-yz      eps-zx       
       4-
 mid.  surface     1.0746E-01  6.9246E-02 -1.8774E-01  2.3874E-02 -1.1602E-02 -7.2883E-03
       5-
 mid.  surface     9.9935E-02  6.3943E-02 -1.3616E-01 -2.5398E-03 -1.0007E-02 -3.8958E-02
       6-
 mid.  surface     3.1566E-02  6.1265E-02 -4.9174E-02 -5.8311E-03 -5.6527E-02 -3.7018E-02
       7-
 mid.  surface     7.2428E-02  3.6408E-02 -1.0372E-01  9.2063E-03 -5.1958E-02 -2.6025E-02
       8-
 mid.  surface     6.4281E-02  3.7605E-02 -1.1136E-01  3.8123E-03 -2.7437E-02  8.1906E-03
       9-
 mid.  surface     5.5862E-02  7.5161E-02 -1.4671E-01 -6.1144E-03 -8.5283E-03 -5.1602E-03
      10-
 mid.  surface     3.0589E-02  8.5078E-02 -9.6786E-02 -9.5628E-03  2.2029E-03 -1.7642E-03
      15-
 mid.  surface     6.8040E-02  5.2104E-02 -1.2519E-01  2.2651E-03 -4.6687E-02 -4.0889E-02
      16-
 mid.  surface     2.9761E-02  6.6047E-02 -1.1310E-01  7.4731E-03 -4.3356E-02 -4.1876E-02
      18-
 mid.  surface     4.3488E-02  5.6010E-02 -8.9958E-02 -2.4202E-03 -3.5186E-02 -6.0669E-03
      40-
 mid.  surface     4.4270E-02  6.2979E-02 -1.0130E-01  1.1116E-02 -4.5458E-04  7.7848E-03
      41-
 mid.  surface     4.4649E-02  4.2363E-02 -9.1268E-02 -1.1112E-03 -2.4425E-02 -1.2099E-03
      50-
 mid.  surface     6.9940E-02  5.3072E-02 -1.4224E-01  9.2775E-03  2.3440E-02  3.7697E-02
      51-
 mid.  surface     5.2176E-02  4.7848E-02 -1.9447E-01  3.8740E-03  4.0331E-02 -4.0065E-02
      52-
 mid.  surface     5.1000E-02  5.3436E-02 -1.4403E-01  1.0101E-02  6.3483E-02 -5.7130E-02
      53-
 mid.  surface     6.6047E-02  4.9035E-02 -9.9226E-02  9.8666E-03  2.1637E-02  2.1684E-02
      72-
 mid.  surface     5.7914E-02  6.9994E-02 -1.4976E-01  1.6009E-02  2.0812E-02  1.0876E-02
      95-
 mid.  surface     7.3350E-02  5.4775E-02 -1.3241E-01  1.1206E-02  2.7727E-02  3.2665E-03
     100-
 mid.  surface     6.6065E-02  5.2367E-02 -1.2911E-01  8.0338E-03  9.2906E-03 -4.5552E-04
     110-
 mid.  surface     7.0807E-02  3.3348E-02 -1.4168E-01 -3.0214E-03 -3.5290E-02 -2.3517E-02



 n o d a l  s t r e s s  c a l c u l a t i o n s   f o r   t i m e  s t e p      127   ( at time 1.07907E+01 )

 node (global)
          stress       sig-xx      sig-yy      sig-zz      sig-xy      sig-yz      sig-zx       plastic
                                                                                                 strain 
       4-
 mid.  surface    -4.3997E+09 -4.2724E+09 -4.2331E+09  1.0036E+08  1.1450E+07 -3.4078E+07  3.3736E-02
       5-
 mid.  surface    -3.5468E+09 -3.5920E+09 -3.5161E+09 -5.2477E+06  2.3383E+07 -2.1161E+07 -1.1715E-02
       6-
 mid.  surface    -5.7108E+09 -5.6673E+09 -5.2649E+09  2.2816E+07  1.1788E+08  2.4967E+08 -3.3051E-01
       7-
 mid.  surface    -1.2660E+09 -1.1695E+09 -8.7733E+08  5.4440E+07 -7.4029E+06  1.0304E+08  9.9049E-02
       8-
 mid.  surface    -2.5335E+09 -2.5615E+09 -2.0330E+09  8.9574E+06  1.9181E+08  1.1959E+08  5.8650E-02
       9-
 mid.  surface    -1.0650E+09 -1.0842E+09 -1.3939E+09 -3.9743E+07 -3.7950E+07  9.6095E+06  1.5943E-01
      10-
 mid.  surface     1.5462E+09  1.5508E+09  1.2658E+09 -3.3234E+07 -1.2775E+08 -6.4161E+05  1.1438E-01
      15-
 mid.  surface    -1.7113E+09 -1.6681E+09 -1.3828E+09 -2.5953E+07 -5.7586E+07 -5.5886E+07  1.5103E-01
      16-
 mid.  surface    -7.7317E+09 -7.7687E+09 -7.2443E+09 -4.5538E+07  9.3647E+07  8.6364E+07 -1.3617E-01
      18-
 mid.  surface     3.9910E+08  4.4182E+08  5.9226E+08 -2.6659E+06  3.3539E+07  1.6946E+07  1.2164E-01
      40-
 mid.  surface     1.2774E+09  1.2315E+09  4.6267E+08  1.1151E+06 -1.3720E+08 -4.3447E+07  1.1940E-01
      41-
 mid.  surface    -8.5042E+07 -4.8539E+07 -3.4304E+08  2.2872E+06 -3.7568E+07  1.6556E+07  1.0851E-01
      50-
 mid.  surface     1.2923E+09  1.2140E+09  9.6290E+08 -2.3261E+07  9.7543E+07 -3.0945E+07  1.9749E-01
      51-
 mid.  surface     3.5168E+09  3.5157E+09  3.2965E+09  1.2141E+08  1.1483E+08 -1.7394E+08  5.5888E-01
      52-
 mid.  surface     4.4907E+09  4.3610E+09  4.1712E+09  6.2336E+07  1.6388E+08 -1.9277E+08  4.2274E-01
      53-
 mid.  surface     2.1812E+09  2.1658E+09  1.8162E+09  2.0726E+07  1.1241E+08  1.3637E+08  1.1232E-01
      72-
 mid.  surface     4.1998E+09  4.1386E+09  2.3320E+09 -7.6500E+07 -4.4954E+08 -3.1074E+08  4.2130E-01
      95-
 mid.  surface     3.7096E+09  3.7266E+09  2.1913E+09  1.4341E+07 -2.8028E+08 -1.0904E+08  3.1148E-01
     100-
 mid.  surface    -1.3904E+09 -1.4940E+09 -1.9115E+09  2.2953E+06  2.7836E+07  1.7436E+07  8.1012E-02
     110-
 mid.  surface    -2.6126E+09 -2.6120E+09 -2.9006E+09  3.1086E+06  6.1798E+07  6.2113E+04  1.6452E-01



 n o d a l  s t r a i n  c a l c u l a t i o n s   f o r   t i m e  s t e p      127   ( at time 1.07907E+01 )

 node (global)
          strain       eps-xx      eps-yy      eps-zz      eps-xy      eps-yz      eps-zx       
       4-
 mid.  surface     1.3491E-01  7.3594E-02 -2.1397E-01  2.7968E-02 -1.4269E-02 -7.4381E-03
       5-
 mid.  surface     1.2020E-01  7.3871E-02 -1.5130E-01  6.3427E-03 -1.5733E-02 -5.5394E-02
       6-
 mid.  surface     3.7262E-02  6.9996E-02 -5.6938E-02 -4.7412E-03 -5.8752E-02 -4.0690E-02
       7-
 mid.  surface     7.7907E-02  4.5649E-02 -1.1757E-01  1.0354E-02 -5.6171E-02 -2.4338E-02
       8-
 mid.  surface     7.3410E-02  4.2647E-02 -1.2498E-01  4.3177E-03 -2.8983E-02  7.8676E-03
       9-
 mid.  surface     6.3392E-02  8.0995E-02 -1.6260E-01 -9.0267E-03 -1.0108E-02 -4.5127E-03
      10-
 mid.  surface     3.7222E-02  9.2232E-02 -1.0953E-01 -1.1670E-02 -1.1827E-03 -1.1045E-03
      15-
 mid.  surface     7.2298E-02  6.1015E-02 -1.4038E-01 -4.1391E-04 -5.1915E-02 -4.3351E-02
      16-
 mid.  surface     4.0518E-02  6.9501E-02 -1.3068E-01  2.2707E-03 -4.2488E-02 -4.5140E-02
      18-
 mid.  surface     5.0741E-02  6.3547E-02 -1.0167E-01 -1.1215E-03 -3.6787E-02 -6.2679E-03
      40-
 mid.  surface     4.9686E-02  7.0221E-02 -1.1349E-01  1.0114E-02 -6.5174E-04  7.1381E-03
      41-
 mid.  surface     4.9985E-02  5.2159E-02 -1.0502E-01 -2.6117E-04 -2.8630E-02  1.3286E-04
      50-
 mid.  surface     7.6770E-02  6.1347E-02 -1.6175E-01  1.0195E-02  2.6282E-02  3.9708E-02
      51-
 mid.  surface     5.4363E-02  5.9128E-02 -2.2211E-01  2.2659E-04  4.2497E-02 -3.4351E-02
      52-
 mid.  surface     4.8397E-02  6.6326E-02 -1.6042E-01  7.4455E-03  6.7112E-02 -6.3656E-02
      53-
 mid.  surface     7.0894E-02  5.8943E-02 -1.1140E-01  1.4380E-02  2.3125E-02  2.1044E-02
      72-
 mid.  surface     6.8214E-02  7.6699E-02 -1.6698E-01  1.7570E-02  1.8277E-02  1.0601E-02
      95-
 mid.  surface     8.7429E-02  6.0266E-02 -1.4830E-01  1.4461E-02  2.6317E-02  4.9634E-03
     100-
 mid.  surface     7.3879E-02  5.7552E-02 -1.4480E-01  6.2984E-03  8.7161E-03 -3.3697E-03
     110-
 mid.  surface     7.8132E-02  4.1702E-02 -1.5976E-01 -2.2601E-03 -3.7160E-02 -2.4576E-02



 n o d a l  s t r e s s  c a l c u l a t i o n s   f o r   t i m e  s t e p      137   ( at time 1.17884E+01 )

 node (global)
          stress       sig-xx      sig-yy      sig-zz      sig-xy      sig-yz      sig-zx       plastic
                                                                                                 strain 
       4-
 mid.  surface    -4.7112E+09 -4.6225E+09 -4.5746E+09  8.0901E+07 -6.3711E+06 -3.8891E+07  5.7877E-02
       5-
 mid.  surface    -4.0089E+09 -4.0969E+09 -3.9962E+09 -1.1382E+07 -9.8168E+05 -2.7593E+07  5.2822E-03
       6-
 mid.  surface    -6.2618E+09 -6.1692E+09 -5.7694E+09  3.3527E+07  1.0415E+08  2.4064E+08 -3.6079E-01
       7-
 mid.  surface    -1.5808E+09 -1.4685E+09 -1.1798E+09  6.3396E+07  1.1279E+06  9.9067E+07  8.9308E-02
       8-
 mid.  surface    -2.8915E+09 -2.8975E+09 -2.3924E+09  3.5290E+07  1.9430E+08  1.2767E+08  2.9515E-02
       9-
 mid.  surface    -1.1820E+09 -1.1795E+09 -1.4865E+09 -3.3418E+07 -4.1245E+07  5.0105E+05  1.7692E-01
      10-
 mid.  surface     1.6631E+09  1.6934E+09  1.4016E+09 -2.1022E+07 -1.1682E+08 -6.5351E+06  1.2872E-01
      15-
 mid.  surface    -2.0641E+09 -2.0803E+09 -1.7584E+09 -3.5934E+07 -6.4772E+07 -6.6954E+07  1.5044E-01
      16-
 mid.  surface    -8.4488E+09 -8.5066E+09 -7.9749E+09 -5.1084E+07  9.9585E+07  9.2552E+07 -1.5846E-01
      18-
 mid.  surface     3.8610E+08  4.1584E+08  5.7084E+08  6.8463E+06  3.1973E+06  1.6733E+07  1.1237E-01
      40-
 mid.  surface     1.4954E+09  1.4389E+09  6.5821E+08 -1.4960E+07 -1.5618E+08 -3.5514E+07  1.5429E-01
      41-
 mid.  surface    -6.3147E+07 -4.2913E+07 -3.1104E+08  6.6547E+05 -2.0398E+07  1.4975E+07  1.2471E-01
      50-
 mid.  surface     1.5790E+09  1.5185E+09  1.2531E+09 -1.3978E+07  1.3307E+08 -6.2203E+06  2.0027E-01
      51-
 mid.  surface     3.8981E+09  3.8613E+09  3.6545E+09  1.0815E+08  1.1827E+08 -1.7285E+08  5.8667E-01
      52-
 mid.  surface     4.8580E+09  4.6915E+09  4.5241E+09  5.6200E+07  1.6334E+08 -1.7736E+08  4.4662E-01
      53-
 mid.  surface     2.5474E+09  2.5959E+09  2.2224E+09  3.9628E+07  1.2564E+08  1.3288E+08  1.0878E-01
      72-
 mid.  surface     4.7020E+09  4.6050E+09  2.7958E+09 -1.0099E+08 -4.4894E+08 -3.1865E+08  5.1223E-01
      95-
 mid.  surface     4.1108E+09  4.1706E+09  2.6028E+09  1.5694E+07 -2.6176E+08 -9.7264E+07  3.7919E-01
     100-
 mid.  surface    -1.5185E+09 -1.6069E+09 -2.0481E+09  2.8103E+06  4.2646E+07  3.5880E+07  1.0152E-01
     110-
 mid.  surface    -2.9086E+09 -2.9189E+09 -3.1797E+09 -2.5750E+06  5.8853E+07 -4.7487E+05  1.8566E-01



 n o d a l  s t r a i n  c a l c u l a t i o n s   f o r   t i m e  s t e p      137   ( at time 1.17884E+01 )

 node (global)
          strain       eps-xx      eps-yy      eps-zz      eps-xy      eps-yz      eps-zx       
       4-
 mid.  surface     1.6226E-01  7.7334E-02 -2.4124E-01  3.2698E-02 -1.8551E-02 -7.7181E-03
       5-
 mid.  surface     1.4094E-01  8.2080E-02 -1.7023E-01  1.3347E-02 -2.1494E-02 -6.8537E-02
       6-
 mid.  surface     3.9287E-02  7.8593E-02 -6.0826E-02 -3.3905E-03 -6.1486E-02 -4.4128E-02
       7-
 mid.  surface     8.3409E-02  5.2985E-02 -1.3187E-01  1.1408E-02 -5.8402E-02 -2.3875E-02
       8-
 mid.  surface     8.1547E-02  4.5216E-02 -1.3692E-01  3.7040E-03 -3.0118E-02  8.2023E-03
       9-
 mid.  surface     7.0582E-02  8.9103E-02 -1.7953E-01 -1.0575E-02 -1.2417E-02 -4.7711E-03
      10-
 mid.  surface     4.2669E-02  1.0212E-01 -1.2310E-01 -1.2567E-02 -2.6034E-03 -1.1193E-03
      15-
 mid.  surface     7.9912E-02  6.7212E-02 -1.5788E-01 -3.0197E-03 -5.5295E-02 -4.6989E-02
      16-
 mid.  surface     4.8785E-02  7.3015E-02 -1.4453E-01 -3.3662E-04 -4.1779E-02 -4.6842E-02
      18-
 mid.  surface     5.7509E-02  6.8571E-02 -1.1282E-01 -1.5531E-03 -3.9340E-02 -5.8238E-03
      40-
 mid.  surface     5.5070E-02  7.8553E-02 -1.2536E-01  1.0617E-02 -1.3219E-03  7.3894E-03
      41-
 mid.  surface     5.6081E-02  6.0606E-02 -1.1943E-01  5.9449E-06 -3.2294E-02  1.3165E-03
      50-
 mid.  surface     8.1837E-02  6.9363E-02 -1.7865E-01  9.7645E-03  3.0149E-02  4.4727E-02
      51-
 mid.  surface     5.9511E-02  6.9848E-02 -2.5080E-01 -1.0559E-03  4.5414E-02 -3.2267E-02
      52-
 mid.  surface     4.8855E-02  7.8369E-02 -1.8074E-01  5.9975E-03  7.3190E-02 -6.9254E-02
      53-
 mid.  surface     7.3194E-02  6.8218E-02 -1.2065E-01  1.6209E-02  2.4014E-02  1.8835E-02
      72-
 mid.  surface     7.8354E-02  8.5432E-02 -1.8654E-01  1.9995E-02  1.6303E-02  1.0192E-02
      95-
 mid.  surface     1.0001E-01  6.7910E-02 -1.6505E-01  1.7969E-02  2.5519E-02  6.6373E-03
     100-
 mid.  surface     8.1624E-02  6.4346E-02 -1.5971E-01  6.4206E-03  7.9312E-03 -5.0732E-03
     110-
 mid.  surface     8.5970E-02  4.8480E-02 -1.7879E-01 -2.2321E-03 -4.0988E-02 -2.5505E-02



 n o d a l  s t r e s s  c a l c u l a t i o n s   f o r   t i m e  s t e p      147   ( at time 1.27860E+01 )

 node (global)
          stress       sig-xx      sig-yy      sig-zz      sig-xy      sig-yz      sig-zx       plastic
                                                                                                 strain 
       4-
 mid.  surface    -4.9911E+09 -4.8756E+09 -4.8081E+09  5.1276E+07  4.8680E+06 -6.8292E+07  7.5654E-02
       5-
 mid.  surface    -4.8440E+09 -4.8899E+09 -4.7854E+09 -3.4785E+07 -2.6943E+06 -1.2069E+08  1.9793E-02
       6-
 mid.  surface    -6.6811E+09 -6.6968E+09 -6.2587E+09  5.5917E+07  1.4313E+08  2.7155E+08 -3.8909E-01
       7-
 mid.  surface    -3.2393E+08 -2.2578E+08 -7.0592E+08  5.0642E+07 -8.5713E+07  6.6006E+07  1.1612E-01
       8-
 mid.  surface    -2.9815E+09 -2.9558E+09 -2.5572E+09  1.7843E+07  2.5841E+08  7.4017E+07 -1.8773E-03
       9-
 mid.  surface    -3.3417E+09 -3.1715E+09 -2.2177E+09 -1.4272E+07  2.9801E+08  5.6074E+07  1.2679E-01
      10-
 mid.  surface    -3.1227E+08 -1.2440E+08  8.4691E+08  3.5311E+06  2.7601E+08  5.3910E+07  7.4414E-02
      15-
 mid.  surface    -3.6415E+09 -3.6534E+09 -2.5999E+09 -4.8475E+07  1.9536E+07 -1.2709E+07  1.1256E-01
      16-
 mid.  surface    -9.1021E+09 -9.1279E+09 -8.5891E+09 -7.1137E+06  1.0762E+08  9.3135E+07 -1.8196E-01
      18-
 mid.  surface    -2.0453E+09 -2.0227E+09 -4.7487E+08 -1.8511E+07  3.0029E+08  1.1017E+08  3.1287E-02
      40-
 mid.  surface     1.6638E+09  1.4664E+09  7.2925E+08  1.6875E+07 -2.5669E+08 -3.2739E+07  1.9883E-01
      41-
 mid.  surface     2.3385E+09  2.1803E+09  5.3389E+08 -1.6347E+07 -3.9145E+08 -6.0697E+07  2.1935E-01
      50-
 mid.  surface     1.7554E+09  1.7284E+09  1.4285E+09 -7.2156E+06  1.2057E+08 -1.3995E+06  2.0373E-01
      51-
 mid.  surface     4.2514E+09  4.2512E+09  4.0433E+09  8.4193E+07  8.9680E+07 -1.8735E+08  6.0995E-01
      52-
 mid.  surface     4.9301E+09  4.8120E+09  4.6232E+09  3.5071E+07  1.3298E+08 -2.3260E+08  4.6817E-01
      53-
 mid.  surface     2.9170E+09  2.9070E+09  2.5172E+09  3.8130E+07  1.3671E+08  1.8545E+08  1.0953E-01
      72-
 mid.  surface     4.0718E+09  4.1087E+09  2.9251E+09 -8.4856E+07 -3.9917E+08 -2.7944E+08  5.7701E-01
      95-
 mid.  surface     6.0362E+09  6.1970E+09  3.7660E+09  1.6856E+07 -3.6644E+08 -1.3745E+08  4.9397E-01
     100-
 mid.  surface     8.8196E+08  7.4502E+08 -1.1872E+09  2.4005E+07 -2.8773E+08 -9.4426E+07  2.0127E-01
     110-
 mid.  surface    -8.0287E+08 -9.7198E+08 -2.6365E+09 -3.2008E+07 -3.6504E+08 -7.8147E+07  2.8526E-01



 n o d a l  s t r a i n  c a l c u l a t i o n s   f o r   t i m e  s t e p      147   ( at time 1.27860E+01 )

 node (global)
          strain       eps-xx      eps-yy      eps-zz      eps-xy      eps-yz      eps-zx       
       4-
 mid.  surface     1.8372E-01  8.2150E-02 -2.6744E-01  3.5094E-02 -2.1458E-02 -8.9925E-03
       5-
 mid.  surface     1.5641E-01  9.2162E-02 -1.8610E-01  2.0448E-02 -2.6035E-02 -8.2454E-02
       6-
 mid.  surface     4.2928E-02  8.8192E-02 -6.8976E-02 -2.9273E-03 -6.2515E-02 -4.5379E-02
       7-
 mid.  surface     8.9237E-02  6.1856E-02 -1.4857E-01  1.2554E-02 -5.9992E-02 -2.1002E-02
       8-
 mid.  surface     9.1420E-02  5.0612E-02 -1.5012E-01  5.1846E-03 -3.2978E-02  7.6302E-03
       9-
 mid.  surface     7.9483E-02  1.0160E-01 -1.9872E-01 -1.1466E-02 -1.6319E-02 -5.7579E-03
      10-
 mid.  surface     4.9440E-02  1.1532E-01 -1.3826E-01 -1.2665E-02 -2.6911E-03 -1.0981E-03
      15-
 mid.  surface     8.2278E-02  7.8959E-02 -1.7473E-01 -5.9237E-03 -5.9202E-02 -4.8195E-02
      16-
 mid.  surface     5.5180E-02  7.7262E-02 -1.6177E-01 -4.3894E-03 -3.9924E-02 -4.9213E-02
      18-
 mid.  surface     6.5106E-02  7.8230E-02 -1.2661E-01 -5.7820E-04 -4.0885E-02 -5.2426E-03
      40-
 mid.  surface     6.3570E-02  8.4400E-02 -1.3896E-01  1.0257E-02 -1.3108E-03  6.5024E-03
      41-
 mid.  surface     6.3166E-02  6.6725E-02 -1.3471E-01 -5.6343E-04 -3.6686E-02  1.8246E-03
      50-
 mid.  surface     8.9719E-02  7.6471E-02 -1.9739E-01  1.0783E-02  3.3055E-02  4.5231E-02
      51-
 mid.  surface     6.3819E-02  8.1654E-02 -2.7761E-01 -3.6463E-03  4.7076E-02 -2.9613E-02
      52-
 mid.  surface     4.8720E-02  9.1180E-02 -1.9629E-01  4.7639E-03  7.8756E-02 -7.4532E-02
      53-
 mid.  surface     8.0533E-02  7.8360E-02 -1.3325E-01  2.0589E-02  2.4603E-02  1.8340E-02
      72-
 mid.  surface     8.8977E-02  9.4393E-02 -2.0444E-01  2.2635E-02  1.2213E-02  8.4207E-03
      95-
 mid.  surface     1.1375E-01  7.6387E-02 -1.8374E-01  2.1452E-02  2.4654E-02  8.7221E-03
     100-
 mid.  surface     9.0613E-02  6.8478E-02 -1.7534E-01  4.3870E-03  5.9183E-03 -8.2944E-03
     110-
 mid.  surface     9.4724E-02  5.4225E-02 -1.9962E-01 -3.5923E-03 -4.7318E-02 -2.7648E-02



 n o d a l  s t r e s s  c a l c u l a t i o n s   f o r   t i m e  s t e p      157   ( at time 1.37836E+01 )

 node (global)
          stress       sig-xx      sig-yy      sig-zz      sig-xy      sig-yz      sig-zx       plastic
                                                                                                 strain 
       4-
 mid.  surface    -2.9592E+09 -2.9007E+09 -4.3995E+09  2.8745E+08  4.7200E+07 -7.5767E+07  1.8318E-01
       5-
 mid.  surface    -3.3700E+09 -3.5308E+09 -4.9722E+09  1.6941E+08  3.2374E+07 -1.6401E+08  1.2308E-01
       6-
 mid.  surface    -4.9837E+09 -5.0879E+09 -6.2113E+09  1.3132E+08  1.9344E+08  3.0353E+08 -3.4708E-01
       7-
 mid.  surface     8.7640E+08  7.9728E+08 -3.9706E+08  1.2002E+07 -4.6183E+07  8.8475E+07  1.8028E-01
       8-
 mid.  surface    -3.0781E+09 -3.0022E+09 -2.6477E+09  4.7584E+07  2.6504E+08  7.5160E+07 -3.1068E-02
       9-
 mid.  surface    -3.6477E+09 -3.4261E+09 -2.5217E+09  2.1390E+07  3.0479E+08  4.6256E+07  7.9727E-02
      10-
 mid.  surface    -5.0145E+08 -2.7022E+08  6.7283E+08  2.6600E+07  2.6142E+08  4.8805E+07  2.5988E-02
      15-
 mid.  surface    -3.1624E+09 -3.3411E+09 -2.9821E+09 -6.8957E+07  6.4661E+07  3.3090E+07  1.1829E-01
      16-
 mid.  surface    -7.5533E+09 -7.6969E+09 -8.7020E+09  7.3233E+07  1.7824E+08  1.7286E+08 -1.3218E-01
      18-
 mid.  surface    -2.4033E+09 -2.3095E+09 -7.9558E+08  2.2272E+07  2.8337E+08  1.1005E+08 -4.4164E-02
      40-
 mid.  surface     1.7134E+09  1.4830E+09  7.8368E+08 -2.4021E+07 -2.7479E+08 -1.9235E+07  2.3882E-01
      41-
 mid.  surface     2.6207E+09  2.3809E+09  7.9916E+08 -6.0135E+07 -4.2839E+08 -4.3795E+07  3.0802E-01
      50-
 mid.  surface     2.0780E+07  1.8500E+08  1.2555E+09 -5.8480E+07  8.0128E+07  6.3403E+06  1.3342E-01
      51-
 mid.  surface     2.9602E+09  2.9153E+09  4.1961E+09 -9.7989E+07  5.9670E+07 -1.7198E+08  5.6574E-01
      52-
 mid.  surface     3.4184E+09  3.2129E+09  4.5238E+09 -1.6679E+08  9.5371E+07 -2.2841E+08  4.2131E-01
      53-
 mid.  surface     1.3407E+09  1.5443E+09  2.5130E+09 -1.6335E+07  7.4125E+07  1.4012E+08  3.3443E-02
      72-
 mid.  surface     3.0865E+09  3.2245E+09  2.7427E+09 -7.9337E+07 -4.3441E+08 -3.3287E+08  6.1247E-01
      95-
 mid.  surface     5.7013E+09  5.9658E+09  4.2123E+09  1.5418E+07 -4.0033E+08 -1.9950E+08  5.7241E-01
     100-
 mid.  surface     1.1985E+09  9.9185E+08 -9.0505E+08 -2.9619E+07 -2.8244E+08 -7.7937E+07  2.9343E-01
     110-
 mid.  surface    -7.8043E+08 -1.0167E+09 -2.6272E+09 -7.2733E+07 -3.7110E+08 -6.8243E+07  3.7747E-01



 n o d a l  s t r a i n  c a l c u l a t i o n s   f o r   t i m e  s t e p      157   ( at time 1.37836E+01 )

 node (global)
          strain       eps-xx      eps-yy      eps-zz      eps-xy      eps-yz      eps-zx       
       4-
 mid.  surface     2.1029E-01  8.7603E-02 -3.0008E-01  3.9612E-02 -2.7407E-02 -9.8228E-03
       5-
 mid.  surface     1.7455E-01  1.0156E-01 -2.0735E-01  2.6827E-02 -3.2224E-02 -9.5237E-02
       6-
 mid.  surface     4.0466E-02  9.7959E-02 -7.0479E-02 -3.2783E-03 -6.4908E-02 -4.7274E-02
       7-
 mid.  surface     9.6432E-02  6.9699E-02 -1.6612E-01  1.4652E-02 -6.0260E-02 -1.9833E-02
       8-
 mid.  surface     1.0037E-01  5.3309E-02 -1.6109E-01  4.9501E-03 -3.4962E-02  7.7968E-03
       9-
 mid.  surface     8.7298E-02  1.1062E-01 -2.1539E-01 -1.3241E-02 -2.0241E-02 -6.4597E-03
      10-
 mid.  surface     5.6163E-02  1.2629E-01 -1.5403E-01 -1.4576E-02 -4.0950E-03 -9.9031E-04
      15-
 mid.  surface     8.9691E-02  8.8147E-02 -1.9672E-01 -7.7979E-03 -6.1419E-02 -5.1042E-02
      16-
 mid.  surface     5.8803E-02  8.2075E-02 -1.7470E-01 -7.3339E-03 -3.9357E-02 -5.0883E-02
      18-
 mid.  surface     7.2839E-02  8.5556E-02 -1.3908E-01 -1.6084E-03 -4.2567E-02 -3.5776E-03
      40-
 mid.  surface     7.0646E-02  9.0929E-02 -1.5196E-01  9.4474E-03 -1.2270E-03  6.1672E-03
      41-
 mid.  surface     7.1124E-02  7.4057E-02 -1.5146E-01 -1.1897E-04 -4.0943E-02  3.0634E-03
      50-
 mid.  surface     9.7227E-02  8.3662E-02 -2.1300E-01  1.0235E-02  3.7187E-02  5.0888E-02
      51-
 mid.  surface     7.4229E-02  9.2781E-02 -3.1090E-01 -4.6622E-03  5.1243E-02 -2.9728E-02
      52-
 mid.  surface     5.2523E-02  1.0410E-01 -2.1812E-01  4.1523E-03  8.8187E-02 -7.7901E-02
      53-
 mid.  surface     8.4574E-02  8.8995E-02 -1.4058E-01  2.3362E-02  2.4101E-02  1.4878E-02
      72-
 mid.  surface     1.0024E-01  1.0535E-01 -2.2753E-01  2.5366E-02  9.1827E-03  7.4511E-03
      95-
 mid.  surface     1.2781E-01  8.5837E-02 -2.0356E-01  2.4967E-02  2.3832E-02  1.1371E-02
     100-
 mid.  surface     9.8996E-02  7.2797E-02 -1.8969E-01  2.7571E-03  2.9508E-03 -1.1774E-02
     110-
 mid.  surface     1.0319E-01  5.9987E-02 -2.1900E-01 -4.0434E-03 -5.3897E-02 -2.9537E-02



 n o d a l  s t r e s s  c a l c u l a t i o n s   f o r   t i m e  s t e p      170   ( at time 1.47813E+01 )

 node (global)
          stress       sig-xx      sig-yy      sig-zz      sig-xy      sig-yz      sig-zx       plastic
                                                                                                 strain 
       4-
 mid.  surface    -1.8596E+09 -1.6980E+09 -3.2012E+09  3.8217E+08  7.1517E+07 -1.5897E+08  3.0746E-01
       5-
 mid.  surface    -2.6784E+09 -2.9417E+09 -4.3233E+09  1.4856E+08  9.4073E+07 -4.3506E+08  2.3484E-01
       6-
 mid.  surface    -4.4131E+09 -4.6259E+09 -5.7201E+09  1.8552E+08  2.6451E+08  2.0706E+08 -2.9944E-01
       7-
 mid.  surface     1.4031E+09  1.2180E+09  6.7659E+07 -1.1909E+07 -5.7615E+07 -7.0734E+06  2.4120E-01
       8-
 mid.  surface    -3.0541E+09 -2.9236E+09 -2.6468E+09  7.4112E+07  3.3918E+08  4.1865E+07 -6.0467E-02
       9-
 mid.  surface    -3.9652E+09 -3.7407E+09 -2.8640E+09  3.2499E+07  3.1390E+08  3.0282E+07  2.8611E-02
      10-
 mid.  surface    -3.8629E+08 -1.6799E+08  7.6260E+08  3.0214E+07  2.2332E+08  2.2972E+07 -2.8343E-02
      15-
 mid.  surface    -2.7751E+09 -3.0465E+09 -2.5629E+09 -8.6168E+07  6.5472E+07 -6.3396E+07  1.2330E-01
      16-
 mid.  surface    -6.8753E+09 -7.0289E+09 -8.0053E+09  1.1776E+08  2.5680E+08  1.6414E+08 -6.6597E-02
      18-
 mid.  surface    -2.1442E+09 -2.0209E+09 -5.0091E+08  9.1152E+07  2.9010E+08  5.4888E+07 -1.2286E-01
      40-
 mid.  surface     1.8755E+09  1.6690E+09  1.0428E+09 -4.8724E+07 -2.9676E+08 -9.8634E+06  2.8531E-01
      41-
 mid.  surface     3.0303E+09  2.7605E+09  1.2094E+09 -6.3521E+07 -4.6355E+08 -2.8844E+07  3.9969E-01
      50-
 mid.  surface    -4.6575E+08 -2.4534E+08  7.7861E+08 -3.2447E+07  6.6095E+07  1.6168E+08  6.4460E-02
      51-
 mid.  surface     2.2889E+09  2.3469E+09  3.5540E+09 -1.1509E+08  1.0471E+08 -1.6755E+08  5.1297E-01
      52-
 mid.  surface     2.9505E+09  2.6983E+09  3.9603E+09 -2.4653E+08  1.6168E+08 -3.5420E+08  3.5882E-01
      53-
 mid.  surface     7.5455E+08  9.8892E+08  1.8610E+09  2.8483E+07  4.0060E+07  2.3982E+08 -5.0383E-02
      72-
 mid.  surface     2.6215E+09  2.7878E+09  2.3810E+09 -1.6466E+08 -5.5978E+08 -1.8225E+08  6.5124E-01
      95-
 mid.  surface     5.3583E+09  5.7046E+09  3.8899E+09 -4.2930E+07 -5.0230E+08 -5.8466E+07  6.4850E-01
     100-
 mid.  surface     1.1144E+09  9.2189E+08 -9.6318E+08 -8.3053E+07 -2.4136E+08 -5.0272E+07  3.9586E-01
     110-
 mid.  surface    -9.0187E+08 -1.1625E+09 -2.7435E+09 -5.9712E+07 -3.5439E+08 -5.0257E+07  4.7564E-01



 n o d a l  s t r a i n  c a l c u l a t i o n s   f o r   t i m e  s t e p      170   ( at time 1.47813E+01 )

 node (global)
          strain       eps-xx      eps-yy      eps-zz      eps-xy      eps-yz      eps-zx       
       4-
 mid.  surface     2.3200E-01  9.3140E-02 -3.3192E-01  4.1891E-02 -3.1394E-02 -8.0970E-03
       5-
 mid.  surface     1.8425E-01  1.1671E-01 -2.2892E-01  3.3929E-02 -3.7315E-02 -1.0514E-01
       6-
 mid.  surface     3.4274E-02  1.1118E-01 -7.7285E-02  5.3830E-04 -7.1729E-02 -4.4007E-02
       7-
 mid.  surface     1.0122E-01  7.5305E-02 -1.7796E-01  1.6951E-02 -6.1255E-02 -1.8243E-02
       8-
 mid.  surface     1.0862E-01  5.9266E-02 -1.7519E-01  5.2324E-03 -3.7332E-02  7.9306E-03
       9-
 mid.  surface     9.5391E-02  1.1862E-01 -2.3290E-01 -1.6044E-02 -2.3770E-02 -6.2237E-03
      10-
 mid.  surface     6.3846E-02  1.3683E-01 -1.6748E-01 -1.7594E-02 -6.2887E-03 -1.2868E-04
      15-
 mid.  surface     9.6109E-02  9.6412E-02 -2.1468E-01 -1.1361E-02 -6.4542E-02 -5.3952E-02
      16-
 mid.  surface     6.0545E-02  8.9942E-02 -1.9279E-01 -8.4388E-03 -4.1730E-02 -5.0202E-02
      18-
 mid.  surface     8.1289E-02  9.6240E-02 -1.5259E-01 -1.2037E-03 -4.4113E-02 -2.8188E-03
      40-
 mid.  surface     7.8311E-02  9.8876E-02 -1.6619E-01  7.9937E-03 -2.2774E-03  4.4496E-03
      41-
 mid.  surface     7.9362E-02  8.2534E-02 -1.6627E-01  1.9391E-03 -4.7006E-02  3.1320E-03
      50-
 mid.  surface     1.1392E-01  8.9773E-02 -2.3399E-01  8.3451E-03  3.9385E-02  5.0559E-02
      51-
 mid.  surface     9.0914E-02  1.0181E-01 -3.4548E-01 -1.0472E-02  6.1350E-02 -3.4514E-02
      52-
 mid.  surface     6.0377E-02  1.1988E-01 -2.4350E-01  3.5191E-03  1.0205E-01 -7.8193E-02
      53-
 mid.  surface     9.2600E-02  1.0154E-01 -1.5304E-01  3.0955E-02  2.2078E-02  1.1259E-02
      72-
 mid.  surface     1.1070E-01  1.1542E-01 -2.4724E-01  2.2985E-02  1.1409E-02  9.5019E-03
      95-
 mid.  surface     1.3974E-01  9.4479E-02 -2.1807E-01  2.5542E-02  2.2889E-02  1.4987E-02
     100-
 mid.  surface     1.0787E-01  7.7471E-02 -2.0762E-01  8.7518E-04 -1.8722E-03 -1.5787E-02
     110-
 mid.  surface     1.1213E-01  6.6348E-02 -2.4005E-01 -2.0143E-03 -6.1428E-02 -3.3373E-02



 n o d a l  s t r e s s  c a l c u l a t i o n s   f o r   t i m e  s t e p      180   ( at time 1.57789E+01 )

 node (global)
          stress       sig-xx      sig-yy      sig-zz      sig-xy      sig-yz      sig-zx       plastic
                                                                                                 strain 
       4-
 mid.  surface     6.8100E+08  6.4320E+08 -2.5692E+09  4.6206E+08 -1.4602E+08 -2.8721E+07  4.9150E-01
       5-
 mid.  surface    -3.4839E+08 -6.6132E+08 -3.7722E+09  3.0638E+08 -1.3699E+08 -2.8508E+08  4.1316E-01
       6-
 mid.  surface    -5.3547E+09 -5.5729E+09 -5.8141E+09  1.2821E+07  1.8746E+08  2.0949E+08 -2.8629E-01
       7-
 mid.  surface     1.3768E+09  1.3048E+09  8.5251E+07 -2.2793E+07 -5.9509E+07  4.1987E+07  2.9204E-01
       8-
 mid.  surface    -3.1843E+09 -3.1679E+09 -2.9494E+09  4.6211E+06  2.3662E+08  7.0457E+07 -7.6318E-02
       9-
 mid.  surface    -3.1829E+09 -3.0207E+09 -2.5905E+09 -5.2854E+07  6.4948E+07  3.8503E+07  1.8020E-02
      10-
 mid.  surface     1.0651E+08  2.7921E+08  9.1068E+08  9.1224E+05  1.2128E+08  3.7215E+07 -5.4200E-02
      15-
 mid.  surface    -3.3012E+09 -3.3995E+09 -3.1067E+09 -1.0469E+08  4.3841E+07 -3.8216E+07  1.1738E-01
      16-
 mid.  surface    -8.1141E+09 -8.2319E+09 -8.4836E+09 -2.2036E+07  1.8425E+08  1.4863E+08 -4.9998E-02
      18-
 mid.  surface    -3.2000E+09 -3.2016E+09 -1.3588E+09  4.3469E+07  3.3598E+08  8.5610E+07 -2.0236E-01
      40-
 mid.  surface     1.0749E+09  8.9615E+08  7.1127E+08  5.8535E+07 -7.9797E+07 -2.0864E+07  2.9418E-01
      41-
 mid.  surface     2.6829E+09  2.5784E+09  1.2648E+09 -6.4003E+06 -2.6648E+08 -2.9776E+07  4.6192E-01
      50-
 mid.  surface    -1.4333E+09 -1.2384E+09  6.2784E+08 -1.1238E+08  1.6029E+08  6.6465E+07 -3.1632E-02
      51-
 mid.  surface     3.8002E+09  3.8520E+09  3.4141E+09  1.0382E+08 -3.5023E+07 -8.7632E+07  5.4557E-01
      52-
 mid.  surface     4.4979E+09  4.3537E+09  3.9634E+09  1.6566E+07  2.6248E+07 -2.5345E+08  3.8738E-01
      53-
 mid.  surface    -7.1090E+07  7.9323E+07  1.9245E+09 -8.3075E+07  1.3644E+08  1.6600E+08 -1.4736E-01
      72-
 mid.  surface     3.1977E+09  3.3087E+09  2.7391E+09 -2.1367E+07 -3.8036E+08 -2.3554E+08  6.7415E-01
      95-
 mid.  surface     6.3937E+09  6.5648E+09  4.7591E+09  6.5179E+07 -3.6693E+08 -1.1061E+08  7.1360E-01
     100-
 mid.  surface     1.0167E+09  8.8432E+08 -9.1003E+08  1.1862E+07 -1.6446E+08 -5.8581E+07  4.7119E-01
     110-
 mid.  surface     8.2079E+07  2.8842E+07 -2.1667E+09 -9.4472E+07 -4.9767E+08 -5.8503E+07  5.8448E-01



 n o d a l  s t r a i n  c a l c u l a t i o n s   f o r   t i m e  s t e p      180   ( at time 1.57789E+01 )

 node (global)
          strain       eps-xx      eps-yy      eps-zz      eps-xy      eps-yz      eps-zx       
       4-
 mid.  surface     2.4581E-01  9.8433E-02 -3.5386E-01  4.0457E-02 -3.1047E-02 -5.3147E-03
       5-
 mid.  surface     1.9495E-01  1.2912E-01 -2.4510E-01  4.0942E-02 -3.8522E-02 -1.1209E-01
       6-
 mid.  surface     4.3668E-02  1.2187E-01 -9.1788E-02  7.1705E-03 -7.4977E-02 -4.2339E-02
       7-
 mid.  surface     1.0550E-01  8.1045E-02 -1.8732E-01  1.8396E-02 -6.1650E-02 -1.5383E-02
       8-
 mid.  surface     1.1735E-01  6.2877E-02 -1.8797E-01  5.9135E-03 -3.6588E-02  7.0889E-03
       9-
 mid.  surface     1.0293E-01  1.3305E-01 -2.5132E-01 -1.8777E-02 -2.7168E-02 -6.2959E-03
      10-
 mid.  surface     6.9224E-02  1.5176E-01 -1.8266E-01 -1.7937E-02 -5.8914E-03 -9.8116E-05
      15-
 mid.  surface     9.7054E-02  1.0468E-01 -2.2396E-01 -1.3896E-02 -6.5663E-02 -5.3111E-02
      16-
 mid.  surface     7.0203E-02  9.4743E-02 -2.1210E-01 -7.5936E-03 -4.1419E-02 -4.9204E-02
      18-
 mid.  surface     8.8942E-02  1.0310E-01 -1.6631E-01  4.8440E-04 -4.3266E-02 -2.3827E-03
      40-
 mid.  surface     8.5341E-02  1.0593E-01 -1.7960E-01  8.2816E-03 -3.1835E-03  4.5123E-03
      41-
 mid.  surface     8.5464E-02  8.8815E-02 -1.8123E-01  2.2946E-03 -5.1826E-02  4.8030E-03
      50-
 mid.  surface     1.2601E-01  9.6228E-02 -2.5459E-01  9.2790E-03  3.9874E-02  4.4032E-02
      51-
 mid.  surface     9.6863E-02  1.1151E-01 -3.6578E-01 -1.5338E-02  6.2651E-02 -3.6002E-02
      52-
 mid.  surface     6.6441E-02  1.3070E-01 -2.5902E-01  3.2820E-03  1.0729E-01 -7.6542E-02
      53-
 mid.  surface     1.0489E-01  1.1053E-01 -1.7162E-01  3.7628E-02  2.3874E-02  1.3012E-02
      72-
 mid.  surface     1.1623E-01  1.2269E-01 -2.5893E-01  2.1890E-02  1.1495E-02  9.9204E-03
      95-
 mid.  surface     1.4933E-01  1.0119E-01 -2.2967E-01  2.5536E-02  2.1886E-02  1.4175E-02
     100-
 mid.  surface     1.1501E-01  8.2994E-02 -2.2317E-01 -2.5759E-04 -4.3313E-03 -1.7564E-02
     110-
 mid.  surface     1.1939E-01  7.1945E-02 -2.5950E-01 -1.6241E-03 -6.8112E-02 -3.3973E-02



 n o d a l  s t r e s s  c a l c u l a t i o n s   f o r   t i m e  s t e p      190   ( at time 1.67765E+01 )

 node (global)
          stress       sig-xx      sig-yy      sig-zz      sig-xy      sig-yz      sig-zx       plastic
                                                                                                 strain 
       4-
 mid.  surface     1.7275E+09  1.5758E+09 -1.6809E+09  2.3341E+08 -4.7284E+07  2.2199E+08  6.9145E-01
       5-
 mid.  surface     7.1501E+08  3.8759E+08 -2.7806E+09  2.8761E+08 -1.8359E+08 -1.7626E+08  6.0171E-01
       6-
 mid.  surface    -6.0874E+09 -6.2794E+09 -5.7471E+09 -2.0261E+07  3.0167E+08  1.1158E+08 -2.9028E-01
       7-
 mid.  surface     1.7722E+08  1.7038E+08 -3.9718E+08 -8.2623E+07  7.8139E+07  6.7889E+06  3.1213E-01
       8-
 mid.  surface    -3.4434E+09 -3.5265E+09 -3.3777E+09  3.1963E+06  2.5666E+08  4.6832E+07 -9.1634E-02
       9-
 mid.  surface    -1.5367E+09 -1.3497E+09 -1.7103E+09 -1.1510E+08 -1.6135E+08  1.5945E+07  5.1694E-02
      10-
 mid.  surface     3.0841E+08  6.7174E+08  1.0531E+09 -2.7154E+07  5.3135E+07  9.5346E+07 -7.2788E-02
      15-
 mid.  surface    -1.4940E+09 -1.7066E+09 -2.1757E+09 -7.0732E+07 -2.9661E+05 -5.5815E+07  1.4130E-01
      16-
 mid.  surface    -6.1220E+09 -6.4951E+09 -7.3903E+09 -5.6482E+07  2.4593E+08  1.8687E+08  2.2699E-02
      18-
 mid.  surface    -3.2136E+09 -3.2866E+09 -1.7949E+09  6.6541E+07  2.1501E+08  3.4568E+07 -2.7343E-01
      40-
 mid.  surface     3.7390E+07 -4.2920E+07  2.0910E+08  1.0639E+08  2.5966E+06 -3.0216E+07  2.8223E-01
      41-
 mid.  surface     1.5516E+09  1.7186E+09  1.0548E+09  3.0711E+07 -1.0380E+08  8.3825E+07  5.0215E-01
      50-
 mid.  surface    -6.3336E+08 -5.4357E+08  6.1141E+08 -4.8630E+07  3.8021E+07  6.6877E+07 -9.5087E-02
      51-
 mid.  surface     2.7920E+09  2.9927E+09  2.3581E+09  6.8287E+07 -3.3886E+06  3.3576E+07  5.6268E-01
      52-
 mid.  surface     2.9939E+09  3.0973E+09  2.5012E+09  1.0288E+08 -4.9646E+07 -2.0223E+08  4.0098E-01
      53-
 mid.  surface    -2.0257E+09 -1.7745E+09  8.1857E+08 -3.4327E+07  1.2624E+08  3.7571E+07 -2.8484E-01
      72-
 mid.  surface     5.4415E+09  5.4683E+09  4.2003E+09 -2.7322E+06 -5.5106E+08 -2.0536E+08  7.3395E-01
      95-
 mid.  surface     5.9808E+09  6.2217E+09  5.1163E+09 -1.6285E+07 -3.4691E+08 -1.2493E+08  7.4970E-01
     100-
 mid.  surface     4.2337E+08  2.3693E+08 -1.1376E+09  4.5706E+07 -1.4294E+07 -7.1395E+07  5.3811E-01
     110-
 mid.  surface    -3.9555E+08 -3.8579E+08 -1.7143E+09 -6.6436E+07 -3.5087E+08 -1.6850E+07  6.7339E-01



 n o d a l  s t r a i n  c a l c u l a t i o n s   f o r   t i m e  s t e p      190   ( at time 1.67765E+01 )

 node (global)
          strain       eps-xx      eps-yy      eps-zz      eps-xy      eps-yz      eps-zx       
       4-
 mid.  surface     2.3760E-01  1.0552E-01 -3.7052E-01  4.3195E-02 -2.2004E-02 -6.9825E-03
       5-
[...]
      51-
 mid.  surface     2.5766E-01  5.0632E-01 -1.0599E+00 -2.6896E-01  6.0140E-01 -4.7594E-01
      52-
 mid.  surface     3.8893E-01  5.6795E-01 -1.0415E+00 -2.5761E-01  6.9260E-01  3.6852E-01
      53-
 mid.  surface     3.3435E-01  4.7692E-01 -6.3329E-01 -4.4044E-02 -3.9286E-01 -1.2602E-01
      72-
 mid.  surface     3.3543E-01  5.8500E-01 -1.1731E+00 -2.0669E-01  1.1861E-01  2.4183E-01
      95-
 mid.  surface     4.5326E-01  3.2795E-01 -1.0638E+00 -1.4996E-01  1.8701E-01 -1.3966E-01
     100-
 mid.  surface     6.2319E-01  8.4406E-01 -1.7668E+00  1.2938E-01 -8.7837E-01 -6.1070E-01
     110-
 mid.  surface     6.2272E-01  1.7700E+00 -2.2968E+00  4.6243E-01 -1.9453E+00 -6.2729E-01



 n o d a l  s t r e s s  c a l c u l a t i o n s   f o r   t i m e  s t e p      629   ( at time 8.52605E+01 )

 node (global)
          stress       sig-xx      sig-yy      sig-zz      sig-xy      sig-yz      sig-zx       plastic
                                                                                                 strain 
       4-
 mid.  surface     0.0000E+00  0.0000E+00  0.0000E+00  0.0000E+00  0.0000E+00  0.0000E+00  2.7548E+00
       5-
 mid.  surface     0.0000E+00  0.0000E+00  0.0000E+00  0.0000E+00  0.0000E+00  0.0000E+00  2.9542E+00
       6-
 mid.  surface     7.9141E+07  9.5348E+07  3.1460E+07  9.8724E+06 -1.1796E+07  1.0980E+07  1.1075E+00
       7-
 mid.  surface    -1.3218E+08 -1.7255E+08 -4.8453E+07 -1.0157E+07  1.0784E+07 -1.2620E+07  1.9029E+00
       8-
 mid.  surface     1.7239E+07  2.8528E+07  9.5974E+06 -3.2423E+06 -6.4479E+06 -1.5731E+07  2.6197E+00
       9-
 mid.  surface     3.0682E+07  3.1627E+07  1.7519E+07  2.3881E+05 -4.2020E+06  6.1415E+05  2.0074E+00
      10-
 mid.  surface     4.6415E+07  4.7845E+07  2.6503E+07  3.6127E+05 -6.3567E+06  9.2907E+05 -4.5391E+00
      15-
 mid.  surface    -3.8920E+07 -4.2023E+07 -9.8447E+06 -1.2192E+07  2.1238E+06 -2.5495E+07 -1.3042E+00
      16-
 mid.  surface     7.9141E+07  9.5348E+07  3.1460E+07  9.8724E+06 -1.1796E+07  1.0980E+07  9.9781E-01
      18-
 mid.  surface     8.1102E+07  1.0754E+08  3.6896E+07 -1.7425E+06 -9.2121E+06 -1.0702E+07 -3.8368E+00
      40-
 mid.  surface     3.1548E+07  5.0815E+07  8.8730E+06 -4.4104E+05 -4.6033E+05 -3.6447E+06 -1.8419E+00
      41-
 mid.  surface     3.0682E+07  3.1627E+07  1.7519E+07  2.3881E+05 -4.2020E+06  6.1415E+05 -2.3235E-01
      50-
 mid.  surface     7.9140E+07  9.5348E+07  3.1460E+07  9.8724E+06 -1.1796E+07  1.0980E+07 -7.9415E-01
      51-
 mid.  surface     0.0000E+00  0.0000E+00  0.0000E+00  0.0000E+00  0.0000E+00  0.0000E+00  1.4202E+00
      52-
 mid.  surface     0.0000E+00  0.0000E+00  0.0000E+00  0.0000E+00  0.0000E+00  0.0000E+00  1.3950E+00
      53-
 mid.  surface     7.9140E+07  9.5348E+07  3.1460E+07  9.8724E+06 -1.1796E+07  1.0980E+07 -5.2461E-01
      72-
 mid.  surface    -1.1041E+08 -1.3863E+08 -4.9556E+07 -5.8936E+06  1.9897E+07  5.7753E+06 -1.8263E+00
      95-
 mid.  surface    -1.9628E+08 -2.5916E+08 -8.4059E+07 -4.5103E+06  2.6720E+07  1.5418E+07  1.1532E+00
     100-
 mid.  surface    -8.2900E+07 -9.7610E+07 -4.6475E+07  2.8326E+06  1.5250E+07  1.4966E+07  5.8241E+00
     110-
 mid.  surface    -3.3235E+07 -3.4259E+07 -1.8977E+07 -2.5868E+05  4.5516E+06 -6.6525E+05  7.8009E+00



 n o d a l  s t r a i n  c a l c u l a t i o n s   f o r   t i m e  s t e p      629   ( at time 8.52605E+01 )

 node (global)
          strain       eps-xx      eps-yy      eps-zz      eps-xy      eps-yz      eps-zx       
       4-
 mid.  surface     1.8367E-01  1.3545E-01 -2.9077E-01  4.5124E-02  2.5748E-01 -3.6264E-01
       5-
 mid.  surface     3.2854E-01  3.3780E-01 -4.8858E-01  2.8633E-01  2.2071E-01 -7.4588E-03
       6-
 mid.  surface     2.8245E-01  5.1040E-01 -5.7284E-01  8.6148E-02 -2.8433E-01  1.6067E-02
       7-
 mid.  surface     3.1279E-01  3.3573E-01 -8.2767E-01  7.4355E-03  2.4845E-01  6.4321E-02
       8-
 mid.  surface     4.8431E-01 -3.3444E-01 -8.3622E-02 -2.2418E-01 -8.6445E-02  1.3826E-01
       9-
 mid.  surface     5.8353E-01 -2.6731E-01 -7.3345E-02 -3.8545E-01 -7.5643E-01 -4.1454E-01
      10-
 mid.  surface     6.4957E-01 -3.2250E-01  3.7224E-01 -3.9271E-01  7.6308E-01  2.4462E-01
      15-
 mid.  surface     3.8121E-01  4.5792E-01 -1.0116E+00 -6.7729E-02  1.3561E-01  3.8511E-01
      16-
 mid.  surface     2.0915E-01  3.0163E-01 -5.6228E-01 -4.8158E-02 -1.2605E-01 -2.5180E-02
      18-
 mid.  surface     4.7032E-01 -2.1838E-02  3.3198E-02 -2.0914E-01  4.4572E-01  5.7652E-01
      40-
 mid.  surface     4.5819E-01  7.3539E-01 -1.3035E+00 -1.1100E-01  9.8188E-01  5.0295E-01
      41-
 mid.  surface     5.9593E-01  1.1809E+00 -1.7935E+00  2.4119E-01  1.0638E+00  1.2691E-01
      50-
 mid.  surface     3.2617E-01  4.2806E-01 -8.5012E-01 -1.2559E-01 -4.5743E-01 -1.6286E-01
      51-
 mid.  surface     2.5767E-01  5.0635E-01 -1.0600E+00 -2.6897E-01  6.0148E-01 -4.7591E-01
      52-
 mid.  surface     3.8894E-01  5.6796E-01 -1.0415E+00 -2.5762E-01  6.9265E-01  3.6851E-01
      53-
 mid.  surface     3.3431E-01  4.7697E-01 -6.3334E-01 -4.4029E-02 -3.9301E-01 -1.2602E-01
      72-
 mid.  surface     3.3552E-01  5.8501E-01 -1.1730E+00 -2.0669E-01  1.1862E-01  2.4184E-01
      95-
 mid.  surface     4.5331E-01  3.2803E-01 -1.0638E+00 -1.4986E-01  1.8700E-01 -1.3979E-01
     100-
 mid.  surface     6.2317E-01  8.4418E-01 -1.7668E+00  1.2941E-01 -8.7843E-01 -6.1065E-01
     110-
 mid.  surface     6.2274E-01  1.7701E+00 -2.2966E+00  4.6244E-01 -1.9454E+00 -6.2752E-01



 n o d a l  s t r e s s  c a l c u l a t i o n s   f o r   t i m e  s t e p      635   ( at time 9.02605E+01 )

 node (global)
          stress       sig-xx      sig-yy      sig-zz      sig-xy      sig-yz      sig-zx       plastic
                                                                                                 strain 
       4-
 mid.  surface     0.0000E+00  0.0000E+00  0.0000E+00  0.0000E+00  0.0000E+00  0.0000E+00  2.7548E+00
       5-
 mid.  surface     0.0000E+00  0.0000E+00  0.0000E+00  0.0000E+00  0.0000E+00  0.0000E+00  2.9542E+00
       6-
 mid.  surface     6.3997E+07  8.0423E+07  2.3219E+07  8.3381E+06 -1.1174E+07  9.9989E+06  1.1075E+00
       7-
 mid.  surface    -9.8529E+07 -1.2999E+08 -3.8327E+07 -6.0783E+06  1.7270E+07  9.9284E+05  1.9029E+00
       8-
 mid.  surface     2.2715E+07  3.7024E+07  1.1407E+07 -1.7678E+06 -3.8121E+06 -9.9198E+06  2.6197E+00
       9-
 mid.  surface     2.5693E+07  2.7148E+07  7.8744E+06  5.5508E+05 -4.8839E+06  9.5024E+05  2.0074E+00
      10-
 mid.  surface     3.8869E+07  4.1069E+07  1.1912E+07  8.3972E+05 -7.3883E+06  1.4375E+06 -4.5391E+00
      15-
 mid.  surface    -2.2220E+07 -2.2229E+07 -5.6802E+06 -9.1348E+06  3.8185E+06 -1.8600E+07 -1.3042E+00
      16-
 mid.  surface     6.3997E+07  8.0423E+07  2.3219E+07  8.3381E+06 -1.1174E+07  9.9989E+06  9.9781E-01
      18-
 mid.  surface     6.8261E+07  9.1825E+07  2.7645E+07 -1.9420E+06 -1.2210E+07 -1.3753E+07 -3.8368E+00
      40-
 mid.  surface     2.2715E+07  3.7023E+07  1.1407E+07 -1.7678E+06 -3.8121E+06 -9.9198E+06 -1.8419E+00
      41-
 mid.  surface     2.5693E+07  2.7148E+07  7.8744E+06  5.5508E+05 -4.8839E+06  9.5024E+05 -2.3235E-01
      50-
 mid.  surface     6.3997E+07  8.0423E+07  2.3219E+07  8.3381E+06 -1.1174E+07  9.9989E+06 -7.9415E-01
      51-
 mid.  surface     0.0000E+00  0.0000E+00  0.0000E+00  0.0000E+00  0.0000E+00  0.0000E+00  1.4202E+00
      52-
 mid.  surface     0.0000E+00  0.0000E+00  0.0000E+00  0.0000E+00  0.0000E+00  0.0000E+00  1.3950E+00
      53-
 mid.  surface     6.3997E+07  8.0423E+07  2.3219E+07  8.3381E+06 -1.1174E+07  9.9989E+06 -5.2461E-01
      72-
 mid.  surface    -9.8530E+07 -1.2999E+08 -3.8327E+07 -6.0783E+06  1.7270E+07  9.9289E+05 -1.8263E+00
      95-
 mid.  surface    -1.6695E+08 -2.2660E+08 -6.7598E+07 -3.3379E+06  2.9331E+07  1.8560E+07  1.1532E+00
     100-
 mid.  surface    -7.7589E+07 -9.6088E+07 -2.8594E+07  7.7026E+05  1.4201E+07  8.7857E+06  5.8241E+00
     110-
 mid.  surface    -2.7831E+07 -2.9407E+07 -8.5296E+06 -6.0127E+05  5.2903E+06 -1.0293E+06  7.8009E+00



 n o d a l  s t r a i n  c a l c u l a t i o n s   f o r   t i m e  s t e p      635   ( at time 9.02605E+01 )

 node (global)
          strain       eps-xx      eps-yy      eps-zz      eps-xy      eps-yz      eps-zx       
       4-
 mid.  surface     1.8366E-01  1.3542E-01 -2.9073E-01  4.5130E-02  2.5752E-01 -3.6263E-01
       5-
 mid.  surface     3.2853E-01  3.3776E-01 -4.8850E-01  2.8634E-01  2.2072E-01 -7.4920E-03
       6-
 mid.  surface     2.8244E-01  5.1040E-01 -5.7287E-01  8.6094E-02 -2.8432E-01  1.6097E-02
       7-
 mid.  surface     3.1281E-01  3.3588E-01 -8.2771E-01  7.4270E-03  2.4849E-01  6.4383E-02
       8-
 mid.  surface     4.8430E-01 -3.3454E-01 -8.3488E-02 -2.2417E-01 -8.6490E-02  1.3827E-01
       9-
 mid.  surface     5.8352E-01 -2.6725E-01 -7.3200E-02 -3.8542E-01 -7.5662E-01 -4.1456E-01
      10-
 mid.  surface     6.4955E-01 -3.2224E-01  3.7206E-01 -3.9274E-01  7.6297E-01  2.4467E-01
      15-
 mid.  surface     3.8131E-01  4.5797E-01 -1.0116E+00 -6.7753E-02  1.3565E-01  3.8510E-01
      16-
 mid.  surface     2.0918E-01  3.0159E-01 -5.6229E-01 -4.8230E-02 -1.2602E-01 -2.5140E-02
      18-
 mid.  surface     4.7036E-01 -2.1925E-02  3.3174E-02 -2.0919E-01  4.4571E-01  5.7657E-01
      40-
 mid.  surface     4.5821E-01  7.3535E-01 -1.3035E+00 -1.1106E-01  9.8185E-01  5.0298E-01
      41-
 mid.  surface     5.9595E-01  1.1810E+00 -1.7937E+00  2.4118E-01  1.0640E+00  1.2682E-01
      50-
 mid.  surface     3.2620E-01  4.2804E-01 -8.5015E-01 -1.2560E-01 -4.5754E-01 -1.6286E-01
      51-
 mid.  surface     2.5769E-01  5.0638E-01 -1.0601E+00 -2.6897E-01  6.0154E-01 -4.7587E-01
      52-
 mid.  surface     3.8894E-01  5.6797E-01 -1.0415E+00 -2.5761E-01  6.9268E-01  3.6850E-01
      53-
 mid.  surface     3.3428E-01  4.7701E-01 -6.3339E-01 -4.4014E-02 -3.9313E-01 -1.2602E-01
      72-
 mid.  surface     3.3560E-01  5.8501E-01 -1.1730E+00 -2.0667E-01  1.1863E-01  2.4187E-01
      95-
 mid.  surface     4.5335E-01  3.2812E-01 -1.0638E+00 -1.4980E-01  1.8700E-01 -1.3985E-01
     100-
 mid.  surface     6.2316E-01  8.4409E-01 -1.7667E+00  1.2944E-01 -8.7835E-01 -6.1065E-01
     110-
 mid.  surface     6.2276E-01  1.7702E+00 -2.2966E+00  4.6247E-01 -1.9453E+00 -6.2763E-01



 n o d a l  s t r e s s  c a l c u l a t i o n s   f o r   t i m e  s t e p      641   ( at time 9.52605E+01 )

 node (global)
          stress       sig-xx      sig-yy      sig-zz      sig-xy      sig-yz      sig-zx       plastic
                                                                                                 strain 
       4-
 mid.  surface     0.0000E+00  0.0000E+00  0.0000E+00  0.0000E+00  0.0000E+00  0.0000E+00  2.7548E+00
       5-
 mid.  surface     0.0000E+00  0.0000E+00  0.0000E+00  0.0000E+00  0.0000E+00  0.0000E+00  2.9542E+00
       6-
 mid.  surface     5.2425E+07  6.8345E+07  1.7642E+07  6.9772E+06 -1.0486E+07  9.0582E+06  1.1075E+00
       7-
 mid.  surface    -8.5049E+07 -1.1608E+08 -3.0861E+07 -5.2470E+06  1.6914E+07  9.7815E+05  1.9029E+00
       8-
 mid.  surface     2.1219E+07  3.5428E+07  1.0949E+07 -1.4552E+06 -4.2072E+06 -9.2080E+06  2.6197E+00
       9-
 mid.  surface     2.3616E+07  2.5312E+07  4.7341E+06  6.9399E+05 -4.6272E+06  1.1356E+06  2.0074E+00
      10-
 mid.  surface     3.5727E+07  3.8292E+07  7.1617E+06  1.0499E+06 -6.9999E+06  1.7178E+06 -4.5391E+00
      15-
 mid.  surface    -1.4200E+07 -1.3712E+07 -2.7107E+06 -7.4955E+06  2.9293E+06 -1.6923E+07 -1.3042E+00
      16-
 mid.  surface     5.2425E+07  6.8345E+07  1.7642E+07  6.9772E+06 -1.0486E+07  9.0582E+06  9.9781E-01
      18-
 mid.  surface     6.3258E+07  8.6991E+07  2.2809E+07 -1.2858E+06 -1.2469E+07 -1.2432E+07 -3.8368E+00
      40-
 mid.  surface     2.1219E+07  3.5428E+07  1.0949E+07 -1.4552E+06 -4.2072E+06 -9.2081E+06 -1.8419E+00
      41-
 mid.  surface     2.3616E+07  2.5312E+07  4.7341E+06  6.9399E+05 -4.6272E+06  1.1356E+06 -2.3235E-01
      50-
 mid.  surface     5.2425E+07  6.8345E+07  1.7642E+07  6.9772E+06 -1.0486E+07  9.0582E+06 -7.9415E-01
      51-
 mid.  surface     0.0000E+00  0.0000E+00  0.0000E+00  0.0000E+00  0.0000E+00  0.0000E+00  1.4202E+00
      52-
 mid.  surface     0.0000E+00  0.0000E+00  0.0000E+00  0.0000E+00  0.0000E+00  0.0000E+00  1.3950E+00
      53-
 mid.  surface     5.2425E+07  6.8345E+07  1.7642E+07  6.9772E+06 -1.0486E+07  9.0582E+06 -5.2461E-01
      72-
 mid.  surface    -8.5049E+07 -1.1608E+08 -3.0861E+07 -5.2470E+06  1.6915E+07  9.7820E+05 -1.8263E+00
      95-
 mid.  surface    -1.4857E+08 -2.0785E+08 -5.6100E+07 -3.2310E+06  2.9454E+07  1.7028E+07  1.1532E+00
     100-
 mid.  surface    -7.1686E+07 -9.0575E+07 -2.1622E+07  1.4514E+05  1.4099E+07  7.6325E+06  5.8241E+00
     110-
 mid.  surface    -2.5582E+07 -2.7418E+07 -5.1280E+06 -7.5174E+05  5.0122E+06 -1.2300E+06  7.8009E+00



 n o d a l  s t r a i n  c a l c u l a t i o n s   f o r   t i m e  s t e p      641   ( at time 9.52605E+01 )

 node (global)
          strain       eps-xx      eps-yy      eps-zz      eps-xy      eps-yz      eps-zx       
       4-
 mid.  surface     1.8366E-01  1.3540E-01 -2.9071E-01  4.5137E-02  2.5755E-01 -3.6262E-01
       5-
 mid.  surface     3.2852E-01  3.3772E-01 -4.8845E-01  2.8636E-01  2.2073E-01 -7.5258E-03
       6-
 mid.  surface     2.8243E-01  5.1040E-01 -5.7288E-01  8.6047E-02 -2.8431E-01  1.6106E-02
       7-
 mid.  surface     3.1283E-01  3.3598E-01 -8.2773E-01  7.4165E-03  2.4851E-01  6.4425E-02
       8-
 mid.  surface     4.8430E-01 -3.3466E-01 -8.3355E-02 -2.2417E-01 -8.6512E-02  1.3826E-01
       9-
 mid.  surface     5.8352E-01 -2.6728E-01 -7.3099E-02 -3.8540E-01 -7.5673E-01 -4.1460E-01
      10-
 mid.  surface     6.4954E-01 -3.2204E-01  3.7192E-01 -3.9275E-01  7.6293E-01  2.4471E-01
      15-
 mid.  surface     3.8139E-01  4.5801E-01 -1.0117E+00 -6.7771E-02  1.3569E-01  3.8511E-01
      16-
 mid.  surface     2.0921E-01  3.0156E-01 -5.6229E-01 -4.8290E-02 -1.2599E-01 -2.5117E-02
      18-
 mid.  surface     4.7038E-01 -2.1953E-02  3.3169E-02 -2.0922E-01  4.4569E-01  5.7662E-01
      40-
 mid.  surface     4.5822E-01  7.3534E-01 -1.3035E+00 -1.1111E-01  9.8186E-01  5.0300E-01
      41-
 mid.  surface     5.9597E-01  1.1811E+00 -1.7938E+00  2.4119E-01  1.0641E+00  1.2680E-01
      50-
 mid.  surface     3.2623E-01  4.2802E-01 -8.5017E-01 -1.2560E-01 -4.5763E-01 -1.6286E-01
      51-
 mid.  surface     2.5770E-01  5.0640E-01 -1.0601E+00 -2.6897E-01  6.0160E-01 -4.7583E-01
      52-
 mid.  surface     3.8895E-01  5.6798E-01 -1.0415E+00 -2.5761E-01  6.9271E-01  3.6850E-01
      53-
 mid.  surface     3.3425E-01  4.7705E-01 -6.3340E-01 -4.4005E-02 -3.9323E-01 -1.2603E-01
      72-
 mid.  surface     3.3566E-01  5.8502E-01 -1.1730E+00 -2.0666E-01  1.1865E-01  2.4189E-01
      95-
 mid.  surface     4.5338E-01  3.2817E-01 -1.0638E+00 -1.4975E-01  1.8701E-01 -1.3990E-01
     100-
 mid.  surface     6.2316E-01  8.4401E-01 -1.7666E+00  1.2947E-01 -8.7828E-01 -6.1065E-01
     110-
 mid.  surface     6.2278E-01  1.7702E+00 -2.2966E+00  4.6250E-01 -1.9453E+00 -6.2772E-01



 n o d a l  s t r e s s  c a l c u l a t i o n s   f o r   t i m e  s t e p      647   ( at time 1.00000E+02 )

 node (global)
          stress       sig-xx      sig-yy      sig-zz      sig-xy      sig-yz      sig-zx       plastic
                                                                                                 strain 
       4-
 mid.  surface     0.0000E+00  0.0000E+00  0.0000E+00  0.0000E+00  0.0000E+00  0.0000E+00  2.7548E+00
       5-
 mid.  surface     0.0000E+00  0.0000E+00  0.0000E+00  0.0000E+00  0.0000E+00  0.0000E+00  2.9542E+00
       6-
 mid.  surface     4.3602E+07  5.8590E+07  1.3604E+07  5.9383E+06 -9.8400E+06  8.2181E+06  1.1075E+00
       7-
 mid.  surface    -7.4193E+07 -1.0452E+08 -2.5195E+07 -4.6260E+06  1.6446E+07  9.9474E+05  1.9029E+00
       8-
 mid.  surface     1.9325E+07  3.3649E+07  9.7672E+06 -1.1578E+06 -4.5189E+06 -8.5730E+06  2.6197E+00
       9-
 mid.  surface     2.2441E+07  2.4195E+07  3.5882E+06  7.1482E+05 -4.2663E+06  1.2516E+06  2.0074E+00
      10-
 mid.  surface     3.3948E+07  3.6602E+07  5.4282E+06  1.0814E+06 -6.4541E+06  1.8933E+06 -4.5391E+00
      15-
 mid.  surface    -8.6165E+06 -7.1261E+06 -7.9959E+05 -6.2314E+06  2.2191E+06 -1.5452E+07 -1.3042E+00
      16-
 mid.  surface     4.3602E+07  5.8590E+07  1.3604E+07  5.9383E+06 -9.8400E+06  8.2181E+06  9.9781E-01
      18-
 mid.  surface     5.8841E+07  8.2824E+07  1.9510E+07 -8.0846E+05 -1.2465E+07 -1.1318E+07 -3.8368E+00
      40-
 mid.  surface     1.9325E+07  3.3649E+07  9.7672E+06 -1.1578E+06 -4.5189E+06 -8.5730E+06 -1.8419E+00
      41-
 mid.  surface     2.2441E+07  2.4195E+07  3.5882E+06  7.1482E+05 -4.2663E+06  1.2516E+06 -2.3235E-01
      50-
 mid.  surface     4.3601E+07  5.8590E+07  1.3604E+07  5.9383E+06 -9.8399E+06  8.2181E+06 -7.9415E-01
      51-
 mid.  surface     0.0000E+00  0.0000E+00  0.0000E+00  0.0000E+00  0.0000E+00  0.0000E+00  1.4202E+00
      52-
 mid.  surface     0.0000E+00  0.0000E+00  0.0000E+00  0.0000E+00  0.0000E+00  0.0000E+00  1.3950E+00
      53-
 mid.  surface     4.3601E+07  5.8590E+07  1.3604E+07  5.9383E+06 -9.8399E+06  8.2181E+06 -5.2461E-01
      72-
 mid.  surface    -7.4193E+07 -1.0452E+08 -2.5195E+07 -4.6260E+06  1.6447E+07  9.9479E+05 -1.8263E+00
      95-
 mid.  surface    -1.3299E+08 -1.9185E+08 -4.7068E+07 -3.1865E+06  2.9203E+07  1.5741E+07  1.1532E+00
     100-
 mid.  surface    -6.7210E+07 -8.6343E+07 -1.7979E+07 -2.1992E+05  1.3693E+07  6.7054E+06  5.8241E+00
     110-
 mid.  surface    -2.4308E+07 -2.6208E+07 -3.8868E+06 -7.7430E+05  4.6213E+06 -1.3557E+06  7.8009E+00



 n o d a l  s t r a i n  c a l c u l a t i o n s   f o r   t i m e  s t e p      647   ( at time 1.00000E+02 )

 node (global)
          strain       eps-xx      eps-yy      eps-zz      eps-xy      eps-yz      eps-zx       
       4-
 mid.  surface     1.8365E-01  1.3537E-01 -2.9070E-01  4.5145E-02  2.5758E-01 -3.6261E-01
       5-
 mid.  surface     3.2851E-01  3.3769E-01 -4.8840E-01  2.8637E-01  2.2073E-01 -7.5561E-03
       6-
 mid.  surface     2.8243E-01  5.1041E-01 -5.7287E-01  8.6005E-02 -2.8430E-01  1.6107E-02
       7-
 mid.  surface     3.1284E-01  3.3607E-01 -8.2774E-01  7.4016E-03  2.4853E-01  6.4458E-02
       8-
 mid.  surface     4.8429E-01 -3.3476E-01 -8.3239E-02 -2.2418E-01 -8.6530E-02  1.3824E-01
       9-
 mid.  surface     5.8351E-01 -2.6732E-01 -7.3001E-02 -3.8541E-01 -7.5681E-01 -4.1464E-01
      10-
 mid.  surface     6.4953E-01 -3.2186E-01  3.7180E-01 -3.9276E-01  7.6291E-01  2.4475E-01
      15-
 mid.  surface     3.8145E-01  4.5804E-01 -1.0117E+00 -6.7788E-02  1.3572E-01  3.8512E-01
      16-
 mid.  surface     2.0923E-01  3.0153E-01 -5.6229E-01 -4.8343E-02 -1.2597E-01 -2.5100E-02
      18-
 mid.  surface     4.7041E-01 -2.1960E-02  3.3155E-02 -2.0926E-01  4.4568E-01  5.7667E-01
      40-
 mid.  surface     4.5823E-01  7.3534E-01 -1.3035E+00 -1.1114E-01  9.8189E-01  5.0303E-01
      41-
 mid.  surface     5.9599E-01  1.1812E+00 -1.7939E+00  2.4121E-01  1.0642E+00  1.2681E-01
      50-
 mid.  surface     3.2625E-01  4.2800E-01 -8.5018E-01 -1.2561E-01 -4.5770E-01 -1.6286E-01
      51-
 mid.  surface     2.5771E-01  5.0641E-01 -1.0602E+00 -2.6897E-01  6.0164E-01 -4.7580E-01
      52-
 mid.  surface     3.8895E-01  5.6799E-01 -1.0416E+00 -2.5760E-01  6.9274E-01  3.6850E-01
      53-
 mid.  surface     3.3423E-01  4.7707E-01 -6.3340E-01 -4.3998E-02 -3.9332E-01 -1.2604E-01
      72-
 mid.  surface     3.3572E-01  5.8504E-01 -1.1730E+00 -2.0665E-01  1.1866E-01  2.4191E-01
      95-
 mid.  surface     4.5340E-01  3.2821E-01 -1.0638E+00 -1.4971E-01  1.8703E-01 -1.3995E-01
     100-
 mid.  surface     6.2316E-01  8.4395E-01 -1.7666E+00  1.2949E-01 -8.7822E-01 -6.1065E-01
     110-
 mid.  surface     6.2280E-01  1.7703E+00 -2.2966E+00  4.6253E-01 -1.9452E+00 -6.2779E-01
