 LS-DYNA keyword deck by LS-PrePost                                      
                    ls-dyna smp d R14 R14.1.1s_1_ef50e1 date 06/16/2024

 n o d a l   f o r c e/e n e r g y    o u t p u t  t=   0.00000E+00

 velocity boundary condition forces/rigid body moments 

 nd#     220  xforce=   0.0000E+00   yforce=   0.0000E+00  zforce=   0.0000E+00   energy=   0.0000E+00   setid =     220 xmoment=   0.0000E+00 ymoment=   0.0000E+00 zmoment=   0.0000E+00
 nd#     221  xforce=   0.0000E+00   yforce=   0.0000E+00  zforce=   0.0000E+00   energy=   0.0000E+00   setid =     221 xmoment=   0.0000E+00 ymoment=   0.0000E+00 zmoment=   0.0000E+00
 nd#     222  xforce=   0.0000E+00   yforce=   0.0000E+00  zforce=   0.0000E+00   energy=   0.0000E+00   setid =     222 xmoment=   0.0000E+00 ymoment=   0.0000E+00 zmoment=   0.0000E+00
 nd#     223  xforce=   0.0000E+00   yforce=   0.0000E+00  zforce=   0.0000E+00   energy=   0.0000E+00   setid =     223 xmoment=   0.0000E+00 ymoment=   0.0000E+00 zmoment=   0.0000E+00
 nd#     248  xforce=   0.0000E+00   yforce=   0.0000E+00  zforce=   0.0000E+00   energy=   0.0000E+00   setid =     248 xmoment=   0.0000E+00 ymoment=   0.0000E+00 zmoment=   0.0000E+00
 nd#     249  xforce=   0.0000E+00   yforce=   0.0000E+00  zforce=   0.0000E+00   energy=   0.0000E+00   setid =     249 xmoment=   0.0000E+00 ymoment=   0.0000E+00 zmoment=   0.0000E+00
 nd#     286  xforce=   0.0000E+00   yforce=   0.0000E+00  zforce=   0.0000E+00   energy=   0.0000E+00   setid =     286 xmoment=   0.0000E+00 ymoment=   0.0000E+00 zmoment=   0.0000E+00
 nd#     287  xforce=   0.0000E+00   yforce=   0.0000E+00  zforce=   0.0000E+00   energy=   0.0000E+00   setid =     287 xmoment=   0.0000E+00 ymoment=   0.0000E+00 zmoment=   0.0000E+00
 nd#     288  xforce=   0.0000E+00   yforce=   0.0000E+00  zforce=   0.0000E+00   energy=   0.0000E+00   setid =     288 xmoment=   0.0000E+00 ymoment=   0.0000E+00 zmoment=   0.0000E+00
 nd#     301  xforce=   0.0000E+00   yforce=   0.0000E+00  zforce=   0.0000E+00   energy=   0.0000E+00   setid =     301 xmoment=   0.0000E+00 ymoment=   0.0000E+00 zmoment=   0.0000E+00
 nd#     314  xforce=   0.0000E+00   yforce=   0.0000E+00  zforce=   0.0000E+00   energy=   0.0000E+00   setid =     314 xmoment=   0.0000E+00 ymoment=   0.0000E+00 zmoment=   0.0000E+00
 nd#     363  xforce=   0.0000E+00   yforce=   0.0000E+00  zforce=   0.0000E+00   energy=   0.0000E+00   setid =     363 xmoment=   0.0000E+00 ymoment=   0.0000E+00 zmoment=   0.0000E+00
 nd#     364  xforce=   0.0000E+00   yforce=   0.0000E+00  zforce=   0.0000E+00   energy=   0.0000E+00   setid =     364 xmoment=   0.0000E+00 ymoment=   0.0000E+00 zmoment=   0.0000E+00
 nd#     365  xforce=   0.0000E+00   yforce=   0.0000E+00  zforce=   0.0000E+00   energy=   0.0000E+00   setid =     365 xmoment=   0.0000E+00 ymoment=   0.0000E+00 zmoment=   0.0000E+00
 nd#     366  xforce=   0.0000E+00   yforce=   0.0000E+00  zforce=   0.0000E+00   energy=   0.0000E+00   setid =     366 xmoment=   0.0000E+00 ymoment=   0.0000E+00 zmoment=   0.0000E+00
 nd#     379  xforce=   0.0000E+00   yforce=   0.0000E+00  zforce=   0.0000E+00   energy=   0.0000E+00   setid =     379 xmoment=   0.0000E+00 ymoment=   0.0000E+00 zmoment=   0.0000E+00
 nd#     404  xforce=   0.0000E+00   yforce=   0.0000E+00  zforce=   0.0000E+00   energy=   0.0000E+00   setid =     404 xmoment=   0.0000E+00 ymoment=   0.0000E+00 zmoment=   0.0000E+00
 nd#     405  xforce=   0.0000E+00   yforce=   0.0000E+00  zforce=   0.0000E+00   energy=   0.0000E+00   setid =     405 xmoment=   0.0000E+00 ymoment=   0.0000E+00 zmoment=   0.0000E+00
 nd#     418  xforce=   0.0000E+00   yforce=   0.0000E+00  zforce=   0.0000E+00   energy=   0.0000E+00   setid =     418 xmoment=   0.0000E+00 ymoment=   0.0000E+00 zmoment=   0.0000E+00
 nd#     438  xforce=   0.0000E+00   yforce=   0.0000E+00  zforce=   0.0000E+00   energy=   0.0000E+00   setid =     438 xmoment=   0.0000E+00 ymoment=   0.0000E+00 zmoment=   0.0000E+00
 nd#     439  xforce=   0.0000E+00   yforce=   0.0000E+00  zforce=   0.0000E+00   energy=   0.0000E+00   setid =     439 xmoment=   0.0000E+00 ymoment=   0.0000E+00 zmoment=   0.0000E+00
 nd#     440  xforce=   0.0000E+00   yforce=   0.0000E+00  zforce=   0.0000E+00   energy=   0.0000E+00   setid =     440 xmoment=   0.0000E+00 ymoment=   0.0000E+00 zmoment=   0.0000E+00
 nd#     441  xforce=   0.0000E+00   yforce=   0.0000E+00  zforce=   0.0000E+00   energy=   0.0000E+00   setid =     441 xmoment=   0.0000E+00 ymoment=   0.0000E+00 zmoment=   0.0000E+00
 nd#     442  xforce=   0.0000E+00   yforce=   0.0000E+00  zforce=   0.0000E+00   energy=   0.0000E+00   setid =     442 xmoment=   0.0000E+00 ymoment=   0.0000E+00 zmoment=   0.0000E+00
 nd#     443  xforce=   0.0000E+00   yforce=   0.0000E+00  zforce=   0.0000E+00   energy=   0.0000E+00   setid =     443 xmoment=   0.0000E+00 ymoment=   0.0000E+00 zmoment=   0.0000E+00
 nd#     444  xforce=   0.0000E+00   yforce=   0.0000E+00  zforce=   0.0000E+00   energy=   0.0000E+00   setid =     444 xmoment=   0.0000E+00 ymoment=   0.0000E+00 zmoment=   0.0000E+00
 nd#     591  xforce=   0.0000E+00   yforce=   0.0000E+00  zforce=   0.0000E+00   energy=   0.0000E+00   setid =     591 xmoment=   0.0000E+00 ymoment=   0.0000E+00 zmoment=   0.0000E+00
 nd#     592  xforce=   0.0000E+00   yforce=   0.0000E+00  zforce=   0.0000E+00   energy=   0.0000E+00   setid =     592 xmoment=   0.0000E+00 ymoment=   0.0000E+00 zmoment=   0.0000E+00
 nd#     595  xforce=   0.0000E+00   yforce=   0.0000E+00  zforce=   0.0000E+00   energy=   0.0000E+00   setid =     595 xmoment=   0.0000E+00 ymoment=   0.0000E+00 zmoment=   0.0000E+00
 nd#     596  xforce=   0.0000E+00   yforce=   0.0000E+00  zforce=   0.0000E+00   energy=   0.0000E+00   setid =     596 xmoment=   0.0000E+00 ymoment=   0.0000E+00 zmoment=   0.0000E+00
 nd#     599  xforce=   0.0000E+00   yforce=   0.0000E+00  zforce=   0.0000E+00   energy=   0.0000E+00   setid =     599 xmoment=   0.0000E+00 ymoment=   0.0000E+00 zmoment=   0.0000E+00
 nd#     600  xforce=   0.0000E+00   yforce=   0.0000E+00  zforce=   0.0000E+00   energy=   0.0000E+00   setid =     600 xmoment=   0.0000E+00 ymoment=   0.0000E+00 zmoment=   0.0000E+00
 nd#     603  xforce=   0.0000E+00   yforce=   0.0000E+00  zforce=   0.0000E+00   energy=   0.0000E+00   setid =     603 xmoment=   0.0000E+00 ymoment=   0.0000E+00 zmoment=   0.0000E+00
 nd#     604  xforce=   0.0000E+00   yforce=   0.0000E+00  zforce=   0.0000E+00   energy=   0.0000E+00   setid =     604 xmoment=   0.0000E+00 ymoment=   0.0000E+00 zmoment=   0.0000E+00
 nd#     638  xforce=   0.0000E+00   yforce=   0.0000E+00  zforce=   0.0000E+00   energy=   0.0000E+00   setid =     638 xmoment=   0.0000E+00 ymoment=   0.0000E+00 zmoment=   0.0000E+00
 nd#     639  xforce=   0.0000E+00   yforce=   0.0000E+00  zforce=   0.0000E+00   energy=   0.0000E+00   setid =     639 xmoment=   0.0000E+00 ymoment=   0.0000E+00 zmoment=   0.0000E+00
 nd#     641  xforce=   0.0000E+00   yforce=   0.0000E+00  zforce=   0.0000E+00   energy=   0.0000E+00   setid =     641 xmoment=   0.0000E+00 ymoment=   0.0000E+00 zmoment=   0.0000E+00
 nd#     642  xforce=   0.0000E+00   yforce=   0.0000E+00  zforce=   0.0000E+00   energy=   0.0000E+00   setid =     642 xmoment=   0.0000E+00 ymoment=   0.0000E+00 zmoment=   0.0000E+00
 nd#     644  xforce=   0.0000E+00   yforce=   0.0000E+00  zforce=   0.0000E+00   energy=   0.0000E+00   setid =     644 xmoment=   0.0000E+00 ymoment=   0.0000E+00 zmoment=   0.0000E+00
 nd#     645  xforce=   0.0000E+00   yforce=   0.0000E+00  zforce=   0.0000E+00   energy=   0.0000E+00   setid =     645 xmoment=   0.0000E+00 ymoment=   0.0000E+00 zmoment=   0.0000E+00
 nd#     647  xforce=   0.0000E+00   yforce=   0.0000E+00  zforce=   0.0000E+00   energy=   0.0000E+00   setid =     647 xmoment=   0.0000E+00 ymoment=   0.0000E+00 zmoment=   0.0000E+00
 nd#     648  xforce=   0.0000E+00   yforce=   0.0000E+00  zforce=   0.0000E+00   energy=   0.0000E+00   setid =     648 xmoment=   0.0000E+00 ymoment=   0.0000E+00 zmoment=   0.0000E+00
 nd#     674  xforce=   0.0000E+00   yforce=   0.0000E+00  zforce=   0.0000E+00   energy=   0.0000E+00   setid =     674 xmoment=   0.0000E+00 ymoment=   0.0000E+00 zmoment=   0.0000E+00
 nd#     676  xforce=   0.0000E+00   yforce=   0.0000E+00  zforce=   0.0000E+00   energy=   0.0000E+00   setid =     676 xmoment=   0.0000E+00 ymoment=   0.0000E+00 zmoment=   0.0000E+00
 nd#     678  xforce=   0.0000E+00   yforce=   0.0000E+00  zforce=   0.0000E+00   energy=   0.0000E+00   setid =     678 xmoment=   0.0000E+00 ymoment=   0.0000E+00 zmoment=   0.0000E+00
 nd#     680  xforce=   0.0000E+00   yforce=   0.0000E+00  zforce=   0.0000E+00   energy=   0.0000E+00   setid =     680 xmoment=   0.0000E+00 ymoment=   0.0000E+00 zmoment=   0.0000E+00
 nd#     821  xforce=   0.0000E+00   yforce=   0.0000E+00  zforce=   0.0000E+00   energy=   0.0000E+00   setid =     821 xmoment=   0.0000E+00 ymoment=   0.0000E+00 zmoment=   0.0000E+00
 nd#     822  xforce=   0.0000E+00   yforce=   0.0000E+00  zforce=   0.0000E+00   energy=   0.0000E+00   setid =     822 xmoment=   0.0000E+00 ymoment=   0.0000E+00 zmoment=   0.0000E+00
 nd#     823  xforce=   0.0000E+00   yforce=   0.0000E+00  zforce=   0.0000E+00   energy=   0.0000E+00   setid =     823 xmoment=   0.0000E+00 ymoment=   0.0000E+00 zmoment=   0.0000E+00
 nd#     824  xforce=   0.0000E+00   yforce=   0.0000E+00  zforce=   0.0000E+00   energy=   0.0000E+00   setid =     824 xmoment=   0.0000E+00 ymoment=   0.0000E+00 zmoment=   0.0000E+00
 nd#     850  xforce=   0.0000E+00   yforce=   0.0000E+00  zforce=   0.0000E+00   energy=   0.0000E+00   setid =     850 xmoment=   0.0000E+00 ymoment=   0.0000E+00 zmoment=   0.0000E+00
 nd#     852  xforce=   0.0000E+00   yforce=   0.0000E+00  zforce=   0.0000E+00   energy=   0.0000E+00   setid =     852 xmoment=   0.0000E+00 ymoment=   0.0000E+00 zmoment=   0.0000E+00
 nd#     854  xforce=   0.0000E+00   yforce=   0.0000E+00  zforce=   0.0000E+00   energy=   0.0000E+00   setid =     854 xmoment=   0.0000E+00 ymoment=   0.0000E+00 zmoment=   0.0000E+00
 nd#     856  xforce=   0.0000E+00   yforce=   0.0000E+00  zforce=   0.0000E+00   energy=   0.0000E+00   setid =     856 xmoment=   0.0000E+00 ymoment=   0.0000E+00 zmoment=   0.0000E+00
              xtotal=   0.0000E+00   ytotal=   0.0000E+00  ztotal=   0.0000E+00   etotal=   0.0000E+00

 n o d a l   f o r c e/e n e r g y    o u t p u t  t=   1.29245E+00

 velocity boundary condition forces/rigid body moments 

 nd#     220  xforce=   0.0000E+00   yforce=   0.0000E+00  zforce=  -2.7954E+01   energy=   3.5761E-04   setid =     220 xmoment=   0.0000E+00 ymoment=   0.0000E+00 zmoment=   0.0000E+00
 nd#     221  xforce=   0.0000E+00   yforce=   0.0000E+00  zforce=  -3.8159E+01   energy=   5.1519E-04   setid =     221 xmoment=   0.0000E+00 ymoment=   0.0000E+00 zmoment=   0.0000E+00
 nd#     222  xforce=   0.0000E+00   yforce=   0.0000E+00  zforce=  -5.8613E+01   energy=   7.6344E-04   setid =     222 xmoment=   0.0000E+00 ymoment=   0.0000E+00 zmoment=   0.0000E+00
 nd#     223  xforce=   0.0000E+00   yforce=   0.0000E+00  zforce=  -3.5086E+01   energy=   4.4837E-04   setid =     223 xmoment=   0.0000E+00 ymoment=   0.0000E+00 zmoment=   0.0000E+00
 nd#     248  xforce=   0.0000E+00   yforce=   0.0000E+00  zforce=  -5.3049E+01   energy=   6.8612E-04   setid =     248 xmoment=   0.0000E+00 ymoment=   0.0000E+00 zmoment=   0.0000E+00
 nd#     249  xforce=   0.0000E+00   yforce=   0.0000E+00  zforce=  -3.1183E+01   energy=   3.9754E-04   setid =     249 xmoment=   0.0000E+00 ymoment=   0.0000E+00 zmoment=   0.0000E+00
 nd#     286  xforce=   0.0000E+00   yforce=   0.0000E+00  zforce=  -5.5019E+01   energy=   7.1645E-04   setid =     286 xmoment=   0.0000E+00 ymoment=   0.0000E+00 zmoment=   0.0000E+00
 nd#     287  xforce=   0.0000E+00   yforce=   0.0000E+00  zforce=  -2.9131E+01   energy=   3.8420E-04   setid =     287 xmoment=   0.0000E+00 ymoment=   0.0000E+00 zmoment=   0.0000E+00
 nd#     288  xforce=   0.0000E+00   yforce=   0.0000E+00  zforce=  -5.3101E+01   energy=   6.9137E-04   setid =     288 xmoment=   0.0000E+00 ymoment=   0.0000E+00 zmoment=   0.0000E+00
 nd#     301  xforce=   0.0000E+00   yforce=   0.0000E+00  zforce=  -5.7816E+01   energy=   7.5204E-04   setid =     301 xmoment=   0.0000E+00 ymoment=   0.0000E+00 zmoment=   0.0000E+00
 nd#     314  xforce=   0.0000E+00   yforce=   0.0000E+00  zforce=  -5.0917E+01   energy=   6.6200E-04   setid =     314 xmoment=   0.0000E+00 ymoment=   0.0000E+00 zmoment=   0.0000E+00
 nd#     363  xforce=   0.0000E+00   yforce=   0.0000E+00  zforce=  -5.3654E+01   energy=   6.9615E-04   setid =     363 xmoment=   0.0000E+00 ymoment=   0.0000E+00 zmoment=   0.0000E+00
 nd#     364  xforce=   0.0000E+00   yforce=   0.0000E+00  zforce=  -6.7055E+01   energy=   8.6700E-04   setid =     364 xmoment=   0.0000E+00 ymoment=   0.0000E+00 zmoment=   0.0000E+00
 nd#     365  xforce=   0.0000E+00   yforce=   0.0000E+00  zforce=  -3.9730E+01   energy=   4.9910E-04   setid =     365 xmoment=   0.0000E+00 ymoment=   0.0000E+00 zmoment=   0.0000E+00
 nd#     366  xforce=   0.0000E+00   yforce=   0.0000E+00  zforce=  -2.9506E+01   energy=   3.7698E-04   setid =     366 xmoment=   0.0000E+00 ymoment=   0.0000E+00 zmoment=   0.0000E+00
 nd#     379  xforce=   0.0000E+00   yforce=   0.0000E+00  zforce=  -3.6274E+01   energy=   4.5401E-04   setid =     379 xmoment=   0.0000E+00 ymoment=   0.0000E+00 zmoment=   0.0000E+00
 nd#     404  xforce=   0.0000E+00   yforce=   0.0000E+00  zforce=  -3.3451E+01   energy=   4.1373E-04   setid =     404 xmoment=   0.0000E+00 ymoment=   0.0000E+00 zmoment=   0.0000E+00
 nd#     405  xforce=   0.0000E+00   yforce=   0.0000E+00  zforce=  -2.2527E+01   energy=   2.7317E-04   setid =     405 xmoment=   0.0000E+00 ymoment=   0.0000E+00 zmoment=   0.0000E+00
 nd#     418  xforce=   0.0000E+00   yforce=   0.0000E+00  zforce=  -3.9213E+01   energy=   4.8404E-04   setid =     418 xmoment=   0.0000E+00 ymoment=   0.0000E+00 zmoment=   0.0000E+00
 nd#     438  xforce=   0.0000E+00   yforce=   0.0000E+00  zforce=  -5.0691E+00   energy=   6.9225E-05   setid =     438 xmoment=   0.0000E+00 ymoment=   0.0000E+00 zmoment=   0.0000E+00
 nd#     439  xforce=   0.0000E+00   yforce=   0.0000E+00  zforce=  -2.6078E+01   energy=   3.4161E-04   setid =     439 xmoment=   0.0000E+00 ymoment=   0.0000E+00 zmoment=   0.0000E+00
 nd#     440  xforce=   0.0000E+00   yforce=   0.0000E+00  zforce=  -2.5923E+01   energy=   3.3755E-04   setid =     440 xmoment=   0.0000E+00 ymoment=   0.0000E+00 zmoment=   0.0000E+00
 nd#     441  xforce=   0.0000E+00   yforce=   0.0000E+00  zforce=  -2.5352E+01   energy=   3.2881E-04   setid =     441 xmoment=   0.0000E+00 ymoment=   0.0000E+00 zmoment=   0.0000E+00
 nd#     442  xforce=   0.0000E+00   yforce=   0.0000E+00  zforce=  -2.4726E+01   energy=   3.1955E-04   setid =     442 xmoment=   0.0000E+00 ymoment=   0.0000E+00 zmoment=   0.0000E+00
 nd#     443  xforce=   0.0000E+00   yforce=   0.0000E+00  zforce=  -2.3979E+01   energy=   3.0891E-04   setid =     443 xmoment=   0.0000E+00 ymoment=   0.0000E+00 zmoment=   0.0000E+00
 nd#     444  xforce=   0.0000E+00   yforce=   0.0000E+00  zforce=  -2.2724E+01   energy=   2.9195E-04   setid =     444 xmoment=   0.0000E+00 ymoment=   0.0000E+00 zmoment=   0.0000E+00
 nd#     591  xforce=   0.0000E+00   yforce=   0.0000E+00  zforce=  -4.7207E+01   energy=   6.1232E-04   setid =     591 xmoment=   0.0000E+00 ymoment=   0.0000E+00 zmoment=   0.0000E+00
 nd#     592  xforce=   0.0000E+00   yforce=   0.0000E+00  zforce=  -4.9140E+01   energy=   6.3813E-04   setid =     592 xmoment=   0.0000E+00 ymoment=   0.0000E+00 zmoment=   0.0000E+00
 nd#     595  xforce=   0.0000E+00   yforce=   0.0000E+00  zforce=  -4.6371E+01   energy=   6.0149E-04   setid =     595 xmoment=   0.0000E+00 ymoment=   0.0000E+00 zmoment=   0.0000E+00
 nd#     596  xforce=   0.0000E+00   yforce=   0.0000E+00  zforce=  -4.8813E+01   energy=   6.3357E-04   setid =     596 xmoment=   0.0000E+00 ymoment=   0.0000E+00 zmoment=   0.0000E+00
 nd#     599  xforce=   0.0000E+00   yforce=   0.0000E+00  zforce=  -4.6682E+01   energy=   6.0412E-04   setid =     599 xmoment=   0.0000E+00 ymoment=   0.0000E+00 zmoment=   0.0000E+00
 nd#     600  xforce=   0.0000E+00   yforce=   0.0000E+00  zforce=  -4.9344E+01   energy=   6.3868E-04   setid =     600 xmoment=   0.0000E+00 ymoment=   0.0000E+00 zmoment=   0.0000E+00
 nd#     603  xforce=   0.0000E+00   yforce=   0.0000E+00  zforce=  -2.4590E+01   energy=   3.1593E-04   setid =     603 xmoment=   0.0000E+00 ymoment=   0.0000E+00 zmoment=   0.0000E+00
 nd#     604  xforce=   0.0000E+00   yforce=   0.0000E+00  zforce=  -2.5785E+01   energy=   3.3162E-04   setid =     604 xmoment=   0.0000E+00 ymoment=   0.0000E+00 zmoment=   0.0000E+00
 nd#     638  xforce=   0.0000E+00   yforce=   0.0000E+00  zforce=  -5.2137E+01   energy=   6.8018E-04   setid =     638 xmoment=   0.0000E+00 ymoment=   0.0000E+00 zmoment=   0.0000E+00
 nd#     639  xforce=   0.0000E+00   yforce=   0.0000E+00  zforce=  -5.2501E+01   energy=   6.8853E-04   setid =     639 xmoment=   0.0000E+00 ymoment=   0.0000E+00 zmoment=   0.0000E+00
 nd#     641  xforce=   0.0000E+00   yforce=   0.0000E+00  zforce=  -5.2622E+01   energy=   6.8538E-04   setid =     641 xmoment=   0.0000E+00 ymoment=   0.0000E+00 zmoment=   0.0000E+00
 nd#     642  xforce=   0.0000E+00   yforce=   0.0000E+00  zforce=  -5.3070E+01   energy=   6.9470E-04   setid =     642 xmoment=   0.0000E+00 ymoment=   0.0000E+00 zmoment=   0.0000E+00
 nd#     644  xforce=   0.0000E+00   yforce=   0.0000E+00  zforce=  -5.3543E+01   energy=   6.9469E-04   setid =     644 xmoment=   0.0000E+00 ymoment=   0.0000E+00 zmoment=   0.0000E+00
 nd#     645  xforce=   0.0000E+00   yforce=   0.0000E+00  zforce=  -5.4343E+01   energy=   7.0818E-04   setid =     645 xmoment=   0.0000E+00 ymoment=   0.0000E+00 zmoment=   0.0000E+00
 nd#     647  xforce=   0.0000E+00   yforce=   0.0000E+00  zforce=  -2.7597E+01   energy=   3.5635E-04   setid =     647 xmoment=   0.0000E+00 ymoment=   0.0000E+00 zmoment=   0.0000E+00
 nd#     648  xforce=   0.0000E+00   yforce=   0.0000E+00  zforce=  -2.7941E+01   energy=   3.6248E-04   setid =     648 xmoment=   0.0000E+00 ymoment=   0.0000E+00 zmoment=   0.0000E+00
 nd#     674  xforce=   0.0000E+00   yforce=   0.0000E+00  zforce=  -4.4584E+01   energy=   5.7786E-04   setid =     674 xmoment=   0.0000E+00 ymoment=   0.0000E+00 zmoment=   0.0000E+00
 nd#     676  xforce=   0.0000E+00   yforce=   0.0000E+00  zforce=  -4.3456E+01   energy=   5.6335E-04   setid =     676 xmoment=   0.0000E+00 ymoment=   0.0000E+00 zmoment=   0.0000E+00
 nd#     678  xforce=   0.0000E+00   yforce=   0.0000E+00  zforce=  -4.3934E+01   energy=   5.6811E-04   setid =     678 xmoment=   0.0000E+00 ymoment=   0.0000E+00 zmoment=   0.0000E+00
 nd#     680  xforce=   0.0000E+00   yforce=   0.0000E+00  zforce=  -2.3356E+01   energy=   2.9951E-04   setid =     680 xmoment=   0.0000E+00 ymoment=   0.0000E+00 zmoment=   0.0000E+00
 nd#     821  xforce=   0.0000E+00   yforce=   0.0000E+00  zforce=  -5.0759E+01   energy=   6.6044E-04   setid =     821 xmoment=   0.0000E+00 ymoment=   0.0000E+00 zmoment=   0.0000E+00
 nd#     822  xforce=   0.0000E+00   yforce=   0.0000E+00  zforce=  -5.0901E+01   energy=   6.6151E-04   setid =     822 xmoment=   0.0000E+00 ymoment=   0.0000E+00 zmoment=   0.0000E+00
 nd#     823  xforce=   0.0000E+00   yforce=   0.0000E+00  zforce=  -5.1618E+01   energy=   6.6861E-04   setid =     823 xmoment=   0.0000E+00 ymoment=   0.0000E+00 zmoment=   0.0000E+00
 nd#     824  xforce=   0.0000E+00   yforce=   0.0000E+00  zforce=  -2.6767E+01   energy=   3.4481E-04   setid =     824 xmoment=   0.0000E+00 ymoment=   0.0000E+00 zmoment=   0.0000E+00
 nd#     850  xforce=   0.0000E+00   yforce=   0.0000E+00  zforce=  -8.5245E+00   energy=   1.2143E-04   setid =     850 xmoment=   0.0000E+00 ymoment=   0.0000E+00 zmoment=   0.0000E+00
 nd#     852  xforce=   0.0000E+00   yforce=   0.0000E+00  zforce=  -4.9700E+00   energy=   8.1038E-05   setid =     852 xmoment=   0.0000E+00 ymoment=   0.0000E+00 zmoment=   0.0000E+00
 nd#     854  xforce=   0.0000E+00   yforce=   0.0000E+00  zforce=  -1.1947E+00   energy=   3.9420E-05   setid =     854 xmoment=   0.0000E+00 ymoment=   0.0000E+00 zmoment=   0.0000E+00
 nd#     856  xforce=   0.0000E+00   yforce=   0.0000E+00  zforce=  -2.6376E-01   energy=   1.6890E-05   setid =     856 xmoment=   0.0000E+00 ymoment=   0.0000E+00 zmoment=   0.0000E+00
              xtotal=   0.0000E+00   ytotal=   0.0000E+00  ztotal=  -2.0273E+03   etotal=   2.6285E-02

 n o d a l   f o r c e/e n e r g y    o u t p u t  t=   2.45836E+00

 velocity boundary condition forces/rigid body moments 

 nd#     220  xforce=   0.0000E+00   yforce=   0.0000E+00  zforce=  -1.1225E+02   energy=   2.5409E-03   setid =     220 xmoment=   0.0000E+00 ymoment=   0.0000E+00 zmoment=   0.0000E+00
 nd#     221  xforce=   0.0000E+00   yforce=   0.0000E+00  zforce=  -7.7091E+01   energy=   2.2501E-03   setid =     221 xmoment=   0.0000E+00 ymoment=   0.0000E+00 zmoment=   0.0000E+00
 nd#     222  xforce=   0.0000E+00   yforce=   0.0000E+00  zforce=  -6.1309E+01   energy=   2.0904E-03   setid =     222 xmoment=   0.0000E+00 ymoment=   0.0000E+00 zmoment=   0.0000E+00
 nd#     223  xforce=   0.0000E+00   yforce=   0.0000E+00  zforce=  -7.2373E+01   energy=   1.8715E-03   setid =     223 xmoment=   0.0000E+00 ymoment=   0.0000E+00 zmoment=   0.0000E+00
 nd#     248  xforce=   0.0000E+00   yforce=   0.0000E+00  zforce=  -4.8831E+01   energy=   1.6822E-03   setid =     248 xmoment=   0.0000E+00 ymoment=   0.0000E+00 zmoment=   0.0000E+00
 nd#     249  xforce=   0.0000E+00   yforce=   0.0000E+00  zforce=  -4.2792E+01   energy=   1.2483E-03   setid =     249 xmoment=   0.0000E+00 ymoment=   0.0000E+00 zmoment=   0.0000E+00
 nd#     286  xforce=   0.0000E+00   yforce=   0.0000E+00  zforce=   2.5558E+02   energy=  -3.7257E-03   setid =     286 xmoment=   0.0000E+00 ymoment=   0.0000E+00 zmoment=   0.0000E+00
 nd#     287  xforce=   0.0000E+00   yforce=   0.0000E+00  zforce=  -7.5660E+01   energy=   1.9852E-03   setid =     287 xmoment=   0.0000E+00 ymoment=   0.0000E+00 zmoment=   0.0000E+00
 nd#     288  xforce=   0.0000E+00   yforce=   0.0000E+00  zforce=   8.6092E+01   energy=  -8.5067E-04   setid =     288 xmoment=   0.0000E+00 ymoment=   0.0000E+00 zmoment=   0.0000E+00
 nd#     301  xforce=   0.0000E+00   yforce=   0.0000E+00  zforce=  -1.6616E+02   energy=   4.1560E-03   setid =     301 xmoment=   0.0000E+00 ymoment=   0.0000E+00 zmoment=   0.0000E+00
 nd#     314  xforce=   0.0000E+00   yforce=   0.0000E+00  zforce=  -6.5895E+01   energy=   2.1135E-03   setid =     314 xmoment=   0.0000E+00 ymoment=   0.0000E+00 zmoment=   0.0000E+00
 nd#     363  xforce=   0.0000E+00   yforce=   0.0000E+00  zforce=   6.0052E+00   energy=   8.1559E-04   setid =     363 xmoment=   0.0000E+00 ymoment=   0.0000E+00 zmoment=   0.0000E+00
 nd#     364  xforce=   0.0000E+00   yforce=   0.0000E+00  zforce=  -3.4995E+01   energy=   1.7672E-03   setid =     364 xmoment=   0.0000E+00 ymoment=   0.0000E+00 zmoment=   0.0000E+00
 nd#     365  xforce=   0.0000E+00   yforce=   0.0000E+00  zforce=  -1.7938E+02   energy=   3.9431E-03   setid =     365 xmoment=   0.0000E+00 ymoment=   0.0000E+00 zmoment=   0.0000E+00
 nd#     366  xforce=   0.0000E+00   yforce=   0.0000E+00  zforce=  -6.6446E+01   energy=   1.7542E-03   setid =     366 xmoment=   0.0000E+00 ymoment=   0.0000E+00 zmoment=   0.0000E+00
 nd#     379  xforce=   0.0000E+00   yforce=   0.0000E+00  zforce=  -2.3887E+01   energy=   8.9135E-04   setid =     379 xmoment=   0.0000E+00 ymoment=   0.0000E+00 zmoment=   0.0000E+00
 nd#     404  xforce=   0.0000E+00   yforce=   0.0000E+00  zforce=  -2.3998E+02   energy=   4.8573E-03   setid =     404 xmoment=   0.0000E+00 ymoment=   0.0000E+00 zmoment=   0.0000E+00
 nd#     405  xforce=   0.0000E+00   yforce=   0.0000E+00  zforce=  -1.5689E+02   energy=   3.2008E-03   setid =     405 xmoment=   0.0000E+00 ymoment=   0.0000E+00 zmoment=   0.0000E+00
 nd#     418  xforce=   0.0000E+00   yforce=   0.0000E+00  zforce=  -1.3305E+02   energy=   3.0655E-03   setid =     418 xmoment=   0.0000E+00 ymoment=   0.0000E+00 zmoment=   0.0000E+00
 nd#     438  xforce=   0.0000E+00   yforce=   0.0000E+00  zforce=   8.1319E+00   energy=  -4.7386E-05   setid =     438 xmoment=   0.0000E+00 ymoment=   0.0000E+00 zmoment=   0.0000E+00
 nd#     439  xforce=   0.0000E+00   yforce=   0.0000E+00  zforce=  -2.8448E+01   energy=   1.0256E-03   setid =     439 xmoment=   0.0000E+00 ymoment=   0.0000E+00 zmoment=   0.0000E+00
 nd#     440  xforce=   0.0000E+00   yforce=   0.0000E+00  zforce=  -3.4475E+01   energy=   1.0854E-03   setid =     440 xmoment=   0.0000E+00 ymoment=   0.0000E+00 zmoment=   0.0000E+00
 nd#     441  xforce=   0.0000E+00   yforce=   0.0000E+00  zforce=  -3.7944E+01   energy=   1.0952E-03   setid =     441 xmoment=   0.0000E+00 ymoment=   0.0000E+00 zmoment=   0.0000E+00
 nd#     442  xforce=   0.0000E+00   yforce=   0.0000E+00  zforce=  -4.1085E+01   energy=   1.1447E-03   setid =     442 xmoment=   0.0000E+00 ymoment=   0.0000E+00 zmoment=   0.0000E+00
 nd#     443  xforce=   0.0000E+00   yforce=   0.0000E+00  zforce=  -4.4892E+01   energy=   1.2068E-03   setid =     443 xmoment=   0.0000E+00 ymoment=   0.0000E+00 zmoment=   0.0000E+00
 nd#     444  xforce=   0.0000E+00   yforce=   0.0000E+00  zforce=  -5.0400E+01   energy=   1.3461E-03   setid =     444 xmoment=   0.0000E+00 ymoment=   0.0000E+00 zmoment=   0.0000E+00
 nd#     591  xforce=   0.0000E+00   yforce=   0.0000E+00  zforce=  -3.4294E+01   energy=   1.4024E-03   setid =     591 xmoment=   0.0000E+00 ymoment=   0.0000E+00 zmoment=   0.0000E+00
 nd#     592  xforce=   0.0000E+00   yforce=   0.0000E+00  zforce=  -3.7769E+01   energy=   1.5039E-03   setid =     592 xmoment=   0.0000E+00 ymoment=   0.0000E+00 zmoment=   0.0000E+00
 nd#     595  xforce=   0.0000E+00   yforce=   0.0000E+00  zforce=  -6.8026E+01   energy=   2.0532E-03   setid =     595 xmoment=   0.0000E+00 ymoment=   0.0000E+00 zmoment=   0.0000E+00
 nd#     596  xforce=   0.0000E+00   yforce=   0.0000E+00  zforce=  -6.4438E+01   energy=   1.9955E-03   setid =     596 xmoment=   0.0000E+00 ymoment=   0.0000E+00 zmoment=   0.0000E+00
 nd#     599  xforce=   0.0000E+00   yforce=   0.0000E+00  zforce=  -5.7901E+01   energy=   1.7978E-03   setid =     599 xmoment=   0.0000E+00 ymoment=   0.0000E+00 zmoment=   0.0000E+00
 nd#     600  xforce=   0.0000E+00   yforce=   0.0000E+00  zforce=  -6.3884E+01   energy=   1.9475E-03   setid =     600 xmoment=   0.0000E+00 ymoment=   0.0000E+00 zmoment=   0.0000E+00
 nd#     603  xforce=   0.0000E+00   yforce=   0.0000E+00  zforce=  -4.3287E+01   energy=   1.1640E-03   setid =     603 xmoment=   0.0000E+00 ymoment=   0.0000E+00 zmoment=   0.0000E+00
 nd#     604  xforce=   0.0000E+00   yforce=   0.0000E+00  zforce=  -3.9797E+01   energy=   1.1357E-03   setid =     604 xmoment=   0.0000E+00 ymoment=   0.0000E+00 zmoment=   0.0000E+00
 nd#     638  xforce=   0.0000E+00   yforce=   0.0000E+00  zforce=  -4.7660E+01   energy=   1.7910E-03   setid =     638 xmoment=   0.0000E+00 ymoment=   0.0000E+00 zmoment=   0.0000E+00
 nd#     639  xforce=   0.0000E+00   yforce=   0.0000E+00  zforce=  -3.9658E+01   energy=   1.7148E-03   setid =     639 xmoment=   0.0000E+00 ymoment=   0.0000E+00 zmoment=   0.0000E+00
 nd#     641  xforce=   0.0000E+00   yforce=   0.0000E+00  zforce=  -6.1841E+01   energy=   2.0636E-03   setid =     641 xmoment=   0.0000E+00 ymoment=   0.0000E+00 zmoment=   0.0000E+00
 nd#     642  xforce=   0.0000E+00   yforce=   0.0000E+00  zforce=  -6.2069E+01   energy=   2.0718E-03   setid =     642 xmoment=   0.0000E+00 ymoment=   0.0000E+00 zmoment=   0.0000E+00
 nd#     644  xforce=   0.0000E+00   yforce=   0.0000E+00  zforce=  -7.1755E+01   energy=   2.2187E-03   setid =     644 xmoment=   0.0000E+00 ymoment=   0.0000E+00 zmoment=   0.0000E+00
 nd#     645  xforce=   0.0000E+00   yforce=   0.0000E+00  zforce=  -7.3839E+01   energy=   2.2793E-03   setid =     645 xmoment=   0.0000E+00 ymoment=   0.0000E+00 zmoment=   0.0000E+00
 nd#     647  xforce=   0.0000E+00   yforce=   0.0000E+00  zforce=  -3.2794E+01   energy=   1.0384E-03   setid =     647 xmoment=   0.0000E+00 ymoment=   0.0000E+00 zmoment=   0.0000E+00
 nd#     648  xforce=   0.0000E+00   yforce=   0.0000E+00  zforce=  -1.3466E+01   energy=   7.3073E-04   setid =     648 xmoment=   0.0000E+00 ymoment=   0.0000E+00 zmoment=   0.0000E+00
 nd#     674  xforce=   0.0000E+00   yforce=   0.0000E+00  zforce=  -3.2238E+01   energy=   1.3667E-03   setid =     674 xmoment=   0.0000E+00 ymoment=   0.0000E+00 zmoment=   0.0000E+00
 nd#     676  xforce=   0.0000E+00   yforce=   0.0000E+00  zforce=  -7.1209E+01   energy=   2.1009E-03   setid =     676 xmoment=   0.0000E+00 ymoment=   0.0000E+00 zmoment=   0.0000E+00
 nd#     678  xforce=   0.0000E+00   yforce=   0.0000E+00  zforce=  -5.0738E+01   energy=   1.6493E-03   setid =     678 xmoment=   0.0000E+00 ymoment=   0.0000E+00 zmoment=   0.0000E+00
 nd#     680  xforce=   0.0000E+00   yforce=   0.0000E+00  zforce=  -4.4010E+01   energy=   1.1851E-03   setid =     680 xmoment=   0.0000E+00 ymoment=   0.0000E+00 zmoment=   0.0000E+00
 nd#     821  xforce=   0.0000E+00   yforce=   0.0000E+00  zforce=  -4.3481E+01   energy=   1.6582E-03   setid =     821 xmoment=   0.0000E+00 ymoment=   0.0000E+00 zmoment=   0.0000E+00
 nd#     822  xforce=   0.0000E+00   yforce=   0.0000E+00  zforce=  -6.3170E+01   energy=   2.0774E-03   setid =     822 xmoment=   0.0000E+00 ymoment=   0.0000E+00 zmoment=   0.0000E+00
 nd#     823  xforce=   0.0000E+00   yforce=   0.0000E+00  zforce=  -6.8475E+01   energy=   2.1227E-03   setid =     823 xmoment=   0.0000E+00 ymoment=   0.0000E+00 zmoment=   0.0000E+00
 nd#     824  xforce=   0.0000E+00   yforce=   0.0000E+00  zforce=  -3.8298E+01   energy=   1.1273E-03   setid =     824 xmoment=   0.0000E+00 ymoment=   0.0000E+00 zmoment=   0.0000E+00
 nd#     850  xforce=   0.0000E+00   yforce=   0.0000E+00  zforce=   3.6494E+01   energy=  -4.8505E-04   setid =     850 xmoment=   0.0000E+00 ymoment=   0.0000E+00 zmoment=   0.0000E+00
 nd#     852  xforce=   0.0000E+00   yforce=   0.0000E+00  zforce=   4.7270E+01   energy=  -6.8097E-04   setid =     852 xmoment=   0.0000E+00 ymoment=   0.0000E+00 zmoment=   0.0000E+00
 nd#     854  xforce=   0.0000E+00   yforce=   0.0000E+00  zforce=   6.0660E+01   energy=  -8.7798E-04   setid =     854 xmoment=   0.0000E+00 ymoment=   0.0000E+00 zmoment=   0.0000E+00
 nd#     856  xforce=   0.0000E+00   yforce=   0.0000E+00  zforce=   6.3156E+01   energy=  -1.0231E-03   setid =     856 xmoment=   0.0000E+00 ymoment=   0.0000E+00 zmoment=   0.0000E+00
              xtotal=   0.0000E+00   ytotal=   0.0000E+00  ztotal=  -2.4549E+03   etotal=   7.9642E-02

 n o d a l   f o r c e/e n e r g y    o u t p u t  t=   3.38229E+00

 velocity boundary condition forces/rigid body moments 

 nd#     220  xforce=   0.0000E+00   yforce=   0.0000E+00  zforce=  -1.1727E+02   energy=   4.6615E-03   setid =     220 xmoment=   0.0000E+00 ymoment=   0.0000E+00 zmoment=   0.0000E+00
 nd#     221  xforce=   0.0000E+00   yforce=   0.0000E+00  zforce=  -7.1902E+01   energy=   3.6267E-03   setid =     221 xmoment=   0.0000E+00 ymoment=   0.0000E+00 zmoment=   0.0000E+00
 nd#     222  xforce=   0.0000E+00   yforce=   0.0000E+00  zforce=  -6.5856E+01   energy=   3.2653E-03   setid =     222 xmoment=   0.0000E+00 ymoment=   0.0000E+00 zmoment=   0.0000E+00
 nd#     223  xforce=   0.0000E+00   yforce=   0.0000E+00  zforce=  -7.7911E+01   energy=   3.2600E-03   setid =     223 xmoment=   0.0000E+00 ymoment=   0.0000E+00 zmoment=   0.0000E+00
 nd#     248  xforce=   0.0000E+00   yforce=   0.0000E+00  zforce=  -5.3144E+01   energy=   2.6243E-03   setid =     248 xmoment=   0.0000E+00 ymoment=   0.0000E+00 zmoment=   0.0000E+00
 nd#     249  xforce=   0.0000E+00   yforce=   0.0000E+00  zforce=  -4.6201E+01   energy=   2.0706E-03   setid =     249 xmoment=   0.0000E+00 ymoment=   0.0000E+00 zmoment=   0.0000E+00
 nd#     286  xforce=   0.0000E+00   yforce=   0.0000E+00  zforce=   2.7526E+02   energy=  -8.6303E-03   setid =     286 xmoment=   0.0000E+00 ymoment=   0.0000E+00 zmoment=   0.0000E+00
 nd#     287  xforce=   0.0000E+00   yforce=   0.0000E+00  zforce=  -6.8332E+01   energy=   3.3156E-03   setid =     287 xmoment=   0.0000E+00 ymoment=   0.0000E+00 zmoment=   0.0000E+00
 nd#     288  xforce=   0.0000E+00   yforce=   0.0000E+00  zforce=   7.9051E+01   energy=  -2.3765E-03   setid =     288 xmoment=   0.0000E+00 ymoment=   0.0000E+00 zmoment=   0.0000E+00
 nd#     301  xforce=   0.0000E+00   yforce=   0.0000E+00  zforce=  -1.6682E+02   energy=   7.2325E-03   setid =     301 xmoment=   0.0000E+00 ymoment=   0.0000E+00 zmoment=   0.0000E+00
 nd#     314  xforce=   0.0000E+00   yforce=   0.0000E+00  zforce=  -7.2034E+01   energy=   3.3879E-03   setid =     314 xmoment=   0.0000E+00 ymoment=   0.0000E+00 zmoment=   0.0000E+00
 nd#     363  xforce=   0.0000E+00   yforce=   0.0000E+00  zforce=   2.3866E+00   energy=   7.3805E-04   setid =     363 xmoment=   0.0000E+00 ymoment=   0.0000E+00 zmoment=   0.0000E+00
 nd#     364  xforce=   0.0000E+00   yforce=   0.0000E+00  zforce=  -3.4068E+01   energy=   2.4053E-03   setid =     364 xmoment=   0.0000E+00 ymoment=   0.0000E+00 zmoment=   0.0000E+00
 nd#     365  xforce=   0.0000E+00   yforce=   0.0000E+00  zforce=  -1.8609E+02   energy=   7.3197E-03   setid =     365 xmoment=   0.0000E+00 ymoment=   0.0000E+00 zmoment=   0.0000E+00
 nd#     366  xforce=   0.0000E+00   yforce=   0.0000E+00  zforce=  -7.2783E+01   energy=   3.0406E-03   setid =     366 xmoment=   0.0000E+00 ymoment=   0.0000E+00 zmoment=   0.0000E+00
 nd#     379  xforce=   0.0000E+00   yforce=   0.0000E+00  zforce=  -3.0439E+01   energy=   1.3933E-03   setid =     379 xmoment=   0.0000E+00 ymoment=   0.0000E+00 zmoment=   0.0000E+00
 nd#     404  xforce=   0.0000E+00   yforce=   0.0000E+00  zforce=  -2.6058E+02   energy=   9.4821E-03   setid =     404 xmoment=   0.0000E+00 ymoment=   0.0000E+00 zmoment=   0.0000E+00
 nd#     405  xforce=   0.0000E+00   yforce=   0.0000E+00  zforce=  -1.6694E+02   energy=   6.1928E-03   setid =     405 xmoment=   0.0000E+00 ymoment=   0.0000E+00 zmoment=   0.0000E+00
 nd#     418  xforce=   0.0000E+00   yforce=   0.0000E+00  zforce=  -1.4078E+02   energy=   5.5955E-03   setid =     418 xmoment=   0.0000E+00 ymoment=   0.0000E+00 zmoment=   0.0000E+00
 nd#     438  xforce=   0.0000E+00   yforce=   0.0000E+00  zforce=   7.3480E+00   energy=  -1.9041E-04   setid =     438 xmoment=   0.0000E+00 ymoment=   0.0000E+00 zmoment=   0.0000E+00
 nd#     439  xforce=   0.0000E+00   yforce=   0.0000E+00  zforce=  -3.0764E+01   energy=   1.5727E-03   setid =     439 xmoment=   0.0000E+00 ymoment=   0.0000E+00 zmoment=   0.0000E+00
 nd#     440  xforce=   0.0000E+00   yforce=   0.0000E+00  zforce=  -3.7652E+01   energy=   1.7518E-03   setid =     440 xmoment=   0.0000E+00 ymoment=   0.0000E+00 zmoment=   0.0000E+00
 nd#     441  xforce=   0.0000E+00   yforce=   0.0000E+00  zforce=  -4.1077E+01   energy=   1.8253E-03   setid =     441 xmoment=   0.0000E+00 ymoment=   0.0000E+00 zmoment=   0.0000E+00
 nd#     442  xforce=   0.0000E+00   yforce=   0.0000E+00  zforce=  -4.4739E+01   energy=   1.9377E-03   setid =     442 xmoment=   0.0000E+00 ymoment=   0.0000E+00 zmoment=   0.0000E+00
 nd#     443  xforce=   0.0000E+00   yforce=   0.0000E+00  zforce=  -4.9229E+01   energy=   2.0764E-03   setid =     443 xmoment=   0.0000E+00 ymoment=   0.0000E+00 zmoment=   0.0000E+00
 nd#     444  xforce=   0.0000E+00   yforce=   0.0000E+00  zforce=  -5.3576E+01   energy=   2.3068E-03   setid =     444 xmoment=   0.0000E+00 ymoment=   0.0000E+00 zmoment=   0.0000E+00
 nd#     591  xforce=   0.0000E+00   yforce=   0.0000E+00  zforce=  -3.8257E+01   energy=   2.0727E-03   setid =     591 xmoment=   0.0000E+00 ymoment=   0.0000E+00 zmoment=   0.0000E+00
 nd#     592  xforce=   0.0000E+00   yforce=   0.0000E+00  zforce=  -4.1181E+01   energy=   2.2334E-03   setid =     592 xmoment=   0.0000E+00 ymoment=   0.0000E+00 zmoment=   0.0000E+00
 nd#     595  xforce=   0.0000E+00   yforce=   0.0000E+00  zforce=  -7.2938E+01   energy=   3.3556E-03   setid =     595 xmoment=   0.0000E+00 ymoment=   0.0000E+00 zmoment=   0.0000E+00
 nd#     596  xforce=   0.0000E+00   yforce=   0.0000E+00  zforce=  -6.9296E+01   energy=   3.2311E-03   setid =     596 xmoment=   0.0000E+00 ymoment=   0.0000E+00 zmoment=   0.0000E+00
 nd#     599  xforce=   0.0000E+00   yforce=   0.0000E+00  zforce=  -6.2432E+01   energy=   2.9096E-03   setid =     599 xmoment=   0.0000E+00 ymoment=   0.0000E+00 zmoment=   0.0000E+00
 nd#     600  xforce=   0.0000E+00   yforce=   0.0000E+00  zforce=  -6.8190E+01   energy=   3.1678E-03   setid =     600 xmoment=   0.0000E+00 ymoment=   0.0000E+00 zmoment=   0.0000E+00
 nd#     603  xforce=   0.0000E+00   yforce=   0.0000E+00  zforce=  -4.6680E+01   energy=   1.9952E-03   setid =     603 xmoment=   0.0000E+00 ymoment=   0.0000E+00 zmoment=   0.0000E+00
 nd#     604  xforce=   0.0000E+00   yforce=   0.0000E+00  zforce=  -4.2605E+01   energy=   1.8971E-03   setid =     604 xmoment=   0.0000E+00 ymoment=   0.0000E+00 zmoment=   0.0000E+00
 nd#     638  xforce=   0.0000E+00   yforce=   0.0000E+00  zforce=  -5.0704E+01   energy=   2.6998E-03   setid =     638 xmoment=   0.0000E+00 ymoment=   0.0000E+00 zmoment=   0.0000E+00
 nd#     639  xforce=   0.0000E+00   yforce=   0.0000E+00  zforce=  -4.1601E+01   energy=   2.4656E-03   setid =     639 xmoment=   0.0000E+00 ymoment=   0.0000E+00 zmoment=   0.0000E+00
 nd#     641  xforce=   0.0000E+00   yforce=   0.0000E+00  zforce=  -6.5813E+01   energy=   3.2430E-03   setid =     641 xmoment=   0.0000E+00 ymoment=   0.0000E+00 zmoment=   0.0000E+00
 nd#     642  xforce=   0.0000E+00   yforce=   0.0000E+00  zforce=  -6.4306E+01   energy=   3.2394E-03   setid =     642 xmoment=   0.0000E+00 ymoment=   0.0000E+00 zmoment=   0.0000E+00
 nd#     644  xforce=   0.0000E+00   yforce=   0.0000E+00  zforce=  -7.5252E+01   energy=   3.5769E-03   setid =     644 xmoment=   0.0000E+00 ymoment=   0.0000E+00 zmoment=   0.0000E+00
 nd#     645  xforce=   0.0000E+00   yforce=   0.0000E+00  zforce=  -7.7639E+01   energy=   3.6789E-03   setid =     645 xmoment=   0.0000E+00 ymoment=   0.0000E+00 zmoment=   0.0000E+00
 nd#     647  xforce=   0.0000E+00   yforce=   0.0000E+00  zforce=  -3.4949E+01   energy=   1.6643E-03   setid =     647 xmoment=   0.0000E+00 ymoment=   0.0000E+00 zmoment=   0.0000E+00
 nd#     648  xforce=   0.0000E+00   yforce=   0.0000E+00  zforce=  -1.6102E+01   energy=   1.0039E-03   setid =     648 xmoment=   0.0000E+00 ymoment=   0.0000E+00 zmoment=   0.0000E+00
 nd#     674  xforce=   0.0000E+00   yforce=   0.0000E+00  zforce=  -3.6394E+01   energy=   2.0008E-03   setid =     674 xmoment=   0.0000E+00 ymoment=   0.0000E+00 zmoment=   0.0000E+00
 nd#     676  xforce=   0.0000E+00   yforce=   0.0000E+00  zforce=  -7.7134E+01   energy=   3.4715E-03   setid =     676 xmoment=   0.0000E+00 ymoment=   0.0000E+00 zmoment=   0.0000E+00
 nd#     678  xforce=   0.0000E+00   yforce=   0.0000E+00  zforce=  -5.5819E+01   energy=   2.6339E-03   setid =     678 xmoment=   0.0000E+00 ymoment=   0.0000E+00 zmoment=   0.0000E+00
 nd#     680  xforce=   0.0000E+00   yforce=   0.0000E+00  zforce=  -4.8343E+01   energy=   2.0383E-03   setid =     680 xmoment=   0.0000E+00 ymoment=   0.0000E+00 zmoment=   0.0000E+00
 nd#     821  xforce=   0.0000E+00   yforce=   0.0000E+00  zforce=  -4.5848E+01   energy=   2.4835E-03   setid =     821 xmoment=   0.0000E+00 ymoment=   0.0000E+00 zmoment=   0.0000E+00
 nd#     822  xforce=   0.0000E+00   yforce=   0.0000E+00  zforce=  -6.7419E+01   energy=   3.2840E-03   setid =     822 xmoment=   0.0000E+00 ymoment=   0.0000E+00 zmoment=   0.0000E+00
 nd#     823  xforce=   0.0000E+00   yforce=   0.0000E+00  zforce=  -7.3230E+01   energy=   3.4319E-03   setid =     823 xmoment=   0.0000E+00 ymoment=   0.0000E+00 zmoment=   0.0000E+00
 nd#     824  xforce=   0.0000E+00   yforce=   0.0000E+00  zforce=  -4.1014E+01   energy=   1.8601E-03   setid =     824 xmoment=   0.0000E+00 ymoment=   0.0000E+00 zmoment=   0.0000E+00
 nd#     850  xforce=   0.0000E+00   yforce=   0.0000E+00  zforce=   3.7521E+01   energy=  -1.1689E-03   setid =     850 xmoment=   0.0000E+00 ymoment=   0.0000E+00 zmoment=   0.0000E+00
 nd#     852  xforce=   0.0000E+00   yforce=   0.0000E+00  zforce=   4.8145E+01   energy=  -1.5625E-03   setid =     852 xmoment=   0.0000E+00 ymoment=   0.0000E+00 zmoment=   0.0000E+00
 nd#     854  xforce=   0.0000E+00   yforce=   0.0000E+00  zforce=   6.8176E+01   energy=  -2.0683E-03   setid =     854 xmoment=   0.0000E+00 ymoment=   0.0000E+00 zmoment=   0.0000E+00
 nd#     856  xforce=   0.0000E+00   yforce=   0.0000E+00  zforce=   6.3804E+01   energy=  -2.1961E-03   setid =     856 xmoment=   0.0000E+00 ymoment=   0.0000E+00 zmoment=   0.0000E+00
              xtotal=   0.0000E+00   ytotal=   0.0000E+00  ztotal=  -2.6196E+03   etotal=   1.2653E-01

 n o d a l   f o r c e/e n e r g y    o u t p u t  t=   4.84661E+00

 velocity boundary condition forces/rigid body moments 

 nd#     220  xforce=   0.0000E+00   yforce=   0.0000E+00  zforce=  -1.2418E+02   energy=   8.1971E-03   setid =     220 xmoment=   0.0000E+00 ymoment=   0.0000E+00 zmoment=   0.0000E+00
 nd#     221  xforce=   0.0000E+00   yforce=   0.0000E+00  zforce=  -7.5837E+01   energy=   5.7900E-03   setid =     221 xmoment=   0.0000E+00 ymoment=   0.0000E+00 zmoment=   0.0000E+00
 nd#     222  xforce=   0.0000E+00   yforce=   0.0000E+00  zforce=  -6.6227E+01   energy=   5.1994E-03   setid =     222 xmoment=   0.0000E+00 ymoment=   0.0000E+00 zmoment=   0.0000E+00
 nd#     223  xforce=   0.0000E+00   yforce=   0.0000E+00  zforce=  -8.0332E+01   energy=   5.5772E-03   setid =     223 xmoment=   0.0000E+00 ymoment=   0.0000E+00 zmoment=   0.0000E+00
 nd#     248  xforce=   0.0000E+00   yforce=   0.0000E+00  zforce=  -5.4954E+01   energy=   4.2072E-03   setid =     248 xmoment=   0.0000E+00 ymoment=   0.0000E+00 zmoment=   0.0000E+00
 nd#     249  xforce=   0.0000E+00   yforce=   0.0000E+00  zforce=  -4.9834E+01   energy=   3.4768E-03   setid =     249 xmoment=   0.0000E+00 ymoment=   0.0000E+00 zmoment=   0.0000E+00
 nd#     286  xforce=   0.0000E+00   yforce=   0.0000E+00  zforce=   3.1088E+02   energy=  -1.7213E-02   setid =     286 xmoment=   0.0000E+00 ymoment=   0.0000E+00 zmoment=   0.0000E+00
 nd#     287  xforce=   0.0000E+00   yforce=   0.0000E+00  zforce=  -6.8463E+01   energy=   5.3187E-03   setid =     287 xmoment=   0.0000E+00 ymoment=   0.0000E+00 zmoment=   0.0000E+00
 nd#     288  xforce=   0.0000E+00   yforce=   0.0000E+00  zforce=   8.4287E+01   energy=  -4.7683E-03   setid =     288 xmoment=   0.0000E+00 ymoment=   0.0000E+00 zmoment=   0.0000E+00
 nd#     301  xforce=   0.0000E+00   yforce=   0.0000E+00  zforce=  -1.8085E+02   energy=   1.2323E-02   setid =     301 xmoment=   0.0000E+00 ymoment=   0.0000E+00 zmoment=   0.0000E+00
 nd#     314  xforce=   0.0000E+00   yforce=   0.0000E+00  zforce=  -8.1189E+01   energy=   5.6316E-03   setid =     314 xmoment=   0.0000E+00 ymoment=   0.0000E+00 zmoment=   0.0000E+00
 nd#     363  xforce=   0.0000E+00   yforce=   0.0000E+00  zforce=   5.6791E+00   energy=   6.1994E-04   setid =     363 xmoment=   0.0000E+00 ymoment=   0.0000E+00 zmoment=   0.0000E+00
 nd#     364  xforce=   0.0000E+00   yforce=   0.0000E+00  zforce=  -2.8197E+01   energy=   3.3170E-03   setid =     364 xmoment=   0.0000E+00 ymoment=   0.0000E+00 zmoment=   0.0000E+00
 nd#     365  xforce=   0.0000E+00   yforce=   0.0000E+00  zforce=  -2.0024E+02   energy=   1.2977E-02   setid =     365 xmoment=   0.0000E+00 ymoment=   0.0000E+00 zmoment=   0.0000E+00
 nd#     366  xforce=   0.0000E+00   yforce=   0.0000E+00  zforce=  -7.6585E+01   energy=   5.2278E-03   setid =     366 xmoment=   0.0000E+00 ymoment=   0.0000E+00 zmoment=   0.0000E+00
 nd#     379  xforce=   0.0000E+00   yforce=   0.0000E+00  zforce=  -3.1645E+01   energy=   2.3024E-03   setid =     379 xmoment=   0.0000E+00 ymoment=   0.0000E+00 zmoment=   0.0000E+00
 nd#     404  xforce=   0.0000E+00   yforce=   0.0000E+00  zforce=  -2.8873E+02   energy=   1.7526E-02   setid =     404 xmoment=   0.0000E+00 ymoment=   0.0000E+00 zmoment=   0.0000E+00
 nd#     405  xforce=   0.0000E+00   yforce=   0.0000E+00  zforce=  -1.8026E+02   energy=   1.1277E-02   setid =     405 xmoment=   0.0000E+00 ymoment=   0.0000E+00 zmoment=   0.0000E+00
 nd#     418  xforce=   0.0000E+00   yforce=   0.0000E+00  zforce=  -1.5244E+02   energy=   9.8892E-03   setid =     418 xmoment=   0.0000E+00 ymoment=   0.0000E+00 zmoment=   0.0000E+00
 nd#     438  xforce=   0.0000E+00   yforce=   0.0000E+00  zforce=   7.6972E+00   energy=  -4.1072E-04   setid =     438 xmoment=   0.0000E+00 ymoment=   0.0000E+00 zmoment=   0.0000E+00
 nd#     439  xforce=   0.0000E+00   yforce=   0.0000E+00  zforce=  -3.2393E+01   energy=   2.4975E-03   setid =     439 xmoment=   0.0000E+00 ymoment=   0.0000E+00 zmoment=   0.0000E+00
 nd#     440  xforce=   0.0000E+00   yforce=   0.0000E+00  zforce=  -4.0370E+01   energy=   2.8943E-03   setid =     440 xmoment=   0.0000E+00 ymoment=   0.0000E+00 zmoment=   0.0000E+00
 nd#     441  xforce=   0.0000E+00   yforce=   0.0000E+00  zforce=  -4.3594E+01   energy=   3.0651E-03   setid =     441 xmoment=   0.0000E+00 ymoment=   0.0000E+00 zmoment=   0.0000E+00
 nd#     442  xforce=   0.0000E+00   yforce=   0.0000E+00  zforce=  -4.8726E+01   energy=   3.3063E-03   setid =     442 xmoment=   0.0000E+00 ymoment=   0.0000E+00 zmoment=   0.0000E+00
 nd#     443  xforce=   0.0000E+00   yforce=   0.0000E+00  zforce=  -5.3248E+01   energy=   3.5770E-03   setid =     443 xmoment=   0.0000E+00 ymoment=   0.0000E+00 zmoment=   0.0000E+00
 nd#     444  xforce=   0.0000E+00   yforce=   0.0000E+00  zforce=  -5.8321E+01   energy=   3.9453E-03   setid =     444 xmoment=   0.0000E+00 ymoment=   0.0000E+00 zmoment=   0.0000E+00
 nd#     591  xforce=   0.0000E+00   yforce=   0.0000E+00  zforce=  -4.3627E+01   energy=   3.2718E-03   setid =     591 xmoment=   0.0000E+00 ymoment=   0.0000E+00 zmoment=   0.0000E+00
 nd#     592  xforce=   0.0000E+00   yforce=   0.0000E+00  zforce=  -4.5213E+01   energy=   3.4984E-03   setid =     592 xmoment=   0.0000E+00 ymoment=   0.0000E+00 zmoment=   0.0000E+00
 nd#     595  xforce=   0.0000E+00   yforce=   0.0000E+00  zforce=  -7.9832E+01   energy=   5.5926E-03   setid =     595 xmoment=   0.0000E+00 ymoment=   0.0000E+00 zmoment=   0.0000E+00
 nd#     596  xforce=   0.0000E+00   yforce=   0.0000E+00  zforce=  -7.4963E+01   energy=   5.3435E-03   setid =     596 xmoment=   0.0000E+00 ymoment=   0.0000E+00 zmoment=   0.0000E+00
 nd#     599  xforce=   0.0000E+00   yforce=   0.0000E+00  zforce=  -6.6232E+01   energy=   4.7936E-03   setid =     599 xmoment=   0.0000E+00 ymoment=   0.0000E+00 zmoment=   0.0000E+00
 nd#     600  xforce=   0.0000E+00   yforce=   0.0000E+00  zforce=  -7.2723E+01   energy=   5.2312E-03   setid =     600 xmoment=   0.0000E+00 ymoment=   0.0000E+00 zmoment=   0.0000E+00
 nd#     603  xforce=   0.0000E+00   yforce=   0.0000E+00  zforce=  -4.8963E+01   energy=   3.3957E-03   setid =     603 xmoment=   0.0000E+00 ymoment=   0.0000E+00 zmoment=   0.0000E+00
 nd#     604  xforce=   0.0000E+00   yforce=   0.0000E+00  zforce=  -4.5235E+01   energy=   3.1833E-03   setid =     604 xmoment=   0.0000E+00 ymoment=   0.0000E+00 zmoment=   0.0000E+00
 nd#     638  xforce=   0.0000E+00   yforce=   0.0000E+00  zforce=  -5.3514E+01   energy=   4.2259E-03   setid =     638 xmoment=   0.0000E+00 ymoment=   0.0000E+00 zmoment=   0.0000E+00
 nd#     639  xforce=   0.0000E+00   yforce=   0.0000E+00  zforce=  -4.2598E+01   energy=   3.6985E-03   setid =     639 xmoment=   0.0000E+00 ymoment=   0.0000E+00 zmoment=   0.0000E+00
 nd#     641  xforce=   0.0000E+00   yforce=   0.0000E+00  zforce=  -7.0301E+01   energy=   5.2361E-03   setid =     641 xmoment=   0.0000E+00 ymoment=   0.0000E+00 zmoment=   0.0000E+00
 nd#     642  xforce=   0.0000E+00   yforce=   0.0000E+00  zforce=  -6.6035E+01   energy=   5.1480E-03   setid =     642 xmoment=   0.0000E+00 ymoment=   0.0000E+00 zmoment=   0.0000E+00
 nd#     644  xforce=   0.0000E+00   yforce=   0.0000E+00  zforce=  -7.9511E+01   energy=   5.8431E-03   setid =     644 xmoment=   0.0000E+00 ymoment=   0.0000E+00 zmoment=   0.0000E+00
 nd#     645  xforce=   0.0000E+00   yforce=   0.0000E+00  zforce=  -8.0872E+01   energy=   6.0000E-03   setid =     645 xmoment=   0.0000E+00 ymoment=   0.0000E+00 zmoment=   0.0000E+00
 nd#     647  xforce=   0.0000E+00   yforce=   0.0000E+00  zforce=  -3.6076E+01   energy=   2.7044E-03   setid =     647 xmoment=   0.0000E+00 ymoment=   0.0000E+00 zmoment=   0.0000E+00
 nd#     648  xforce=   0.0000E+00   yforce=   0.0000E+00  zforce=  -1.6719E+01   energy=   1.4845E-03   setid =     648 xmoment=   0.0000E+00 ymoment=   0.0000E+00 zmoment=   0.0000E+00
 nd#     674  xforce=   0.0000E+00   yforce=   0.0000E+00  zforce=  -4.1799E+01   energy=   3.1458E-03   setid =     674 xmoment=   0.0000E+00 ymoment=   0.0000E+00 zmoment=   0.0000E+00
 nd#     676  xforce=   0.0000E+00   yforce=   0.0000E+00  zforce=  -8.6892E+01   energy=   5.8734E-03   setid =     676 xmoment=   0.0000E+00 ymoment=   0.0000E+00 zmoment=   0.0000E+00
 nd#     678  xforce=   0.0000E+00   yforce=   0.0000E+00  zforce=  -5.9089E+01   energy=   4.3165E-03   setid =     678 xmoment=   0.0000E+00 ymoment=   0.0000E+00 zmoment=   0.0000E+00
 nd#     680  xforce=   0.0000E+00   yforce=   0.0000E+00  zforce=  -5.2086E+01   energy=   3.5090E-03   setid =     680 xmoment=   0.0000E+00 ymoment=   0.0000E+00 zmoment=   0.0000E+00
 nd#     821  xforce=   0.0000E+00   yforce=   0.0000E+00  zforce=  -4.8301E+01   energy=   3.8622E-03   setid =     821 xmoment=   0.0000E+00 ymoment=   0.0000E+00 zmoment=   0.0000E+00
 nd#     822  xforce=   0.0000E+00   yforce=   0.0000E+00  zforce=  -7.2283E+01   energy=   5.3296E-03   setid =     822 xmoment=   0.0000E+00 ymoment=   0.0000E+00 zmoment=   0.0000E+00
 nd#     823  xforce=   0.0000E+00   yforce=   0.0000E+00  zforce=  -7.8048E+01   energy=   5.6471E-03   setid =     823 xmoment=   0.0000E+00 ymoment=   0.0000E+00 zmoment=   0.0000E+00
 nd#     824  xforce=   0.0000E+00   yforce=   0.0000E+00  zforce=  -4.2832E+01   energy=   3.0879E-03   setid =     824 xmoment=   0.0000E+00 ymoment=   0.0000E+00 zmoment=   0.0000E+00
 nd#     850  xforce=   0.0000E+00   yforce=   0.0000E+00  zforce=   4.0441E+01   energy=  -2.3105E-03   setid =     850 xmoment=   0.0000E+00 ymoment=   0.0000E+00 zmoment=   0.0000E+00
 nd#     852  xforce=   0.0000E+00   yforce=   0.0000E+00  zforce=   5.0393E+01   energy=  -3.0054E-03   setid =     852 xmoment=   0.0000E+00 ymoment=   0.0000E+00 zmoment=   0.0000E+00
 nd#     854  xforce=   0.0000E+00   yforce=   0.0000E+00  zforce=   7.5892E+01   energy=  -4.1780E-03   setid =     854 xmoment=   0.0000E+00 ymoment=   0.0000E+00 zmoment=   0.0000E+00
 nd#     856  xforce=   0.0000E+00   yforce=   0.0000E+00  zforce=   6.5294E+01   energy=  -4.0865E-03   setid =     856 xmoment=   0.0000E+00 ymoment=   0.0000E+00 zmoment=   0.0000E+00
              xtotal=   0.0000E+00   ytotal=   0.0000E+00  ztotal=  -2.7798E+03   etotal=   2.0559E-01

 n o d a l   f o r c e/e n e r g y    o u t p u t  t=   7.16740E+00

 velocity boundary condition forces/rigid body moments 

 nd#     220  xforce=   0.0000E+00   yforce=   0.0000E+00  zforce=  -1.2787E+02   energy=   1.4047E-02   setid =     220 xmoment=   0.0000E+00 ymoment=   0.0000E+00 zmoment=   0.0000E+00
 nd#     221  xforce=   0.0000E+00   yforce=   0.0000E+00  zforce=  -7.7007E+01   energy=   9.3372E-03   setid =     221 xmoment=   0.0000E+00 ymoment=   0.0000E+00 zmoment=   0.0000E+00
 nd#     222  xforce=   0.0000E+00   yforce=   0.0000E+00  zforce=  -6.8498E+01   energy=   8.3261E-03   setid =     222 xmoment=   0.0000E+00 ymoment=   0.0000E+00 zmoment=   0.0000E+00
 nd#     223  xforce=   0.0000E+00   yforce=   0.0000E+00  zforce=  -8.2603E+01   energy=   9.3586E-03   setid =     223 xmoment=   0.0000E+00 ymoment=   0.0000E+00 zmoment=   0.0000E+00
 nd#     248  xforce=   0.0000E+00   yforce=   0.0000E+00  zforce=  -5.9227E+01   energy=   6.8571E-03   setid =     248 xmoment=   0.0000E+00 ymoment=   0.0000E+00 zmoment=   0.0000E+00
 nd#     249  xforce=   0.0000E+00   yforce=   0.0000E+00  zforce=  -5.4127E+01   energy=   5.8895E-03   setid =     249 xmoment=   0.0000E+00 ymoment=   0.0000E+00 zmoment=   0.0000E+00
 nd#     286  xforce=   0.0000E+00   yforce=   0.0000E+00  zforce=   3.3404E+02   energy=  -3.2181E-02   setid =     286 xmoment=   0.0000E+00 ymoment=   0.0000E+00 zmoment=   0.0000E+00
 nd#     287  xforce=   0.0000E+00   yforce=   0.0000E+00  zforce=  -6.7390E+01   energy=   8.4716E-03   setid =     287 xmoment=   0.0000E+00 ymoment=   0.0000E+00 zmoment=   0.0000E+00
 nd#     288  xforce=   0.0000E+00   yforce=   0.0000E+00  zforce=   8.6270E+01   energy=  -8.7265E-03   setid =     288 xmoment=   0.0000E+00 ymoment=   0.0000E+00 zmoment=   0.0000E+00
 nd#     301  xforce=   0.0000E+00   yforce=   0.0000E+00  zforce=  -1.9518E+02   energy=   2.1050E-02   setid =     301 xmoment=   0.0000E+00 ymoment=   0.0000E+00 zmoment=   0.0000E+00
 nd#     314  xforce=   0.0000E+00   yforce=   0.0000E+00  zforce=  -8.9221E+01   energy=   9.5865E-03   setid =     314 xmoment=   0.0000E+00 ymoment=   0.0000E+00 zmoment=   0.0000E+00
 nd#     363  xforce=   0.0000E+00   yforce=   0.0000E+00  zforce=   4.2499E+00   energy=   3.8951E-04   setid =     363 xmoment=   0.0000E+00 ymoment=   0.0000E+00 zmoment=   0.0000E+00
 nd#     364  xforce=   0.0000E+00   yforce=   0.0000E+00  zforce=  -2.5939E+01   energy=   4.5734E-03   setid =     364 xmoment=   0.0000E+00 ymoment=   0.0000E+00 zmoment=   0.0000E+00
 nd#     365  xforce=   0.0000E+00   yforce=   0.0000E+00  zforce=  -2.1316E+02   energy=   2.2571E-02   setid =     365 xmoment=   0.0000E+00 ymoment=   0.0000E+00 zmoment=   0.0000E+00
 nd#     366  xforce=   0.0000E+00   yforce=   0.0000E+00  zforce=  -8.1522E+01   energy=   8.8971E-03   setid =     366 xmoment=   0.0000E+00 ymoment=   0.0000E+00 zmoment=   0.0000E+00
 nd#     379  xforce=   0.0000E+00   yforce=   0.0000E+00  zforce=  -3.8048E+01   energy=   3.9199E-03   setid =     379 xmoment=   0.0000E+00 ymoment=   0.0000E+00 zmoment=   0.0000E+00
 nd#     404  xforce=   0.0000E+00   yforce=   0.0000E+00  zforce=  -3.1340E+02   energy=   3.1500E-02   setid =     404 xmoment=   0.0000E+00 ymoment=   0.0000E+00 zmoment=   0.0000E+00
 nd#     405  xforce=   0.0000E+00   yforce=   0.0000E+00  zforce=  -1.9452E+02   energy=   1.9975E-02   setid =     405 xmoment=   0.0000E+00 ymoment=   0.0000E+00 zmoment=   0.0000E+00
 nd#     418  xforce=   0.0000E+00   yforce=   0.0000E+00  zforce=  -1.8555E+02   energy=   1.7733E-02   setid =     418 xmoment=   0.0000E+00 ymoment=   0.0000E+00 zmoment=   0.0000E+00
 nd#     438  xforce=   0.0000E+00   yforce=   0.0000E+00  zforce=   7.8667E+00   energy=  -7.7193E-04   setid =     438 xmoment=   0.0000E+00 ymoment=   0.0000E+00 zmoment=   0.0000E+00
 nd#     439  xforce=   0.0000E+00   yforce=   0.0000E+00  zforce=  -3.4041E+01   energy=   4.0393E-03   setid =     439 xmoment=   0.0000E+00 ymoment=   0.0000E+00 zmoment=   0.0000E+00
 nd#     440  xforce=   0.0000E+00   yforce=   0.0000E+00  zforce=  -4.2948E+01   energy=   4.8279E-03   setid =     440 xmoment=   0.0000E+00 ymoment=   0.0000E+00 zmoment=   0.0000E+00
 nd#     441  xforce=   0.0000E+00   yforce=   0.0000E+00  zforce=  -4.6310E+01   energy=   5.1516E-03   setid =     441 xmoment=   0.0000E+00 ymoment=   0.0000E+00 zmoment=   0.0000E+00
 nd#     442  xforce=   0.0000E+00   yforce=   0.0000E+00  zforce=  -5.2281E+01   energy=   5.6505E-03   setid =     442 xmoment=   0.0000E+00 ymoment=   0.0000E+00 zmoment=   0.0000E+00
 nd#     443  xforce=   0.0000E+00   yforce=   0.0000E+00  zforce=  -5.7414E+01   energy=   6.1452E-03   setid =     443 xmoment=   0.0000E+00 ymoment=   0.0000E+00 zmoment=   0.0000E+00
 nd#     444  xforce=   0.0000E+00   yforce=   0.0000E+00  zforce=  -6.3024E+01   energy=   6.7614E-03   setid =     444 xmoment=   0.0000E+00 ymoment=   0.0000E+00 zmoment=   0.0000E+00
 nd#     591  xforce=   0.0000E+00   yforce=   0.0000E+00  zforce=  -5.1604E+01   energy=   5.4819E-03   setid =     591 xmoment=   0.0000E+00 ymoment=   0.0000E+00 zmoment=   0.0000E+00
 nd#     592  xforce=   0.0000E+00   yforce=   0.0000E+00  zforce=  -5.1493E+01   energy=   5.7428E-03   setid =     592 xmoment=   0.0000E+00 ymoment=   0.0000E+00 zmoment=   0.0000E+00
 nd#     595  xforce=   0.0000E+00   yforce=   0.0000E+00  zforce=  -8.6793E+01   energy=   9.4596E-03   setid =     595 xmoment=   0.0000E+00 ymoment=   0.0000E+00 zmoment=   0.0000E+00
 nd#     596  xforce=   0.0000E+00   yforce=   0.0000E+00  zforce=  -8.1423E+01   energy=   8.9729E-03   setid =     596 xmoment=   0.0000E+00 ymoment=   0.0000E+00 zmoment=   0.0000E+00
 nd#     599  xforce=   0.0000E+00   yforce=   0.0000E+00  zforce=  -6.9282E+01   energy=   7.9386E-03   setid =     599 xmoment=   0.0000E+00 ymoment=   0.0000E+00 zmoment=   0.0000E+00
 nd#     600  xforce=   0.0000E+00   yforce=   0.0000E+00  zforce=  -7.7118E+01   energy=   8.7087E-03   setid =     600 xmoment=   0.0000E+00 ymoment=   0.0000E+00 zmoment=   0.0000E+00
 nd#     603  xforce=   0.0000E+00   yforce=   0.0000E+00  zforce=  -5.0162E+01   energy=   5.6962E-03   setid =     603 xmoment=   0.0000E+00 ymoment=   0.0000E+00 zmoment=   0.0000E+00
 nd#     604  xforce=   0.0000E+00   yforce=   0.0000E+00  zforce=  -4.8206E+01   energy=   5.3519E-03   setid =     604 xmoment=   0.0000E+00 ymoment=   0.0000E+00 zmoment=   0.0000E+00
 nd#     638  xforce=   0.0000E+00   yforce=   0.0000E+00  zforce=  -5.8286E+01   energy=   6.8205E-03   setid =     638 xmoment=   0.0000E+00 ymoment=   0.0000E+00 zmoment=   0.0000E+00
 nd#     639  xforce=   0.0000E+00   yforce=   0.0000E+00  zforce=  -4.4888E+01   energy=   5.7289E-03   setid =     639 xmoment=   0.0000E+00 ymoment=   0.0000E+00 zmoment=   0.0000E+00
 nd#     641  xforce=   0.0000E+00   yforce=   0.0000E+00  zforce=  -7.6499E+01   energy=   8.6431E-03   setid =     641 xmoment=   0.0000E+00 ymoment=   0.0000E+00 zmoment=   0.0000E+00
 nd#     642  xforce=   0.0000E+00   yforce=   0.0000E+00  zforce=  -6.8084E+01   energy=   8.2606E-03   setid =     642 xmoment=   0.0000E+00 ymoment=   0.0000E+00 zmoment=   0.0000E+00
 nd#     644  xforce=   0.0000E+00   yforce=   0.0000E+00  zforce=  -8.7660E+01   energy=   9.7228E-03   setid =     644 xmoment=   0.0000E+00 ymoment=   0.0000E+00 zmoment=   0.0000E+00
 nd#     645  xforce=   0.0000E+00   yforce=   0.0000E+00  zforce=  -8.5106E+01   energy=   9.8520E-03   setid =     645 xmoment=   0.0000E+00 ymoment=   0.0000E+00 zmoment=   0.0000E+00
 nd#     647  xforce=   0.0000E+00   yforce=   0.0000E+00  zforce=  -3.7352E+01   energy=   4.4085E-03   setid =     647 xmoment=   0.0000E+00 ymoment=   0.0000E+00 zmoment=   0.0000E+00
 nd#     648  xforce=   0.0000E+00   yforce=   0.0000E+00  zforce=  -1.7272E+01   energy=   2.2734E-03   setid =     648 xmoment=   0.0000E+00 ymoment=   0.0000E+00 zmoment=   0.0000E+00
 nd#     674  xforce=   0.0000E+00   yforce=   0.0000E+00  zforce=  -4.8904E+01   energy=   5.2508E-03   setid =     674 xmoment=   0.0000E+00 ymoment=   0.0000E+00 zmoment=   0.0000E+00
 nd#     676  xforce=   0.0000E+00   yforce=   0.0000E+00  zforce=  -9.7671E+01   energy=   1.0157E-02   setid =     676 xmoment=   0.0000E+00 ymoment=   0.0000E+00 zmoment=   0.0000E+00
 nd#     678  xforce=   0.0000E+00   yforce=   0.0000E+00  zforce=  -6.5015E+01   energy=   7.1967E-03   setid =     678 xmoment=   0.0000E+00 ymoment=   0.0000E+00 zmoment=   0.0000E+00
 nd#     680  xforce=   0.0000E+00   yforce=   0.0000E+00  zforce=  -5.6843E+01   energy=   6.0370E-03   setid =     680 xmoment=   0.0000E+00 ymoment=   0.0000E+00 zmoment=   0.0000E+00
 nd#     821  xforce=   0.0000E+00   yforce=   0.0000E+00  zforce=  -5.3317E+01   energy=   6.2205E-03   setid =     821 xmoment=   0.0000E+00 ymoment=   0.0000E+00 zmoment=   0.0000E+00
 nd#     822  xforce=   0.0000E+00   yforce=   0.0000E+00  zforce=  -7.8188E+01   energy=   8.8218E-03   setid =     822 xmoment=   0.0000E+00 ymoment=   0.0000E+00 zmoment=   0.0000E+00
 nd#     823  xforce=   0.0000E+00   yforce=   0.0000E+00  zforce=  -8.3235E+01   energy=   9.3902E-03   setid =     823 xmoment=   0.0000E+00 ymoment=   0.0000E+00 zmoment=   0.0000E+00
 nd#     824  xforce=   0.0000E+00   yforce=   0.0000E+00  zforce=  -4.5309E+01   energy=   5.1335E-03   setid =     824 xmoment=   0.0000E+00 ymoment=   0.0000E+00 zmoment=   0.0000E+00
 nd#     850  xforce=   0.0000E+00   yforce=   0.0000E+00  zforce=   4.3570E+01   energy=  -4.2602E-03   setid =     850 xmoment=   0.0000E+00 ymoment=   0.0000E+00 zmoment=   0.0000E+00
 nd#     852  xforce=   0.0000E+00   yforce=   0.0000E+00  zforce=   5.3587E+01   energy=  -5.4186E-03   setid =     852 xmoment=   0.0000E+00 ymoment=   0.0000E+00 zmoment=   0.0000E+00
 nd#     854  xforce=   0.0000E+00   yforce=   0.0000E+00  zforce=   8.6042E+01   energy=  -7.9361E-03   setid =     854 xmoment=   0.0000E+00 ymoment=   0.0000E+00 zmoment=   0.0000E+00
 nd#     856  xforce=   0.0000E+00   yforce=   0.0000E+00  zforce=   6.7020E+01   energy=  -7.1573E-03   setid =     856 xmoment=   0.0000E+00 ymoment=   0.0000E+00 zmoment=   0.0000E+00
              xtotal=   0.0000E+00   ytotal=   0.0000E+00  ztotal=  -3.0064E+03   etotal=   3.3988E-01

 n o d a l   f o r c e/e n e r g y    o u t p u t  t=   1.08456E+01

 velocity boundary condition forces/rigid body moments 

 nd#     220  xforce=   0.0000E+00   yforce=   0.0000E+00  zforce=  -1.2316E+02   energy=   2.3280E-02   setid =     220 xmoment=   0.0000E+00 ymoment=   0.0000E+00 zmoment=   0.0000E+00
 nd#     221  xforce=   0.0000E+00   yforce=   0.0000E+00  zforce=  -8.9058E+01   energy=   1.5445E-02   setid =     221 xmoment=   0.0000E+00 ymoment=   0.0000E+00 zmoment=   0.0000E+00
 nd#     222  xforce=   0.0000E+00   yforce=   0.0000E+00  zforce=  -8.1675E+01   energy=   1.3850E-02   setid =     222 xmoment=   0.0000E+00 ymoment=   0.0000E+00 zmoment=   0.0000E+00
 nd#     223  xforce=   0.0000E+00   yforce=   0.0000E+00  zforce=  -8.0030E+01   energy=   1.5341E-02   setid =     223 xmoment=   0.0000E+00 ymoment=   0.0000E+00 zmoment=   0.0000E+00
 nd#     248  xforce=   0.0000E+00   yforce=   0.0000E+00  zforce=  -7.1387E+01   energy=   1.1661E-02   setid =     248 xmoment=   0.0000E+00 ymoment=   0.0000E+00 zmoment=   0.0000E+00
 nd#     249  xforce=   0.0000E+00   yforce=   0.0000E+00  zforce=  -5.7963E+01   energy=   1.0012E-02   setid =     249 xmoment=   0.0000E+00 ymoment=   0.0000E+00 zmoment=   0.0000E+00
 nd#     286  xforce=   0.0000E+00   yforce=   0.0000E+00  zforce=   3.4268E+02   energy=  -5.7072E-02   setid =     286 xmoment=   0.0000E+00 ymoment=   0.0000E+00 zmoment=   0.0000E+00
 nd#     287  xforce=   0.0000E+00   yforce=   0.0000E+00  zforce=  -7.9183E+01   energy=   1.3863E-02   setid =     287 xmoment=   0.0000E+00 ymoment=   0.0000E+00 zmoment=   0.0000E+00
 nd#     288  xforce=   0.0000E+00   yforce=   0.0000E+00  zforce=   9.9443E+01   energy=  -1.5557E-02   setid =     288 xmoment=   0.0000E+00 ymoment=   0.0000E+00 zmoment=   0.0000E+00
 nd#     301  xforce=   0.0000E+00   yforce=   0.0000E+00  zforce=  -2.1758E+02   energy=   3.6233E-02   setid =     301 xmoment=   0.0000E+00 ymoment=   0.0000E+00 zmoment=   0.0000E+00
 nd#     314  xforce=   0.0000E+00   yforce=   0.0000E+00  zforce=  -1.0472E+02   energy=   1.6720E-02   setid =     314 xmoment=   0.0000E+00 ymoment=   0.0000E+00 zmoment=   0.0000E+00
 nd#     363  xforce=   0.0000E+00   yforce=   0.0000E+00  zforce=  -8.7652E-01   energy=   2.6544E-04   setid =     363 xmoment=   0.0000E+00 ymoment=   0.0000E+00 zmoment=   0.0000E+00
 nd#     364  xforce=   0.0000E+00   yforce=   0.0000E+00  zforce=  -2.0956E+01   energy=   6.2983E-03   setid =     364 xmoment=   0.0000E+00 ymoment=   0.0000E+00 zmoment=   0.0000E+00
 nd#     365  xforce=   0.0000E+00   yforce=   0.0000E+00  zforce=  -2.2786E+02   energy=   3.8793E-02   setid =     365 xmoment=   0.0000E+00 ymoment=   0.0000E+00 zmoment=   0.0000E+00
 nd#     366  xforce=   0.0000E+00   yforce=   0.0000E+00  zforce=  -8.3382E+01   energy=   1.4963E-02   setid =     366 xmoment=   0.0000E+00 ymoment=   0.0000E+00 zmoment=   0.0000E+00
 nd#     379  xforce=   0.0000E+00   yforce=   0.0000E+00  zforce=  -3.6486E+01   energy=   6.6614E-03   setid =     379 xmoment=   0.0000E+00 ymoment=   0.0000E+00 zmoment=   0.0000E+00
 nd#     404  xforce=   0.0000E+00   yforce=   0.0000E+00  zforce=  -3.3545E+02   energy=   5.5366E-02   setid =     404 xmoment=   0.0000E+00 ymoment=   0.0000E+00 zmoment=   0.0000E+00
 nd#     405  xforce=   0.0000E+00   yforce=   0.0000E+00  zforce=  -2.0739E+02   energy=   3.4758E-02   setid =     405 xmoment=   0.0000E+00 ymoment=   0.0000E+00 zmoment=   0.0000E+00
 nd#     418  xforce=   0.0000E+00   yforce=   0.0000E+00  zforce=  -1.9331E+02   energy=   3.1669E-02   setid =     418 xmoment=   0.0000E+00 ymoment=   0.0000E+00 zmoment=   0.0000E+00
 nd#     438  xforce=   0.0000E+00   yforce=   0.0000E+00  zforce=   1.0430E+01   energy=  -1.4449E-03   setid =     438 xmoment=   0.0000E+00 ymoment=   0.0000E+00 zmoment=   0.0000E+00
 nd#     439  xforce=   0.0000E+00   yforce=   0.0000E+00  zforce=  -3.5474E+01   energy=   6.5962E-03   setid =     439 xmoment=   0.0000E+00 ymoment=   0.0000E+00 zmoment=   0.0000E+00
 nd#     440  xforce=   0.0000E+00   yforce=   0.0000E+00  zforce=  -4.4869E+01   energy=   8.0581E-03   setid =     440 xmoment=   0.0000E+00 ymoment=   0.0000E+00 zmoment=   0.0000E+00
 nd#     441  xforce=   0.0000E+00   yforce=   0.0000E+00  zforce=  -4.9126E+01   energy=   8.6619E-03   setid =     441 xmoment=   0.0000E+00 ymoment=   0.0000E+00 zmoment=   0.0000E+00
 nd#     442  xforce=   0.0000E+00   yforce=   0.0000E+00  zforce=  -5.2554E+01   energy=   9.5065E-03   setid =     442 xmoment=   0.0000E+00 ymoment=   0.0000E+00 zmoment=   0.0000E+00
 nd#     443  xforce=   0.0000E+00   yforce=   0.0000E+00  zforce=  -5.5868E+01   energy=   1.0312E-02   setid =     443 xmoment=   0.0000E+00 ymoment=   0.0000E+00 zmoment=   0.0000E+00
 nd#     444  xforce=   0.0000E+00   yforce=   0.0000E+00  zforce=  -5.7994E+01   energy=   1.1213E-02   setid =     444 xmoment=   0.0000E+00 ymoment=   0.0000E+00 zmoment=   0.0000E+00
 nd#     591  xforce=   0.0000E+00   yforce=   0.0000E+00  zforce=  -5.3939E+01   energy=   9.3640E-03   setid =     591 xmoment=   0.0000E+00 ymoment=   0.0000E+00 zmoment=   0.0000E+00
 nd#     592  xforce=   0.0000E+00   yforce=   0.0000E+00  zforce=  -5.7292E+01   energy=   9.7441E-03   setid =     592 xmoment=   0.0000E+00 ymoment=   0.0000E+00 zmoment=   0.0000E+00
 nd#     595  xforce=   0.0000E+00   yforce=   0.0000E+00  zforce=  -9.5920E+01   energy=   1.6180E-02   setid =     595 xmoment=   0.0000E+00 ymoment=   0.0000E+00 zmoment=   0.0000E+00
 nd#     596  xforce=   0.0000E+00   yforce=   0.0000E+00  zforce=  -8.9712E+01   energy=   1.5268E-02   setid =     596 xmoment=   0.0000E+00 ymoment=   0.0000E+00 zmoment=   0.0000E+00
 nd#     599  xforce=   0.0000E+00   yforce=   0.0000E+00  zforce=  -7.8427E+01   energy=   1.3372E-02   setid =     599 xmoment=   0.0000E+00 ymoment=   0.0000E+00 zmoment=   0.0000E+00
 nd#     600  xforce=   0.0000E+00   yforce=   0.0000E+00  zforce=  -8.4235E+01   energy=   1.4644E-02   setid =     600 xmoment=   0.0000E+00 ymoment=   0.0000E+00 zmoment=   0.0000E+00
 nd#     603  xforce=   0.0000E+00   yforce=   0.0000E+00  zforce=  -5.2596E+01   energy=   9.4759E-03   setid =     603 xmoment=   0.0000E+00 ymoment=   0.0000E+00 zmoment=   0.0000E+00
 nd#     604  xforce=   0.0000E+00   yforce=   0.0000E+00  zforce=  -5.0390E+01   energy=   8.9785E-03   setid =     604 xmoment=   0.0000E+00 ymoment=   0.0000E+00 zmoment=   0.0000E+00
 nd#     638  xforce=   0.0000E+00   yforce=   0.0000E+00  zforce=  -6.3016E+01   energy=   1.1282E-02   setid =     638 xmoment=   0.0000E+00 ymoment=   0.0000E+00 zmoment=   0.0000E+00
 nd#     639  xforce=   0.0000E+00   yforce=   0.0000E+00  zforce=  -4.9213E+01   energy=   9.1902E-03   setid =     639 xmoment=   0.0000E+00 ymoment=   0.0000E+00 zmoment=   0.0000E+00
 nd#     641  xforce=   0.0000E+00   yforce=   0.0000E+00  zforce=  -8.2670E+01   energy=   1.4498E-02   setid =     641 xmoment=   0.0000E+00 ymoment=   0.0000E+00 zmoment=   0.0000E+00
 nd#     642  xforce=   0.0000E+00   yforce=   0.0000E+00  zforce=  -7.3037E+01   energy=   1.3451E-02   setid =     642 xmoment=   0.0000E+00 ymoment=   0.0000E+00 zmoment=   0.0000E+00
 nd#     644  xforce=   0.0000E+00   yforce=   0.0000E+00  zforce=  -9.5929E+01   energy=   1.6476E-02   setid =     644 xmoment=   0.0000E+00 ymoment=   0.0000E+00 zmoment=   0.0000E+00
 nd#     645  xforce=   0.0000E+00   yforce=   0.0000E+00  zforce=  -9.0386E+01   energy=   1.6307E-02   setid =     645 xmoment=   0.0000E+00 ymoment=   0.0000E+00 zmoment=   0.0000E+00
 nd#     647  xforce=   0.0000E+00   yforce=   0.0000E+00  zforce=  -3.8612E+01   energy=   7.2026E-03   setid =     647 xmoment=   0.0000E+00 ymoment=   0.0000E+00 zmoment=   0.0000E+00
 nd#     648  xforce=   0.0000E+00   yforce=   0.0000E+00  zforce=  -1.7207E+01   energy=   3.5416E-03   setid =     648 xmoment=   0.0000E+00 ymoment=   0.0000E+00 zmoment=   0.0000E+00
 nd#     674  xforce=   0.0000E+00   yforce=   0.0000E+00  zforce=  -4.7924E+01   energy=   8.8124E-03   setid =     674 xmoment=   0.0000E+00 ymoment=   0.0000E+00 zmoment=   0.0000E+00
 nd#     676  xforce=   0.0000E+00   yforce=   0.0000E+00  zforce=  -1.0294E+02   energy=   1.7536E-02   setid =     676 xmoment=   0.0000E+00 ymoment=   0.0000E+00 zmoment=   0.0000E+00
 nd#     678  xforce=   0.0000E+00   yforce=   0.0000E+00  zforce=  -6.9261E+01   energy=   1.2136E-02   setid =     678 xmoment=   0.0000E+00 ymoment=   0.0000E+00 zmoment=   0.0000E+00
 nd#     680  xforce=   0.0000E+00   yforce=   0.0000E+00  zforce=  -5.5694E+01   energy=   1.0176E-02   setid =     680 xmoment=   0.0000E+00 ymoment=   0.0000E+00 zmoment=   0.0000E+00
 nd#     821  xforce=   0.0000E+00   yforce=   0.0000E+00  zforce=  -6.0317E+01   energy=   1.0400E-02   setid =     821 xmoment=   0.0000E+00 ymoment=   0.0000E+00 zmoment=   0.0000E+00
 nd#     822  xforce=   0.0000E+00   yforce=   0.0000E+00  zforce=  -8.6107E+01   energy=   1.4865E-02   setid =     822 xmoment=   0.0000E+00 ymoment=   0.0000E+00 zmoment=   0.0000E+00
 nd#     823  xforce=   0.0000E+00   yforce=   0.0000E+00  zforce=  -9.1345E+01   energy=   1.5812E-02   setid =     823 xmoment=   0.0000E+00 ymoment=   0.0000E+00 zmoment=   0.0000E+00
 nd#     824  xforce=   0.0000E+00   yforce=   0.0000E+00  zforce=  -4.7656E+01   energy=   8.5530E-03   setid =     824 xmoment=   0.0000E+00 ymoment=   0.0000E+00 zmoment=   0.0000E+00
 nd#     850  xforce=   0.0000E+00   yforce=   0.0000E+00  zforce=   4.8771E+01   energy=  -7.6567E-03   setid =     850 xmoment=   0.0000E+00 ymoment=   0.0000E+00 zmoment=   0.0000E+00
 nd#     852  xforce=   0.0000E+00   yforce=   0.0000E+00  zforce=   5.6882E+01   energy=  -9.4819E-03   setid =     852 xmoment=   0.0000E+00 ymoment=   0.0000E+00 zmoment=   0.0000E+00
 nd#     854  xforce=   0.0000E+00   yforce=   0.0000E+00  zforce=   8.9022E+01   energy=  -1.4375E-02   setid =     854 xmoment=   0.0000E+00 ymoment=   0.0000E+00 zmoment=   0.0000E+00
 nd#     856  xforce=   0.0000E+00   yforce=   0.0000E+00  zforce=   6.7973E+01   energy=  -1.2123E-02   setid =     856 xmoment=   0.0000E+00 ymoment=   0.0000E+00 zmoment=   0.0000E+00
              xtotal=   0.0000E+00   ytotal=   0.0000E+00  ztotal=  -3.2250E+03   etotal=   5.6908E-01

 n o d a l   f o r c e/e n e r g y    o u t p u t  t=   1.45238E+01

 velocity boundary condition forces/rigid body moments 

 nd#     220  xforce=   0.0000E+00   yforce=   0.0000E+00  zforce=  -8.6100E+01   energy=   3.0977E-02   setid =     220 xmoment=   0.0000E+00 ymoment=   0.0000E+00 zmoment=   0.0000E+00
 nd#     221  xforce=   0.0000E+00   yforce=   0.0000E+00  zforce=  -3.6882E+01   energy=   2.0078E-02   setid =     221 xmoment=   0.0000E+00 ymoment=   0.0000E+00 zmoment=   0.0000E+00
 nd#     222  xforce=   0.0000E+00   yforce=   0.0000E+00  zforce=  -8.3345E+01   energy=   1.9920E-02   setid =     222 xmoment=   0.0000E+00 ymoment=   0.0000E+00 zmoment=   0.0000E+00
 nd#     223  xforce=   0.0000E+00   yforce=   0.0000E+00  zforce=  -7.2196E+01   energy=   2.0940E-02   setid =     223 xmoment=   0.0000E+00 ymoment=   0.0000E+00 zmoment=   0.0000E+00
 nd#     248  xforce=   0.0000E+00   yforce=   0.0000E+00  zforce=  -7.9063E+01   energy=   1.7195E-02   setid =     248 xmoment=   0.0000E+00 ymoment=   0.0000E+00 zmoment=   0.0000E+00
 nd#     249  xforce=   0.0000E+00   yforce=   0.0000E+00  zforce=  -5.5032E+01   energy=   1.4169E-02   setid =     249 xmoment=   0.0000E+00 ymoment=   0.0000E+00 zmoment=   0.0000E+00
 nd#     286  xforce=   0.0000E+00   yforce=   0.0000E+00  zforce=   2.2981E+02   energy=  -7.8129E-02   setid =     286 xmoment=   0.0000E+00 ymoment=   0.0000E+00 zmoment=   0.0000E+00
 nd#     287  xforce=   0.0000E+00   yforce=   0.0000E+00  zforce=  -6.3410E+01   energy=   1.9108E-02   setid =     287 xmoment=   0.0000E+00 ymoment=   0.0000E+00 zmoment=   0.0000E+00
 nd#     288  xforce=   0.0000E+00   yforce=   0.0000E+00  zforce=   1.1187E+01   energy=  -1.9627E-02   setid =     288 xmoment=   0.0000E+00 ymoment=   0.0000E+00 zmoment=   0.0000E+00
 nd#     301  xforce=   0.0000E+00   yforce=   0.0000E+00  zforce=  -1.8781E+02   energy=   5.1144E-02   setid =     301 xmoment=   0.0000E+00 ymoment=   0.0000E+00 zmoment=   0.0000E+00
 nd#     314  xforce=   0.0000E+00   yforce=   0.0000E+00  zforce=  -1.0057E+02   energy=   2.4271E-02   setid =     314 xmoment=   0.0000E+00 ymoment=   0.0000E+00 zmoment=   0.0000E+00
 nd#     363  xforce=   0.0000E+00   yforce=   0.0000E+00  zforce=  -2.6547E+01   energy=   1.2741E-03   setid =     363 xmoment=   0.0000E+00 ymoment=   0.0000E+00 zmoment=   0.0000E+00
 nd#     364  xforce=   0.0000E+00   yforce=   0.0000E+00  zforce=  -4.1239E+01   energy=   8.5860E-03   setid =     364 xmoment=   0.0000E+00 ymoment=   0.0000E+00 zmoment=   0.0000E+00
 nd#     365  xforce=   0.0000E+00   yforce=   0.0000E+00  zforce=  -1.6981E+02   energy=   5.3420E-02   setid =     365 xmoment=   0.0000E+00 ymoment=   0.0000E+00 zmoment=   0.0000E+00
 nd#     366  xforce=   0.0000E+00   yforce=   0.0000E+00  zforce=  -6.6713E+01   energy=   2.0483E-02   setid =     366 xmoment=   0.0000E+00 ymoment=   0.0000E+00 zmoment=   0.0000E+00
 nd#     379  xforce=   0.0000E+00   yforce=   0.0000E+00  zforce=  -8.7888E+01   energy=   1.1236E-02   setid =     379 xmoment=   0.0000E+00 ymoment=   0.0000E+00 zmoment=   0.0000E+00
 nd#     404  xforce=   0.0000E+00   yforce=   0.0000E+00  zforce=  -2.3442E+02   energy=   7.6327E-02   setid =     404 xmoment=   0.0000E+00 ymoment=   0.0000E+00 zmoment=   0.0000E+00
 nd#     405  xforce=   0.0000E+00   yforce=   0.0000E+00  zforce=  -1.5381E+02   energy=   4.8044E-02   setid =     405 xmoment=   0.0000E+00 ymoment=   0.0000E+00 zmoment=   0.0000E+00
 nd#     418  xforce=   0.0000E+00   yforce=   0.0000E+00  zforce=  -1.3028E+02   energy=   4.3571E-02   setid =     418 xmoment=   0.0000E+00 ymoment=   0.0000E+00 zmoment=   0.0000E+00
 nd#     438  xforce=   0.0000E+00   yforce=   0.0000E+00  zforce=   8.0302E+00   energy=  -2.1239E-03   setid =     438 xmoment=   0.0000E+00 ymoment=   0.0000E+00 zmoment=   0.0000E+00
 nd#     439  xforce=   0.0000E+00   yforce=   0.0000E+00  zforce=  -3.4231E+01   energy=   9.1601E-03   setid =     439 xmoment=   0.0000E+00 ymoment=   0.0000E+00 zmoment=   0.0000E+00
 nd#     440  xforce=   0.0000E+00   yforce=   0.0000E+00  zforce=  -4.1546E+01   energy=   1.1237E-02   setid =     440 xmoment=   0.0000E+00 ymoment=   0.0000E+00 zmoment=   0.0000E+00
 nd#     441  xforce=   0.0000E+00   yforce=   0.0000E+00  zforce=  -4.4306E+01   energy=   1.2098E-02   setid =     441 xmoment=   0.0000E+00 ymoment=   0.0000E+00 zmoment=   0.0000E+00
 nd#     442  xforce=   0.0000E+00   yforce=   0.0000E+00  zforce=  -4.6001E+01   energy=   1.3132E-02   setid =     442 xmoment=   0.0000E+00 ymoment=   0.0000E+00 zmoment=   0.0000E+00
 nd#     443  xforce=   0.0000E+00   yforce=   0.0000E+00  zforce=  -4.7927E+01   energy=   1.4130E-02   setid =     443 xmoment=   0.0000E+00 ymoment=   0.0000E+00 zmoment=   0.0000E+00
 nd#     444  xforce=   0.0000E+00   yforce=   0.0000E+00  zforce=  -5.0141E+01   energy=   1.5190E-02   setid =     444 xmoment=   0.0000E+00 ymoment=   0.0000E+00 zmoment=   0.0000E+00
 nd#     591  xforce=   0.0000E+00   yforce=   0.0000E+00  zforce=  -6.0415E+01   energy=   1.3570E-02   setid =     591 xmoment=   0.0000E+00 ymoment=   0.0000E+00 zmoment=   0.0000E+00
 nd#     592  xforce=   0.0000E+00   yforce=   0.0000E+00  zforce=  -6.1420E+01   energy=   1.4111E-02   setid =     592 xmoment=   0.0000E+00 ymoment=   0.0000E+00 zmoment=   0.0000E+00
 nd#     595  xforce=   0.0000E+00   yforce=   0.0000E+00  zforce=  -8.8311E+01   energy=   2.2957E-02   setid =     595 xmoment=   0.0000E+00 ymoment=   0.0000E+00 zmoment=   0.0000E+00
 nd#     596  xforce=   0.0000E+00   yforce=   0.0000E+00  zforce=  -8.4627E+01   energy=   2.1680E-02   setid =     596 xmoment=   0.0000E+00 ymoment=   0.0000E+00 zmoment=   0.0000E+00
 nd#     599  xforce=   0.0000E+00   yforce=   0.0000E+00  zforce=  -7.6882E+01   energy=   1.9084E-02   setid =     599 xmoment=   0.0000E+00 ymoment=   0.0000E+00 zmoment=   0.0000E+00
 nd#     600  xforce=   0.0000E+00   yforce=   0.0000E+00  zforce=  -8.2494E+01   energy=   2.0776E-02   setid =     600 xmoment=   0.0000E+00 ymoment=   0.0000E+00 zmoment=   0.0000E+00
 nd#     603  xforce=   0.0000E+00   yforce=   0.0000E+00  zforce=  -4.8594E+01   energy=   1.3198E-02   setid =     603 xmoment=   0.0000E+00 ymoment=   0.0000E+00 zmoment=   0.0000E+00
 nd#     604  xforce=   0.0000E+00   yforce=   0.0000E+00  zforce=  -4.7396E+01   energy=   1.2575E-02   setid =     604 xmoment=   0.0000E+00 ymoment=   0.0000E+00 zmoment=   0.0000E+00
 nd#     638  xforce=   0.0000E+00   yforce=   0.0000E+00  zforce=  -6.6078E+01   energy=   1.6031E-02   setid =     638 xmoment=   0.0000E+00 ymoment=   0.0000E+00 zmoment=   0.0000E+00
 nd#     639  xforce=   0.0000E+00   yforce=   0.0000E+00  zforce=  -5.3512E+01   energy=   1.2969E-02   setid =     639 xmoment=   0.0000E+00 ymoment=   0.0000E+00 zmoment=   0.0000E+00
 nd#     641  xforce=   0.0000E+00   yforce=   0.0000E+00  zforce=  -8.1799E+01   energy=   2.0547E-02   setid =     641 xmoment=   0.0000E+00 ymoment=   0.0000E+00 zmoment=   0.0000E+00
 nd#     642  xforce=   0.0000E+00   yforce=   0.0000E+00  zforce=  -7.4450E+01   energy=   1.8876E-02   setid =     642 xmoment=   0.0000E+00 ymoment=   0.0000E+00 zmoment=   0.0000E+00
 nd#     644  xforce=   0.0000E+00   yforce=   0.0000E+00  zforce=  -9.4416E+01   energy=   2.3477E-02   setid =     644 xmoment=   0.0000E+00 ymoment=   0.0000E+00 zmoment=   0.0000E+00
[...]
 nd#     223  xforce=   0.0000E+00   yforce=   0.0000E+00  zforce=  -5.1872E+01   energy=   1.0089E-01   setid =     223 xmoment=   0.0000E+00 ymoment=   0.0000E+00 zmoment=   0.0000E+00
 nd#     248  xforce=   0.0000E+00   yforce=   0.0000E+00  zforce=  -8.6350E+01   energy=   1.4970E-01   setid =     248 xmoment=   0.0000E+00 ymoment=   0.0000E+00 zmoment=   0.0000E+00
 nd#     249  xforce=   0.0000E+00   yforce=   0.0000E+00  zforce=  -4.2994E+01   energy=   8.4036E-02   setid =     249 xmoment=   0.0000E+00 ymoment=   0.0000E+00 zmoment=   0.0000E+00
 nd#     286  xforce=   0.0000E+00   yforce=   0.0000E+00  zforce=   2.5267E+01   energy=  -3.0608E-01   setid =     286 xmoment=   0.0000E+00 ymoment=   0.0000E+00 zmoment=   0.0000E+00
 nd#     287  xforce=   0.0000E+00   yforce=   0.0000E+00  zforce=  -4.6701E+01   energy=   1.0535E-01   setid =     287 xmoment=   0.0000E+00 ymoment=   0.0000E+00 zmoment=   0.0000E+00
 nd#     288  xforce=   0.0000E+00   yforce=   0.0000E+00  zforce=  -5.2043E+01   energy=   1.1248E-02   setid =     288 xmoment=   0.0000E+00 ymoment=   0.0000E+00 zmoment=   0.0000E+00
 nd#     301  xforce=   0.0000E+00   yforce=   0.0000E+00  zforce=  -1.3999E+02   energy=   3.1738E-01   setid =     301 xmoment=   0.0000E+00 ymoment=   0.0000E+00 zmoment=   0.0000E+00
 nd#     314  xforce=   0.0000E+00   yforce=   0.0000E+00  zforce=  -8.4740E+01   energy=   1.7707E-01   setid =     314 xmoment=   0.0000E+00 ymoment=   0.0000E+00 zmoment=   0.0000E+00
 nd#     363  xforce=   0.0000E+00   yforce=   0.0000E+00  zforce=  -8.6235E+01   energy=   7.4167E-02   setid =     363 xmoment=   0.0000E+00 ymoment=   0.0000E+00 zmoment=   0.0000E+00
 nd#     364  xforce=   0.0000E+00   yforce=   0.0000E+00  zforce=  -1.0925E+02   energy=   1.1155E-01   setid =     364 xmoment=   0.0000E+00 ymoment=   0.0000E+00 zmoment=   0.0000E+00
 nd#     365  xforce=   0.0000E+00   yforce=   0.0000E+00  zforce=  -7.3647E+01   energy=   2.4407E-01   setid =     365 xmoment=   0.0000E+00 ymoment=   0.0000E+00 zmoment=   0.0000E+00
 nd#     366  xforce=   0.0000E+00   yforce=   0.0000E+00  zforce=  -3.3668E+01   energy=   1.0125E-01   setid =     366 xmoment=   0.0000E+00 ymoment=   0.0000E+00 zmoment=   0.0000E+00
 nd#     379  xforce=   0.0000E+00   yforce=   0.0000E+00  zforce=  -8.7983E+01   energy=   1.4911E-01   setid =     379 xmoment=   0.0000E+00 ymoment=   0.0000E+00 zmoment=   0.0000E+00
 nd#     404  xforce=   0.0000E+00   yforce=   0.0000E+00  zforce=  -1.1007E+02   energy=   3.4870E-01   setid =     404 xmoment=   0.0000E+00 ymoment=   0.0000E+00 zmoment=   0.0000E+00
 nd#     405  xforce=   0.0000E+00   yforce=   0.0000E+00  zforce=  -7.9497E+01   energy=   2.3390E-01   setid =     405 xmoment=   0.0000E+00 ymoment=   0.0000E+00 zmoment=   0.0000E+00
 nd#     418  xforce=   0.0000E+00   yforce=   0.0000E+00  zforce=  -7.3340E+01   energy=   1.8507E-01   setid =     418 xmoment=   0.0000E+00 ymoment=   0.0000E+00 zmoment=   0.0000E+00
 nd#     438  xforce=   0.0000E+00   yforce=   0.0000E+00  zforce=   4.2405E+00   energy=  -1.3821E-02   setid =     438 xmoment=   0.0000E+00 ymoment=   0.0000E+00 zmoment=   0.0000E+00
 nd#     439  xforce=   0.0000E+00   yforce=   0.0000E+00  zforce=  -3.5528E+01   energy=   5.4448E-02   setid =     439 xmoment=   0.0000E+00 ymoment=   0.0000E+00 zmoment=   0.0000E+00
 nd#     440  xforce=   0.0000E+00   yforce=   0.0000E+00  zforce=  -3.6762E+01   energy=   6.6746E-02   setid =     440 xmoment=   0.0000E+00 ymoment=   0.0000E+00 zmoment=   0.0000E+00
 nd#     441  xforce=   0.0000E+00   yforce=   0.0000E+00  zforce=  -3.4653E+01   energy=   6.8827E-02   setid =     441 xmoment=   0.0000E+00 ymoment=   0.0000E+00 zmoment=   0.0000E+00
 nd#     442  xforce=   0.0000E+00   yforce=   0.0000E+00  zforce=  -3.4177E+01   energy=   7.2033E-02   setid =     442 xmoment=   0.0000E+00 ymoment=   0.0000E+00 zmoment=   0.0000E+00
 nd#     443  xforce=   0.0000E+00   yforce=   0.0000E+00  zforce=  -3.0183E+01   energy=   7.4372E-02   setid =     443 xmoment=   0.0000E+00 ymoment=   0.0000E+00 zmoment=   0.0000E+00
 nd#     444  xforce=   0.0000E+00   yforce=   0.0000E+00  zforce=  -2.7111E+01   energy=   7.4859E-02   setid =     444 xmoment=   0.0000E+00 ymoment=   0.0000E+00 zmoment=   0.0000E+00
 nd#     591  xforce=   0.0000E+00   yforce=   0.0000E+00  zforce=  -7.9944E+01   energy=   1.1149E-01   setid =     591 xmoment=   0.0000E+00 ymoment=   0.0000E+00 zmoment=   0.0000E+00
 nd#     592  xforce=   0.0000E+00   yforce=   0.0000E+00  zforce=  -8.2787E+01   energy=   1.0912E-01   setid =     592 xmoment=   0.0000E+00 ymoment=   0.0000E+00 zmoment=   0.0000E+00
 nd#     595  xforce=   0.0000E+00   yforce=   0.0000E+00  zforce=  -8.1609E+01   energy=   1.4981E-01   setid =     595 xmoment=   0.0000E+00 ymoment=   0.0000E+00 zmoment=   0.0000E+00
 nd#     596  xforce=   0.0000E+00   yforce=   0.0000E+00  zforce=  -8.5032E+01   energy=   1.4220E-01   setid =     596 xmoment=   0.0000E+00 ymoment=   0.0000E+00 zmoment=   0.0000E+00
 nd#     599  xforce=   0.0000E+00   yforce=   0.0000E+00  zforce=  -7.1240E+01   energy=   1.3409E-01   setid =     599 xmoment=   0.0000E+00 ymoment=   0.0000E+00 zmoment=   0.0000E+00
 nd#     600  xforce=   0.0000E+00   yforce=   0.0000E+00  zforce=  -8.7207E+01   energy=   1.4161E-01   setid =     600 xmoment=   0.0000E+00 ymoment=   0.0000E+00 zmoment=   0.0000E+00
 nd#     603  xforce=   0.0000E+00   yforce=   0.0000E+00  zforce=  -3.5721E+01   energy=   7.8164E-02   setid =     603 xmoment=   0.0000E+00 ymoment=   0.0000E+00 zmoment=   0.0000E+00
 nd#     604  xforce=   0.0000E+00   yforce=   0.0000E+00  zforce=  -4.4835E+01   energy=   7.6773E-02   setid =     604 xmoment=   0.0000E+00 ymoment=   0.0000E+00 zmoment=   0.0000E+00
 nd#     638  xforce=   0.0000E+00   yforce=   0.0000E+00  zforce=  -9.1407E+01   energy=   1.1647E-01   setid =     638 xmoment=   0.0000E+00 ymoment=   0.0000E+00 zmoment=   0.0000E+00
 nd#     639  xforce=   0.0000E+00   yforce=   0.0000E+00  zforce=  -7.7153E+01   energy=   9.1778E-02   setid =     639 xmoment=   0.0000E+00 ymoment=   0.0000E+00 zmoment=   0.0000E+00
 nd#     641  xforce=   0.0000E+00   yforce=   0.0000E+00  zforce=  -1.0122E+02   energy=   1.4382E-01   setid =     641 xmoment=   0.0000E+00 ymoment=   0.0000E+00 zmoment=   0.0000E+00
 nd#     642  xforce=   0.0000E+00   yforce=   0.0000E+00  zforce=  -9.5590E+01   energy=   1.2961E-01   setid =     642 xmoment=   0.0000E+00 ymoment=   0.0000E+00 zmoment=   0.0000E+00
 nd#     644  xforce=   0.0000E+00   yforce=   0.0000E+00  zforce=  -9.9609E+01   energy=   1.6310E-01   setid =     644 xmoment=   0.0000E+00 ymoment=   0.0000E+00 zmoment=   0.0000E+00
 nd#     645  xforce=   0.0000E+00   yforce=   0.0000E+00  zforce=  -6.3076E+01   energy=   1.4542E-01   setid =     645 xmoment=   0.0000E+00 ymoment=   0.0000E+00 zmoment=   0.0000E+00
 nd#     647  xforce=   0.0000E+00   yforce=   0.0000E+00  zforce=  -4.3162E+01   energy=   6.0633E-02   setid =     647 xmoment=   0.0000E+00 ymoment=   0.0000E+00 zmoment=   0.0000E+00
 nd#     648  xforce=   0.0000E+00   yforce=   0.0000E+00  zforce=  -2.1999E+01   energy=   2.0991E-02   setid =     648 xmoment=   0.0000E+00 ymoment=   0.0000E+00 zmoment=   0.0000E+00
 nd#     674  xforce=   0.0000E+00   yforce=   0.0000E+00  zforce=  -7.7034E+01   energy=   1.1029E-01   setid =     674 xmoment=   0.0000E+00 ymoment=   0.0000E+00 zmoment=   0.0000E+00
 nd#     676  xforce=   0.0000E+00   yforce=   0.0000E+00  zforce=  -7.6138E+01   energy=   1.6407E-01   setid =     676 xmoment=   0.0000E+00 ymoment=   0.0000E+00 zmoment=   0.0000E+00
 nd#     678  xforce=   0.0000E+00   yforce=   0.0000E+00  zforce=  -6.9989E+01   energy=   1.3276E-01   setid =     678 xmoment=   0.0000E+00 ymoment=   0.0000E+00 zmoment=   0.0000E+00
 nd#     680  xforce=   0.0000E+00   yforce=   0.0000E+00  zforce=  -3.9733E+01   energy=   8.4105E-02   setid =     680 xmoment=   0.0000E+00 ymoment=   0.0000E+00 zmoment=   0.0000E+00
 nd#     821  xforce=   0.0000E+00   yforce=   0.0000E+00  zforce=  -8.5513E+01   energy=   1.0970E-01   setid =     821 xmoment=   0.0000E+00 ymoment=   0.0000E+00 zmoment=   0.0000E+00
 nd#     822  xforce=   0.0000E+00   yforce=   0.0000E+00  zforce=  -9.4463E+01   energy=   1.3899E-01   setid =     822 xmoment=   0.0000E+00 ymoment=   0.0000E+00 zmoment=   0.0000E+00
 nd#     823  xforce=   0.0000E+00   yforce=   0.0000E+00  zforce=  -9.7533E+01   energy=   1.5091E-01   setid =     823 xmoment=   0.0000E+00 ymoment=   0.0000E+00 zmoment=   0.0000E+00
 nd#     824  xforce=   0.0000E+00   yforce=   0.0000E+00  zforce=  -4.3335E+01   energy=   7.3153E-02   setid =     824 xmoment=   0.0000E+00 ymoment=   0.0000E+00 zmoment=   0.0000E+00
 nd#     850  xforce=   0.0000E+00   yforce=   0.0000E+00  zforce=   1.4462E+01   energy=  -6.6271E-02   setid =     850 xmoment=   0.0000E+00 ymoment=   0.0000E+00 zmoment=   0.0000E+00
 nd#     852  xforce=   0.0000E+00   yforce=   0.0000E+00  zforce=   6.1566E+01   energy=  -9.6660E-02   setid =     852 xmoment=   0.0000E+00 ymoment=   0.0000E+00 zmoment=   0.0000E+00
 nd#     854  xforce=   0.0000E+00   yforce=   0.0000E+00  zforce=   5.5244E+01   energy=  -1.5473E-01   setid =     854 xmoment=   0.0000E+00 ymoment=   0.0000E+00 zmoment=   0.0000E+00
 nd#     856  xforce=   0.0000E+00   yforce=   0.0000E+00  zforce=   4.4820E+01   energy=  -1.0417E-01   setid =     856 xmoment=   0.0000E+00 ymoment=   0.0000E+00 zmoment=   0.0000E+00
              xtotal=   0.0000E+00   ytotal=   0.0000E+00  ztotal=  -3.0494E+03   etotal=   5.1267E+00

 n o d a l   f o r c e/e n e r g y    o u t p u t  t=   1.00000E+02

 velocity boundary condition forces/rigid body moments 

 nd#     220  xforce=   0.0000E+00   yforce=   0.0000E+00  zforce=  -9.8470E+01   energy=   1.1133E-01   setid =     220 xmoment=   0.0000E+00 ymoment=   0.0000E+00 zmoment=   0.0000E+00
 nd#     221  xforce=   0.0000E+00   yforce=   0.0000E+00  zforce=  -9.6254E+01   energy=   4.1497E-02   setid =     221 xmoment=   0.0000E+00 ymoment=   0.0000E+00 zmoment=   0.0000E+00
 nd#     222  xforce=   0.0000E+00   yforce=   0.0000E+00  zforce=  -7.3728E+01   energy=   1.4541E-01   setid =     222 xmoment=   0.0000E+00 ymoment=   0.0000E+00 zmoment=   0.0000E+00
 nd#     223  xforce=   0.0000E+00   yforce=   0.0000E+00  zforce=  -5.8589E+01   energy=   1.0447E-01   setid =     223 xmoment=   0.0000E+00 ymoment=   0.0000E+00 zmoment=   0.0000E+00
 nd#     248  xforce=   0.0000E+00   yforce=   0.0000E+00  zforce=  -7.3680E+01   energy=   1.5488E-01   setid =     248 xmoment=   0.0000E+00 ymoment=   0.0000E+00 zmoment=   0.0000E+00
 nd#     249  xforce=   0.0000E+00   yforce=   0.0000E+00  zforce=  -4.7380E+01   energy=   8.6959E-02   setid =     249 xmoment=   0.0000E+00 ymoment=   0.0000E+00 zmoment=   0.0000E+00
 nd#     286  xforce=   0.0000E+00   yforce=   0.0000E+00  zforce=   3.2880E+02   energy=  -3.1753E-01   setid =     286 xmoment=   0.0000E+00 ymoment=   0.0000E+00 zmoment=   0.0000E+00
 nd#     287  xforce=   0.0000E+00   yforce=   0.0000E+00  zforce=  -9.9868E+01   energy=   1.1009E-01   setid =     287 xmoment=   0.0000E+00 ymoment=   0.0000E+00 zmoment=   0.0000E+00
 nd#     288  xforce=   0.0000E+00   yforce=   0.0000E+00  zforce=   1.2302E+02   energy=   8.9531E-03   setid =     288 xmoment=   0.0000E+00 ymoment=   0.0000E+00 zmoment=   0.0000E+00
 nd#     301  xforce=   0.0000E+00   yforce=   0.0000E+00  zforce=  -2.5365E+02   energy=   3.3011E-01   setid =     301 xmoment=   0.0000E+00 ymoment=   0.0000E+00 zmoment=   0.0000E+00
 nd#     314  xforce=   0.0000E+00   yforce=   0.0000E+00  zforce=  -1.2590E+02   energy=   1.8388E-01   setid =     314 xmoment=   0.0000E+00 ymoment=   0.0000E+00 zmoment=   0.0000E+00
 nd#     363  xforce=   0.0000E+00   yforce=   0.0000E+00  zforce=   4.6291E-01   energy=   7.6940E-02   setid =     363 xmoment=   0.0000E+00 ymoment=   0.0000E+00 zmoment=   0.0000E+00
 nd#     364  xforce=   0.0000E+00   yforce=   0.0000E+00  zforce=  -2.7092E+01   energy=   1.1596E-01   setid =     364 xmoment=   0.0000E+00 ymoment=   0.0000E+00 zmoment=   0.0000E+00
 nd#     365  xforce=   0.0000E+00   yforce=   0.0000E+00  zforce=  -2.1655E+02   energy=   2.5345E-01   setid =     365 xmoment=   0.0000E+00 ymoment=   0.0000E+00 zmoment=   0.0000E+00
 nd#     366  xforce=   0.0000E+00   yforce=   0.0000E+00  zforce=  -8.2554E+01   energy=   1.0501E-01   setid =     366 xmoment=   0.0000E+00 ymoment=   0.0000E+00 zmoment=   0.0000E+00
 nd#     379  xforce=   0.0000E+00   yforce=   0.0000E+00  zforce=  -1.6174E+01   energy=   1.5248E-01   setid =     379 xmoment=   0.0000E+00 ymoment=   0.0000E+00 zmoment=   0.0000E+00
 nd#     404  xforce=   0.0000E+00   yforce=   0.0000E+00  zforce=  -2.9946E+02   energy=   3.6194E-01   setid =     404 xmoment=   0.0000E+00 ymoment=   0.0000E+00 zmoment=   0.0000E+00
 nd#     405  xforce=   0.0000E+00   yforce=   0.0000E+00  zforce=  -1.7928E+02   energy=   2.4226E-01   setid =     405 xmoment=   0.0000E+00 ymoment=   0.0000E+00 zmoment=   0.0000E+00
 nd#     418  xforce=   0.0000E+00   yforce=   0.0000E+00  zforce=  -1.6584E+02   energy=   1.9281E-01   setid =     418 xmoment=   0.0000E+00 ymoment=   0.0000E+00 zmoment=   0.0000E+00
 nd#     438  xforce=   0.0000E+00   yforce=   0.0000E+00  zforce=   1.8513E+01   energy=  -1.4557E-02   setid =     438 xmoment=   0.0000E+00 ymoment=   0.0000E+00 zmoment=   0.0000E+00
 nd#     439  xforce=   0.0000E+00   yforce=   0.0000E+00  zforce=  -2.3980E+01   energy=   5.6372E-02   setid =     439 xmoment=   0.0000E+00 ymoment=   0.0000E+00 zmoment=   0.0000E+00
 nd#     440  xforce=   0.0000E+00   yforce=   0.0000E+00  zforce=  -3.6307E+01   energy=   6.9109E-02   setid =     440 xmoment=   0.0000E+00 ymoment=   0.0000E+00 zmoment=   0.0000E+00
 nd#     441  xforce=   0.0000E+00   yforce=   0.0000E+00  zforce=  -4.2209E+01   energy=   7.1312E-02   setid =     441 xmoment=   0.0000E+00 ymoment=   0.0000E+00 zmoment=   0.0000E+00
 nd#     442  xforce=   0.0000E+00   yforce=   0.0000E+00  zforce=  -4.6603E+01   energy=   7.4645E-02   setid =     442 xmoment=   0.0000E+00 ymoment=   0.0000E+00 zmoment=   0.0000E+00
 nd#     443  xforce=   0.0000E+00   yforce=   0.0000E+00  zforce=  -5.0556E+01   energy=   7.6983E-02   setid =     443 xmoment=   0.0000E+00 ymoment=   0.0000E+00 zmoment=   0.0000E+00
 nd#     444  xforce=   0.0000E+00   yforce=   0.0000E+00  zforce=  -5.0739E+01   energy=   7.7377E-02   setid =     444 xmoment=   0.0000E+00 ymoment=   0.0000E+00 zmoment=   0.0000E+00
 nd#     591  xforce=   0.0000E+00   yforce=   0.0000E+00  zforce=  -4.7339E+01   energy=   1.1561E-01   setid =     591 xmoment=   0.0000E+00 ymoment=   0.0000E+00 zmoment=   0.0000E+00
 nd#     592  xforce=   0.0000E+00   yforce=   0.0000E+00  zforce=  -5.1650E+01   energy=   1.1347E-01   setid =     592 xmoment=   0.0000E+00 ymoment=   0.0000E+00 zmoment=   0.0000E+00
 nd#     595  xforce=   0.0000E+00   yforce=   0.0000E+00  zforce=  -1.0088E+02   energy=   1.5571E-01   setid =     595 xmoment=   0.0000E+00 ymoment=   0.0000E+00 zmoment=   0.0000E+00
 nd#     596  xforce=   0.0000E+00   yforce=   0.0000E+00  zforce=  -9.3438E+01   energy=   1.4797E-01   setid =     596 xmoment=   0.0000E+00 ymoment=   0.0000E+00 zmoment=   0.0000E+00
 nd#     599  xforce=   0.0000E+00   yforce=   0.0000E+00  zforce=  -6.6380E+01   energy=   1.3854E-01   setid =     599 xmoment=   0.0000E+00 ymoment=   0.0000E+00 zmoment=   0.0000E+00
 nd#     600  xforce=   0.0000E+00   yforce=   0.0000E+00  zforce=  -7.5877E+01   energy=   1.4689E-01   setid =     600 xmoment=   0.0000E+00 ymoment=   0.0000E+00 zmoment=   0.0000E+00
 nd#     603  xforce=   0.0000E+00   yforce=   0.0000E+00  zforce=  -3.7701E+01   energy=   8.0539E-02   setid =     603 xmoment=   0.0000E+00 ymoment=   0.0000E+00 zmoment=   0.0000E+00
 nd#     604  xforce=   0.0000E+00   yforce=   0.0000E+00  zforce=  -4.2542E+01   energy=   7.9598E-02   setid =     604 xmoment=   0.0000E+00 ymoment=   0.0000E+00 zmoment=   0.0000E+00
 nd#     638  xforce=   0.0000E+00   yforce=   0.0000E+00  zforce=  -5.0836E+01   energy=   1.2107E-01   setid =     638 xmoment=   0.0000E+00 ymoment=   0.0000E+00 zmoment=   0.0000E+00
 nd#     639  xforce=   0.0000E+00   yforce=   0.0000E+00  zforce=  -3.3674E+01   energy=   9.5362E-02   setid =     639 xmoment=   0.0000E+00 ymoment=   0.0000E+00 zmoment=   0.0000E+00
 nd#     641  xforce=   0.0000E+00   yforce=   0.0000E+00  zforce=  -7.6364E+01   energy=   1.4957E-01   setid =     641 xmoment=   0.0000E+00 ymoment=   0.0000E+00 zmoment=   0.0000E+00
 nd#     642  xforce=   0.0000E+00   yforce=   0.0000E+00  zforce=  -5.9855E+01   energy=   1.3464E-01   setid =     642 xmoment=   0.0000E+00 ymoment=   0.0000E+00 zmoment=   0.0000E+00
 nd#     644  xforce=   0.0000E+00   yforce=   0.0000E+00  zforce=  -8.5195E+01   energy=   1.6907E-01   setid =     644 xmoment=   0.0000E+00 ymoment=   0.0000E+00 zmoment=   0.0000E+00
 nd#     645  xforce=   0.0000E+00   yforce=   0.0000E+00  zforce=  -4.8238E+01   energy=   1.4902E-01   setid =     645 xmoment=   0.0000E+00 ymoment=   0.0000E+00 zmoment=   0.0000E+00
 nd#     647  xforce=   0.0000E+00   yforce=   0.0000E+00  zforce=  -2.8601E+01   energy=   6.2953E-02   setid =     647 xmoment=   0.0000E+00 ymoment=   0.0000E+00 zmoment=   0.0000E+00
 nd#     648  xforce=   0.0000E+00   yforce=   0.0000E+00  zforce=  -1.8834E+00   energy=   2.1763E-02   setid =     648 xmoment=   0.0000E+00 ymoment=   0.0000E+00 zmoment=   0.0000E+00
 nd#     674  xforce=   0.0000E+00   yforce=   0.0000E+00  zforce=  -3.9736E+01   energy=   1.1407E-01   setid =     674 xmoment=   0.0000E+00 ymoment=   0.0000E+00 zmoment=   0.0000E+00
 nd#     676  xforce=   0.0000E+00   yforce=   0.0000E+00  zforce=  -1.0599E+02   energy=   1.6996E-01   setid =     676 xmoment=   0.0000E+00 ymoment=   0.0000E+00 zmoment=   0.0000E+00
 nd#     678  xforce=   0.0000E+00   yforce=   0.0000E+00  zforce=  -6.1574E+01   energy=   1.3702E-01   setid =     678 xmoment=   0.0000E+00 ymoment=   0.0000E+00 zmoment=   0.0000E+00
 nd#     680  xforce=   0.0000E+00   yforce=   0.0000E+00  zforce=  -4.5501E+01   energy=   8.6861E-02   setid =     680 xmoment=   0.0000E+00 ymoment=   0.0000E+00 zmoment=   0.0000E+00
 nd#     821  xforce=   0.0000E+00   yforce=   0.0000E+00  zforce=  -5.2923E+01   energy=   1.1418E-01   setid =     821 xmoment=   0.0000E+00 ymoment=   0.0000E+00 zmoment=   0.0000E+00
 nd#     822  xforce=   0.0000E+00   yforce=   0.0000E+00  zforce=  -8.5595E+01   energy=   1.4481E-01   setid =     822 xmoment=   0.0000E+00 ymoment=   0.0000E+00 zmoment=   0.0000E+00
 nd#     823  xforce=   0.0000E+00   yforce=   0.0000E+00  zforce=  -8.0852E+01   energy=   1.5668E-01   setid =     823 xmoment=   0.0000E+00 ymoment=   0.0000E+00 zmoment=   0.0000E+00
 nd#     824  xforce=   0.0000E+00   yforce=   0.0000E+00  zforce=  -3.5512E+01   energy=   7.5703E-02   setid =     824 xmoment=   0.0000E+00 ymoment=   0.0000E+00 zmoment=   0.0000E+00
 nd#     850  xforce=   0.0000E+00   yforce=   0.0000E+00  zforce=   6.0744E+01   energy=  -6.8703E-02   setid =     850 xmoment=   0.0000E+00 ymoment=   0.0000E+00 zmoment=   0.0000E+00
 nd#     852  xforce=   0.0000E+00   yforce=   0.0000E+00  zforce=   5.9889E+01   energy=  -1.0059E-01   setid =     852 xmoment=   0.0000E+00 ymoment=   0.0000E+00 zmoment=   0.0000E+00
 nd#     854  xforce=   0.0000E+00   yforce=   0.0000E+00  zforce=   9.2391E+01   energy=  -1.5950E-01   setid =     854 xmoment=   0.0000E+00 ymoment=   0.0000E+00 zmoment=   0.0000E+00
 nd#     856  xforce=   0.0000E+00   yforce=   0.0000E+00  zforce=   7.5128E+01   energy=  -1.0805E-01   setid =     856 xmoment=   0.0000E+00 ymoment=   0.0000E+00 zmoment=   0.0000E+00
              xtotal=   0.0000E+00   ytotal=   0.0000E+00  ztotal=  -2.8140E+03   etotal=   5.3163E+00
