 LS-DYNA keyword deck by LS-PrePost                                      
                    ls-dyna smp d R14 R14.1.1s_1_ef50e1 date 06/16/2024



 n o d a l  s t r e s s  c a l c u l a t i o n s   f o r   t i m e  s t e p        1   ( at time 0.00000E+00 )

 node (global)
          stress       sig-xx      sig-yy      sig-zz      sig-xy      sig-yz      sig-zx       plastic
                                                                                                 strain 
       1-
 mid.  surface     5.3602E-05  5.3602E-05  5.3602E-05  0.0000E+00  0.0000E+00  0.0000E+00  0.0000E+00
       2-
 mid.  surface     9.5276E-05  9.5276E-05  9.5276E-05  0.0000E+00  0.0000E+00  0.0000E+00  0.0000E+00
       8-
 mid.  surface     3.1932E-05  3.1932E-05  3.1932E-05  0.0000E+00  0.0000E+00  0.0000E+00  0.0000E+00
       9-
 mid.  surface    -2.9208E-05 -2.9208E-05 -2.9208E-05  0.0000E+00  0.0000E+00  0.0000E+00  0.0000E+00
      10-
 mid.  surface     4.4959E-05  4.4959E-05  4.4959E-05  0.0000E+00  0.0000E+00  0.0000E+00  0.0000E+00
      11-
 mid.  surface     2.9827E-05  2.9827E-05  2.9827E-05  0.0000E+00  0.0000E+00  0.0000E+00  0.0000E+00
      12-
 mid.  surface     5.5756E-05  5.5756E-05  5.5756E-05  0.0000E+00  0.0000E+00  0.0000E+00  0.0000E+00
      17-
 mid.  surface    -2.1580E-05 -2.1580E-05 -2.1580E-05  0.0000E+00  0.0000E+00  0.0000E+00  0.0000E+00
      18-
 mid.  surface     2.1147E-05  2.1147E-05  2.1147E-05  0.0000E+00  0.0000E+00  0.0000E+00  0.0000E+00
      19-
 mid.  surface     7.9568E-05  7.9568E-05  7.9568E-05  0.0000E+00  0.0000E+00  0.0000E+00  0.0000E+00
      20-
 mid.  surface    -2.1451E-05 -2.1451E-05 -2.1451E-05  0.0000E+00  0.0000E+00  0.0000E+00  0.0000E+00
      21-
 mid.  surface    -2.6336E-05 -2.6336E-05 -2.6336E-05  0.0000E+00  0.0000E+00  0.0000E+00  0.0000E+00
      22-
 mid.  surface    -2.2547E-05 -2.2547E-05 -2.2547E-05  0.0000E+00  0.0000E+00  0.0000E+00  0.0000E+00
      23-
 mid.  surface     3.9965E-05  3.9965E-05  3.9965E-05  0.0000E+00  0.0000E+00  0.0000E+00  0.0000E+00
      24-
 mid.  surface    -3.6755E-05 -3.6755E-05 -3.6755E-05  0.0000E+00  0.0000E+00  0.0000E+00  0.0000E+00
      25-
 mid.  surface    -1.1793E-04 -1.1793E-04 -1.1793E-04  0.0000E+00  0.0000E+00  0.0000E+00  0.0000E+00
      26-
 mid.  surface    -2.6337E-05 -2.6337E-05 -2.6337E-05  0.0000E+00  0.0000E+00  0.0000E+00  0.0000E+00
      27-
 mid.  surface     1.7217E-05  1.7217E-05  1.7217E-05  0.0000E+00  0.0000E+00  0.0000E+00  0.0000E+00
      28-
 mid.  surface    -7.0051E-05 -7.0051E-05 -7.0051E-05  0.0000E+00  0.0000E+00  0.0000E+00  0.0000E+00
      29-
 mid.  surface     2.3031E-05  2.3031E-05  2.3031E-05  0.0000E+00  0.0000E+00  0.0000E+00  0.0000E+00
      30-
 mid.  surface     1.0553E-04  1.0553E-04  1.0553E-04  0.0000E+00  0.0000E+00  0.0000E+00  0.0000E+00
      31-
 mid.  surface     2.1940E-06  2.1940E-06  2.1940E-06  0.0000E+00  0.0000E+00  0.0000E+00  0.0000E+00
      52-
 mid.  surface     2.4654E-05  2.4654E-05  2.4654E-05  0.0000E+00  0.0000E+00  0.0000E+00  0.0000E+00
      53-
 mid.  surface     1.0593E-05  1.0593E-05  1.0593E-05  0.0000E+00  0.0000E+00  0.0000E+00  0.0000E+00
      54-
 mid.  surface    -2.6127E-07 -2.6127E-07 -2.6127E-07  0.0000E+00  0.0000E+00  0.0000E+00  0.0000E+00
      55-
 mid.  surface     1.9499E-05  1.9499E-05  1.9499E-05  0.0000E+00  0.0000E+00  0.0000E+00  0.0000E+00
      56-
 mid.  surface     3.6803E-05  3.6803E-05  3.6803E-05  0.0000E+00  0.0000E+00  0.0000E+00  0.0000E+00
      57-
 mid.  surface     6.2769E-05  6.2769E-05  6.2769E-05  0.0000E+00  0.0000E+00  0.0000E+00  0.0000E+00
     124-
 mid.  surface     1.8158E-05  1.8158E-05  1.8158E-05  0.0000E+00  0.0000E+00  0.0000E+00  0.0000E+00
     125-
 mid.  surface     1.3029E-05  1.3029E-05  1.3029E-05  0.0000E+00  0.0000E+00  0.0000E+00  0.0000E+00
     126-
 mid.  surface    -9.8736E-05 -9.8736E-05 -9.8736E-05  0.0000E+00  0.0000E+00  0.0000E+00  0.0000E+00
     127-
 mid.  surface    -8.0053E-05 -8.0053E-05 -8.0053E-05  0.0000E+00  0.0000E+00  0.0000E+00  0.0000E+00
     128-
 mid.  surface     5.3601E-05  5.3601E-05  5.3601E-05  0.0000E+00  0.0000E+00  0.0000E+00  0.0000E+00
     129-
 mid.  surface     9.5276E-05  9.5276E-05  9.5276E-05  0.0000E+00  0.0000E+00  0.0000E+00  0.0000E+00
     148-
 mid.  surface    -1.7321E-05 -1.7321E-05 -1.7321E-05  0.0000E+00  0.0000E+00  0.0000E+00  0.0000E+00
     149-
 mid.  surface    -3.8993E-05 -3.8993E-05 -3.8993E-05  0.0000E+00  0.0000E+00  0.0000E+00  0.0000E+00
     150-
 mid.  surface     3.0263E-05  3.0263E-05  3.0263E-05  0.0000E+00  0.0000E+00  0.0000E+00  0.0000E+00
     164-
 mid.  surface    -6.5754E-05 -6.5754E-05 -6.5754E-05  0.0000E+00  0.0000E+00  0.0000E+00  0.0000E+00
     165-
 mid.  surface    -4.6276E-05 -4.6276E-05 -4.6276E-05  0.0000E+00  0.0000E+00  0.0000E+00  0.0000E+00
     166-
 mid.  surface     2.0005E-05  2.0005E-05  2.0005E-05  0.0000E+00  0.0000E+00  0.0000E+00  0.0000E+00



 n o d a l  s t r a i n  c a l c u l a t i o n s   f o r   t i m e  s t e p        1   ( at time 0.00000E+00 )

 node (global)
          strain       eps-xx      eps-yy      eps-zz      eps-xy      eps-yz      eps-zx       
       1-
 mid.  surface     0.0000E+00  0.0000E+00  0.0000E+00  0.0000E+00  0.0000E+00  0.0000E+00
       2-
 mid.  surface     0.0000E+00  0.0000E+00  0.0000E+00  0.0000E+00  0.0000E+00  0.0000E+00
       8-
 mid.  surface     0.0000E+00  0.0000E+00  0.0000E+00  0.0000E+00  0.0000E+00  0.0000E+00
       9-
 mid.  surface     0.0000E+00  0.0000E+00  0.0000E+00  0.0000E+00  0.0000E+00  0.0000E+00
      10-
 mid.  surface     0.0000E+00  0.0000E+00  0.0000E+00  0.0000E+00  0.0000E+00  0.0000E+00
      11-
 mid.  surface     0.0000E+00  0.0000E+00  0.0000E+00  0.0000E+00  0.0000E+00  0.0000E+00
      12-
 mid.  surface     0.0000E+00  0.0000E+00  0.0000E+00  0.0000E+00  0.0000E+00  0.0000E+00
      17-
 mid.  surface     0.0000E+00  0.0000E+00  0.0000E+00  0.0000E+00  0.0000E+00  0.0000E+00
      18-
 mid.  surface     0.0000E+00  0.0000E+00  0.0000E+00  0.0000E+00  0.0000E+00  0.0000E+00
      19-
 mid.  surface     0.0000E+00  0.0000E+00  0.0000E+00  0.0000E+00  0.0000E+00  0.0000E+00
      20-
 mid.  surface     0.0000E+00  0.0000E+00  0.0000E+00  0.0000E+00  0.0000E+00  0.0000E+00
      21-
 mid.  surface     0.0000E+00  0.0000E+00  0.0000E+00  0.0000E+00  0.0000E+00  0.0000E+00
      22-
 mid.  surface     0.0000E+00  0.0000E+00  0.0000E+00  0.0000E+00  0.0000E+00  0.0000E+00
      23-
 mid.  surface     0.0000E+00  0.0000E+00  0.0000E+00  0.0000E+00  0.0000E+00  0.0000E+00
      24-
 mid.  surface     0.0000E+00  0.0000E+00  0.0000E+00  0.0000E+00  0.0000E+00  0.0000E+00
      25-
 mid.  surface     0.0000E+00  0.0000E+00  0.0000E+00  0.0000E+00  0.0000E+00  0.0000E+00
      26-
 mid.  surface     0.0000E+00  0.0000E+00  0.0000E+00  0.0000E+00  0.0000E+00  0.0000E+00
      27-
 mid.  surface     0.0000E+00  0.0000E+00  0.0000E+00  0.0000E+00  0.0000E+00  0.0000E+00
      28-
 mid.  surface     0.0000E+00  0.0000E+00  0.0000E+00  0.0000E+00  0.0000E+00  0.0000E+00
      29-
 mid.  surface     0.0000E+00  0.0000E+00  0.0000E+00  0.0000E+00  0.0000E+00  0.0000E+00
      30-
 mid.  surface     0.0000E+00  0.0000E+00  0.0000E+00  0.0000E+00  0.0000E+00  0.0000E+00
      31-
 mid.  surface     0.0000E+00  0.0000E+00  0.0000E+00  0.0000E+00  0.0000E+00  0.0000E+00
      52-
 mid.  surface     0.0000E+00  0.0000E+00  0.0000E+00  0.0000E+00  0.0000E+00  0.0000E+00
      53-
 mid.  surface     0.0000E+00  0.0000E+00  0.0000E+00  0.0000E+00  0.0000E+00  0.0000E+00
      54-
 mid.  surface     0.0000E+00  0.0000E+00  0.0000E+00  0.0000E+00  0.0000E+00  0.0000E+00
      55-
 mid.  surface     0.0000E+00  0.0000E+00  0.0000E+00  0.0000E+00  0.0000E+00  0.0000E+00
      56-
 mid.  surface     0.0000E+00  0.0000E+00  0.0000E+00  0.0000E+00  0.0000E+00  0.0000E+00
      57-
 mid.  surface     0.0000E+00  0.0000E+00  0.0000E+00  0.0000E+00  0.0000E+00  0.0000E+00
     124-
 mid.  surface     0.0000E+00  0.0000E+00  0.0000E+00  0.0000E+00  0.0000E+00  0.0000E+00
     125-
 mid.  surface     0.0000E+00  0.0000E+00  0.0000E+00  0.0000E+00  0.0000E+00  0.0000E+00
     126-
 mid.  surface     0.0000E+00  0.0000E+00  0.0000E+00  0.0000E+00  0.0000E+00  0.0000E+00
     127-
 mid.  surface     0.0000E+00  0.0000E+00  0.0000E+00  0.0000E+00  0.0000E+00  0.0000E+00
     128-
 mid.  surface     0.0000E+00  0.0000E+00  0.0000E+00  0.0000E+00  0.0000E+00  0.0000E+00
     129-
 mid.  surface     0.0000E+00  0.0000E+00  0.0000E+00  0.0000E+00  0.0000E+00  0.0000E+00
     148-
 mid.  surface     0.0000E+00  0.0000E+00  0.0000E+00  0.0000E+00  0.0000E+00  0.0000E+00
     149-
 mid.  surface     0.0000E+00  0.0000E+00  0.0000E+00  0.0000E+00  0.0000E+00  0.0000E+00
     150-
 mid.  surface     0.0000E+00  0.0000E+00  0.0000E+00  0.0000E+00  0.0000E+00  0.0000E+00
     164-
 mid.  surface     0.0000E+00  0.0000E+00  0.0000E+00  0.0000E+00  0.0000E+00  0.0000E+00
     165-
 mid.  surface     0.0000E+00  0.0000E+00  0.0000E+00  0.0000E+00  0.0000E+00  0.0000E+00
     166-
 mid.  surface     0.0000E+00  0.0000E+00  0.0000E+00  0.0000E+00  0.0000E+00  0.0000E+00



 n o d a l  s t r e s s  c a l c u l a t i o n s   f o r   t i m e  s t e p       10   ( at time 1.29245E+00 )

 node (global)
          stress       sig-xx      sig-yy      sig-zz      sig-xy      sig-yz      sig-zx       plastic
                                                                                                 strain 
       1-
 mid.  surface    -7.5699E+06 -2.3953E+07 -2.7506E+08  4.1340E+07 -1.2734E+07 -3.6591E+07 -1.1918E-04
       2-
 mid.  surface    -7.1079E+07 -4.4508E+07 -3.0053E+08  2.2916E+07 -4.6015E+06 -5.7050E+06  4.6423E-04
       8-
 mid.  surface    -1.2605E+07  5.1210E+07 -2.2404E+08 -7.9604E+06 -6.8423E+06  2.4055E+06 -1.4964E-04
       9-
 mid.  surface    -3.9262E+07 -1.9102E+07 -2.8967E+08 -2.0332E+07 -6.7270E+06  6.6378E+06  3.2738E-04
      10-
 mid.  surface    -4.4277E+07 -1.9063E+07 -2.8275E+08  4.8979E+06 -7.7591E+06  2.0561E+07  4.1335E-04
      11-
 mid.  surface    -1.1097E+07 -9.6262E+06 -2.6666E+08  1.8024E+07 -7.1284E+07 -6.3558E+06  1.8042E-04
      12-
 mid.  surface    -2.4247E+07 -2.1157E+07 -2.6419E+08  1.1639E+07 -6.9463E+07 -2.8905E+07  8.7499E-06
      17-
 mid.  surface     2.0750E+07 -7.9308E+06 -2.3102E+08  2.0044E+07 -3.1877E+07 -2.7034E+07  7.0106E-05
      18-
 mid.  surface    -1.1806E+07  2.6790E+07 -2.2397E+08  2.3709E+07  1.3180E+06 -6.0543E+06  8.1824E-06
      19-
 mid.  surface    -3.8467E+07 -3.6443E+07 -2.5985E+08 -8.1245E+06 -2.2124E+07 -1.6121E+07  3.5945E-04
      20-
 mid.  surface     7.7104E+06 -1.3442E+07 -2.4537E+08  1.5417E+07 -1.1913E+07 -3.4771E+06  1.8360E-05
      21-
 mid.  surface    -3.6133E+07 -3.4929E+07 -2.5750E+08 -6.4661E+06 -5.8387E+06 -8.0205E+05  2.8399E-04
      22-
 mid.  surface    -1.2926E+07 -1.2068E+07 -2.7696E+08  1.0992E+07 -3.1187E+07 -4.8057E+07 -1.4275E-04
      23-
 mid.  surface    -7.3047E+06 -5.3543E+06 -2.7263E+08  1.6435E+07 -3.2150E+07 -2.5969E+07  3.8010E-05
      24-
 mid.  surface    -2.7270E+07 -3.6545E+07 -2.3511E+08  5.1866E+06 -1.8960E+07 -5.8326E+06  8.6319E-05
      25-
 mid.  surface    -3.5436E+07 -3.8249E+07 -2.2058E+08 -3.7682E+06 -1.1204E+07 -1.0270E+07  2.1885E-04
      26-
 mid.  surface    -1.3874E+07 -1.3475E+07 -2.4417E+08  6.3304E+06 -4.9076E+07 -7.5347E+07 -7.5222E-05
      27-
 mid.  surface    -1.2647E+07 -9.3095E+06 -2.4066E+08  1.0428E+07 -5.2497E+07 -4.1934E+07 -2.1577E-05
      28-
 mid.  surface    -5.5033E+07 -6.0462E+07 -2.5283E+08 -1.2375E+06 -2.4478E+07 -1.6669E+07  0.0000E+00
      29-
 mid.  surface    -3.6705E+07 -4.0904E+07 -2.2063E+08 -2.9834E+06 -1.9062E+07 -3.2032E+07  0.0000E+00
      30-
 mid.  surface    -3.2805E+07 -3.0776E+07 -2.2334E+08  1.2127E+06 -6.3505E+07 -8.7471E+07  0.0000E+00
      31-
 mid.  surface    -3.7950E+07 -3.6204E+07 -2.2853E+08  4.5473E+06 -6.2782E+07 -4.3563E+07  0.0000E+00
      52-
 mid.  surface    -3.7743E+07 -1.6197E+07 -2.8680E+08  4.7327E+06 -1.9577E+07 -8.8264E+06  2.3423E-04
      53-
 mid.  surface    -1.6149E+07  1.6067E+07 -2.2993E+08  1.8193E+07 -1.8540E+07 -7.5256E+06 -1.1426E-05
      54-
 mid.  surface    -3.7030E+07 -2.7272E+07 -2.5413E+08  2.4639E+06 -3.5376E+07 -1.6924E+07  8.1755E-05
      55-
 mid.  surface    -3.3312E+07 -1.8396E+07 -2.1777E+08  6.9192E+06 -2.9388E+07 -1.0511E+07  7.5974E-05
      56-
 mid.  surface    -5.4350E+07 -5.5383E+07 -2.4584E+08 -6.1898E+05 -4.6951E+07 -1.8084E+07  0.0000E+00
      57-
 mid.  surface    -5.2119E+07 -4.9500E+07 -2.3737E+08 -9.0348E+04 -3.8628E+07 -1.5736E+07  0.0000E+00
     124-
 mid.  surface    -6.3524E+07 -4.6191E+07 -2.7337E+08  1.5623E+07  2.1847E+07 -1.0950E+07  4.2305E-04
     125-
 mid.  surface    -7.3107E+06 -2.6942E+07 -2.9076E+08  3.2238E+07  5.3645E+07 -6.4861E+07 -2.5796E-04
     126-
 mid.  surface    -4.1673E+07 -4.3728E+07 -2.0602E+08  8.3444E+05  2.6891E+07 -2.4332E+07  2.8666E-04
     127-
 mid.  surface    -3.3230E+07 -5.2262E+07 -2.5922E+08  1.1844E+07  8.3227E+07 -1.0172E+08 -1.0111E-04
     128-
 mid.  surface    -2.7936E+07 -3.7892E+07 -1.9377E+08 -7.9309E+06  1.4941E+07 -4.3591E+07  0.0000E+00
     129-
 mid.  surface    -6.5000E+07 -8.1162E+07 -2.4346E+08 -1.0186E+06  7.6355E+07 -1.1802E+08  0.0000E+00
     148-
 mid.  surface    -1.6241E+07  3.7214E+07 -2.3106E+08 -6.4389E+06 -1.8424E+07  3.2170E+06 -1.4647E-04
     149-
 mid.  surface    -3.5236E+07 -8.3451E+06 -2.2257E+08 -2.0956E+06 -2.3540E+07  8.5210E+06  2.9109E-05
     150-
 mid.  surface    -5.2793E+07 -4.2789E+07 -2.4394E+08  2.1905E+06 -3.2091E+07  8.2026E+06  0.0000E+00
     164-
 mid.  surface    -3.1599E+07 -1.6528E+07 -2.9041E+08 -1.5815E+07 -2.5609E+07 -2.0120E+07  1.6562E-04
     165-
 mid.  surface    -2.8797E+07 -3.0355E+07 -2.4806E+08 -6.3319E+06 -4.5378E+07 -3.4816E+07  7.3532E-05
     166-
 mid.  surface    -4.1232E+07 -5.7706E+07 -2.3509E+08  6.5359E+04 -5.9210E+07 -3.8641E+07  0.0000E+00



 n o d a l  s t r a i n  c a l c u l a t i o n s   f o r   t i m e  s t e p       10   ( at time 1.29245E+00 )

 node (global)
          strain       eps-xx      eps-yy      eps-zz      eps-xy      eps-yz      eps-zx       
       1-
 mid.  surface     1.1780E-03  8.1008E-04 -3.4429E-03  7.7317E-04 -2.1344E-04 -6.8745E-04
       2-
 mid.  surface     1.2720E-03  1.7510E-03 -4.9997E-03  5.1838E-04 -6.3397E-05 -3.3521E-04
       8-
 mid.  surface     4.3855E-04  1.7083E-03 -3.0283E-03 -1.9059E-04 -6.3463E-05  5.1718E-05
       9-
 mid.  surface     1.3087E-03  1.7335E-03 -4.6987E-03 -3.6945E-04 -2.0638E-04  1.0775E-04
      10-
 mid.  surface     1.3189E-03  1.8475E-03 -4.8137E-03  1.4238E-04 -1.9520E-04  3.2723E-04
      11-
 mid.  surface     1.4540E-03  1.3799E-03 -4.2031E-03  3.5083E-04 -1.3312E-03 -2.1102E-04
      12-
 mid.  surface     1.0468E-03  1.0299E-03 -3.5481E-03  1.9903E-04 -1.2526E-03 -5.9680E-04
      17-
 mid.  surface     1.5134E-03  1.0184E-03 -3.5702E-03  4.1821E-04 -4.5055E-04 -6.1149E-04
      18-
 mid.  surface     7.4855E-04  1.5601E-03 -3.3018E-03  4.6109E-04  5.8610E-05 -1.6930E-04
      19-
 mid.  surface     1.2972E-03  1.4128E-03 -4.3015E-03 -9.4114E-05 -2.5914E-04 -4.7571E-04
      20-
 mid.  surface     1.3524E-03  9.7311E-04 -3.5195E-03  3.0700E-04 -2.2375E-04 -5.1453E-05
      21-
 mid.  surface     1.2125E-03  1.2714E-03 -4.0459E-03 -8.7189E-05 -1.2705E-04 -1.1918E-04
      22-
 mid.  surface     1.0215E-03  1.0071E-03 -3.4636E-03  1.7596E-04 -5.2449E-04 -8.1573E-04
      23-
 mid.  surface     1.3095E-03  1.2687E-03 -3.9364E-03  2.9421E-04 -5.4267E-04 -4.8172E-04
      24-
 mid.  surface     1.0095E-03  8.5046E-04 -3.2800E-03  1.1920E-04 -4.3644E-04 -1.7286E-04
      25-
 mid.  surface     1.0003E-03  9.4067E-04 -3.3396E-03 -4.3662E-05 -2.7896E-04 -3.2590E-04
      26-
 mid.  surface     9.4330E-04  9.6033E-04 -3.1940E-03  1.1731E-04 -9.2575E-04 -1.3801E-03
      27-
 mid.  surface     1.0035E-03  1.0522E-03 -3.3045E-03  1.9000E-04 -9.7437E-04 -7.9813E-04
      28-
 mid.  surface     7.1020E-04  6.0658E-04 -3.0645E-03 -2.3606E-05 -4.6704E-04 -3.1799E-04
      29-
 mid.  surface     7.2449E-04  6.4487E-04 -2.7856E-03 -5.7014E-05 -3.6383E-04 -6.1155E-04
      30-
 mid.  surface     7.4493E-04  7.8343E-04 -2.8910E-03  2.3292E-05 -1.2118E-03 -1.6694E-03
      31-
 mid.  surface     7.2218E-04  7.5549E-04 -2.9150E-03  8.6820E-05 -1.1982E-03 -8.3139E-04
      52-
 mid.  surface     1.1900E-03  1.6072E-03 -4.4181E-03  1.1425E-04 -4.5809E-04 -2.1614E-04
      53-
 mid.  surface     7.4598E-04  1.3972E-03 -3.2358E-03  3.5539E-04 -4.0668E-04 -1.3815E-04
      54-
 mid.  surface     9.1257E-04  1.1017E-03 -3.5278E-03  5.4733E-05 -7.6807E-04 -3.6033E-04
      55-
 mid.  surface     7.3205E-04  1.0434E-03 -3.0552E-03  1.4593E-04 -6.6251E-04 -2.2790E-04
      56-
 mid.  surface     6.6211E-04  6.4239E-04 -2.9927E-03 -1.1723E-05 -8.9622E-04 -3.4483E-04
      57-
 mid.  surface     6.2560E-04  6.7553E-04 -2.9099E-03 -1.7156E-06 -7.3727E-04 -3.0035E-04
     124-
 mid.  surface     1.1566E-03  1.4748E-03 -4.4518E-03  3.4924E-04  1.7862E-04 -3.5066E-04
     125-
 mid.  surface     1.0685E-03  7.1747E-04 -3.3288E-03  5.9271E-04  9.3557E-04 -1.0810E-03
     126-
 mid.  surface     9.4939E-04  8.9577E-04 -3.2308E-03  4.3064E-05  2.8054E-04 -5.8945E-04
     127-
 mid.  surface     8.7186E-04  5.4640E-04 -3.0550E-03  2.2719E-04  1.4480E-03 -1.8400E-03
     128-
 mid.  surface     7.0715E-04  5.1768E-04 -2.4585E-03 -1.5146E-04  2.8539E-04 -8.3150E-04
     129-
 mid.  surface     6.2223E-04  3.1292E-04 -2.7840E-03 -1.9269E-05  1.4577E-03 -2.2514E-03
     148-
 mid.  surface     4.9865E-04  1.5403E-03 -3.0371E-03 -1.4293E-04 -2.8042E-04  1.1674E-04
     149-
 mid.  surface     6.2562E-04  1.1686E-03 -3.0581E-03 -3.6673E-05 -4.7725E-04  1.8018E-04
     150-
 mid.  surface     6.1524E-04  8.0604E-04 -3.0327E-03  4.1719E-05 -6.1224E-04  1.5683E-04
     164-
 mid.  surface     1.2144E-03  1.4998E-03 -4.3246E-03 -2.8840E-04 -5.3829E-04 -3.8414E-04
     165-
 mid.  surface     1.0062E-03  9.8271E-04 -3.4491E-03 -1.1270E-04 -9.3680E-04 -6.6503E-04
     166-
 mid.  surface     8.0939E-04  4.9522E-04 -2.8907E-03  1.3815E-06 -1.1298E-03 -7.3675E-04



 n o d a l  s t r e s s  c a l c u l a t i o n s   f o r   t i m e  s t e p      297   ( at time 2.45836E+00 )

 node (global)
          stress       sig-xx      sig-yy      sig-zz      sig-xy      sig-yz      sig-zx       plastic
                                                                                                 strain 
       1-
 mid.  surface    -6.2202E+07 -1.3688E+07 -3.9047E+08  7.6028E+07 -3.1039E+07  1.2735E+08 -3.5321E-03
       2-
 mid.  surface    -7.3415E+08 -5.9289E+08 -9.8345E+08  5.4252E+07 -3.6633E+07  1.7982E+08  8.6161E-03
       8-
 mid.  surface     1.0306E+08  1.6014E+08 -1.4287E+08 -1.3005E+07  3.8928E+07 -4.9665E+06 -2.7293E-03
       9-
 mid.  surface    -8.4414E+07 -8.1584E+07 -3.8937E+08 -2.3835E+07  4.9943E+07  1.4082E+06  1.8734E-02
      10-
 mid.  surface    -1.7900E+08 -2.0802E+08 -3.7651E+08  2.4433E+05 -2.1306E+07  1.8910E+07  2.2469E-02
      11-
 mid.  surface     2.5483E+08  2.4616E+08 -4.5276E+07  3.6603E+07 -1.7052E+08 -5.0989E+07  7.5669E-03
      12-
 mid.  surface     2.6289E+08  2.8268E+08  1.2367E+08  4.9074E+06 -2.1453E+08 -1.3581E+07  1.4666E-02
      17-
 mid.  surface     2.8848E+08  2.7728E+08  5.0077E+07  3.2626E+07 -1.2941E+08 -7.8107E+07  6.1766E-03
      18-
 mid.  surface     1.2499E+07  3.4935E+07 -1.2653E+08  7.0655E+06 -1.2289E+06 -1.9306E+07  7.9264E-03
      19-
 mid.  surface    -1.9046E+08 -1.5002E+08 -2.8348E+08 -1.0736E+07 -1.6404E+08  2.4671E+06  2.2471E-02
      20-
 mid.  surface     1.8112E+08  1.7130E+08 -9.5301E+07  2.7498E+07 -6.4060E+05  4.6189E+06  8.1251E-03
      21-
 mid.  surface    -1.1185E+08 -9.4400E+07 -2.4989E+08  8.9568E+05 -4.3817E+07  3.4821E+07  1.9817E-02
      22-
 mid.  surface     2.4686E+08  2.5320E+08  4.5990E+07  2.0314E+07 -4.9452E+07 -1.9939E+07  8.2350E-03
      23-
 mid.  surface     1.3763E+08  1.2913E+08 -1.5476E+08  2.9629E+07 -2.5892E+06 -3.3881E+06  9.3924E-03
      24-
 mid.  surface    -4.0776E+07 -3.5562E+07 -2.9703E+08  1.1344E+07 -4.0154E+07 -3.5938E+06  1.4737E-03
      25-
 mid.  surface    -1.1046E+07 -5.5613E+07 -2.0635E+08  5.9335E+06 -7.5649E+07  2.6095E+07  9.5345E-03
      26-
 mid.  surface     1.7574E+08  1.6255E+08 -1.0167E+08  4.0068E+07 -6.3443E+07 -5.7810E+07 -1.3269E-03
      27-
 mid.  surface    -1.1651E+07 -1.7203E+07 -2.4562E+08  2.2731E+07 -3.8437E+07 -2.2857E+07  1.1009E-03
      28-
 mid.  surface    -2.5781E+08 -2.3410E+08 -4.9994E+08 -6.3292E+06 -5.4867E+07 -1.6863E+07  2.6002E-03
      29-
 mid.  surface    -8.2994E+07 -1.5963E+08 -2.7336E+08 -1.9721E+07 -7.2413E+07 -5.6778E+07  4.8631E-03
      30-
 mid.  surface     1.4647E+07  3.8786E+06 -2.4306E+08  2.6799E+07 -9.1298E+07 -1.4349E+08  2.2397E-03
      31-
 mid.  surface    -1.6236E+08 -1.5657E+08 -3.3845E+08  1.8194E+07 -9.6376E+07 -3.1613E+06  3.5736E-03
      52-
 mid.  surface    -1.5060E+08 -1.6488E+08 -3.9904E+08  4.7414E+06  1.2646E+07  1.4193E+06  1.8008E-02
      53-
 mid.  surface    -2.0174E+07 -9.1025E+05 -2.3334E+08  8.6844E+06  1.2096E+07  2.3275E+06  9.2307E-03
      54-
 mid.  surface    -6.4636E+07 -6.4482E+07 -2.8491E+08  1.5236E+07 -3.4905E+07 -1.8996E+07  3.2085E-03
      55-
 mid.  surface    -7.1534E+07 -5.9114E+07 -3.0480E+08 -6.4959E+05 -4.7641E+07 -1.7284E+07  2.3697E-03
      56-
 mid.  surface    -2.0131E+08 -2.0074E+08 -3.7008E+08  1.9140E+07 -4.6566E+07  3.1657E+06  2.4211E-03
      57-
 mid.  surface    -2.6425E+08 -2.6040E+08 -4.5900E+08 -1.5405E+07 -6.1348E+07 -1.7039E+07  3.3085E-03
     124-
 mid.  surface    -5.7220E+08 -4.9410E+08 -7.3477E+08  2.1588E+07  8.4934E+07 -4.2324E+07  1.8878E-02
     125-
 mid.  surface    -1.1774E+08 -9.8193E+07 -3.9452E+08  4.7498E+07  1.7777E+08 -9.4168E+07 -1.8188E-03
     126-
 mid.  surface    -1.9612E+08 -2.5648E+08 -2.6083E+08 -2.5965E+07  1.1084E+08 -2.8071E+07  1.8461E-02
     127-
 mid.  surface    -1.4999E+08 -1.7874E+08 -4.1033E+08  2.0436E+07  2.5467E+08 -1.1140E+08  1.4374E-03
     128-
 mid.  surface    -1.1063E+06 -1.1157E+08  1.0148E+08 -8.3257E+07  1.4141E+08 -2.0523E+08  8.1255E-03
     129-
 mid.  surface    -8.0163E+07 -1.2241E+08 -2.7906E+08 -2.3500E+07  2.8150E+08 -2.9414E+08  4.6837E-04
     148-
 mid.  surface     3.7818E+07  7.9502E+07 -2.3011E+08 -6.0386E+06 -2.8028E+07 -6.3542E+06  2.7936E-03
     149-
 mid.  surface    -5.3133E+07 -3.8095E+07 -3.0346E+08 -9.6350E+06 -5.5478E+07 -2.1187E+07  1.8656E-03
     150-
 mid.  surface    -2.3374E+08 -2.5591E+08 -4.1013E+08 -9.2495E+06 -8.7838E+07 -2.3624E+07  3.4008E-03
     164-
 mid.  surface    -6.8589E+07 -6.9836E+07 -3.7362E+08 -1.4556E+07 -1.5836E+07 -3.6781E+07  1.5151E-02
     165-
 mid.  surface     1.1866E+06  3.3694E+06 -2.4589E+08 -6.8661E+06 -3.7032E+07 -8.2193E+07  2.6557E-03
     166-
 mid.  surface    -1.0374E+08 -1.1614E+08 -2.7145E+08  1.3176E+06 -4.4794E+07 -9.2443E+07  2.2845E-03



 n o d a l  s t r a i n  c a l c u l a t i o n s   f o r   t i m e  s t e p      297   ( at time 2.45836E+00 )

 node (global)
          strain       eps-xx      eps-yy      eps-zz      eps-xy      eps-yz      eps-zx       
       1-
 mid.  surface     8.2854E-04  5.4223E-03 -8.3571E-03  4.9969E-03 -1.5931E-03  5.4188E-03
       2-
 mid.  surface     1.3492E-03  8.5214E-03 -2.0680E-02  2.2800E-03 -4.7938E-04  6.9816E-03
       8-
 mid.  surface     3.0611E-03  7.5180E-03 -1.0025E-02 -1.1076E-03  3.3606E-03 -2.5774E-04
       9-
 mid.  surface     7.3086E-03  7.5429E-03 -1.7531E-02 -1.9145E-03  3.6457E-03  1.4976E-04
      10-
 mid.  surface     7.3033E-03  4.9532E-03 -1.5928E-02  3.9453E-04 -7.2227E-04  1.4743E-03
      11-
 mid.  surface     7.9188E-03  7.0125E-03 -1.2834E-02  2.7739E-03 -1.2005E-02 -3.8925E-03
      12-
 mid.  surface     4.1388E-03  5.9990E-03 -7.0596E-03  1.6532E-03 -1.2233E-02 -6.1718E-03
      17-
 mid.  surface     7.4744E-03  6.5015E-03 -1.1093E-02  2.4614E-03 -8.9517E-03 -6.6361E-03
      18-
 mid.  surface     3.8242E-03  5.3946E-03 -9.6084E-03  9.2460E-04  4.2167E-04 -1.2238E-03
      19-
 mid.  surface     5.3313E-03  6.6074E-03 -1.4965E-02 -1.2035E-04 -7.0380E-03 -5.7651E-03
      20-
 mid.  surface     6.3155E-03  5.3833E-03 -1.0493E-02  1.8518E-03  9.1096E-04  7.3482E-04
      21-
 mid.  surface     5.5173E-03  5.6171E-03 -1.3362E-02  4.6603E-04 -8.9915E-04  1.0778E-03
      22-
 mid.  surface     5.0072E-03  5.5451E-03 -8.0437E-03  1.9875E-03 -2.7136E-03 -2.0828E-03
      23-
 mid.  surface     6.7177E-03  5.8507E-03 -1.2075E-02  2.0331E-03  1.0004E-03 -3.7529E-04
      24-
 mid.  surface     3.6725E-03  3.4455E-03 -8.8861E-03  4.8654E-04 -1.2972E-03  4.3315E-04
      25-
 mid.  surface     5.0860E-03  2.7949E-03 -9.2107E-03  3.7786E-04 -2.6150E-03  1.1507E-03
      26-
 mid.  surface     5.2214E-03  4.8376E-03 -8.9622E-03  2.0676E-03 -5.2883E-03 -3.4750E-03
      27-
 mid.  surface     3.9190E-03  3.8903E-03 -9.1271E-03  1.1062E-03 -1.9269E-03 -1.2659E-03
      28-
 mid.  surface     1.2945E-03  2.2003E-03 -8.1961E-03 -2.7412E-04 -1.1121E-03 -6.3520E-04
      29-
 mid.  surface     3.8405E-03  3.3185E-04 -6.6101E-03 -2.5235E-05 -2.4664E-03  6.1866E-04
      30-
 mid.  surface     4.0473E-03  3.9144E-03 -9.0026E-03  1.9058E-03 -7.7608E-03 -3.2773E-03
      31-
 mid.  surface     1.5745E-03  2.4722E-03 -7.1684E-03  8.4555E-04 -3.9276E-03 -6.5850E-04
      52-
 mid.  surface     6.0898E-03  5.0182E-03 -1.4530E-02  4.5789E-04 -4.2363E-05 -1.0472E-03
      53-
 mid.  surface     3.7498E-03  5.0899E-03 -1.0044E-02  7.5945E-04 -4.1468E-04 -5.6728E-04
      54-
 mid.  surface     3.2237E-03  3.2979E-03 -8.5041E-03  7.4364E-04 -2.6265E-03 -1.2985E-03
      55-
 mid.  surface     2.9550E-03  3.2668E-03 -8.2883E-03  2.1279E-04 -3.4950E-03 -1.0246E-03
      56-
 mid.  surface     8.6397E-04  8.9196E-04 -5.4196E-03  5.7537E-04 -1.6127E-03 -1.9923E-04
      57-
 mid.  surface     1.5670E-03  1.2148E-03 -7.4478E-03 -5.9744E-04 -2.3360E-03 -1.0843E-03
     124-
 mid.  surface     2.1055E-03  6.0824E-03 -1.6694E-02  9.6990E-04  3.7024E-03 -3.1549E-03
     125-
 mid.  surface     2.1336E-03  3.8691E-03 -8.8774E-03  2.9297E-03  9.0362E-03 -5.5195E-03
     126-
 mid.  surface     2.6834E-03  1.1615E-03 -7.2621E-03 -9.6210E-04  5.1192E-03 -4.4724E-03
     127-
 mid.  surface     3.5435E-03  1.4861E-03 -8.5266E-03  2.4998E-04  1.2937E-02 -8.0938E-03
     128-
 mid.  surface     1.6275E-03 -2.1805E-03  4.8138E-04 -2.5416E-03  5.1974E-03 -8.3664E-03
     129-
 mid.  surface     2.8632E-03 -2.9466E-04 -4.7763E-03 -1.7994E-03  1.1356E-02 -1.2379E-02
     148-
 mid.  surface     3.1080E-03  6.2290E-03 -9.8730E-03 -5.4428E-04 -1.3843E-03 -1.6148E-04
     149-
 mid.  surface     2.6290E-03  3.5013E-03 -8.0079E-03 -3.0698E-04 -4.0038E-03 -5.1606E-04
     150-
 mid.  surface     1.8886E-03  9.9867E-04 -7.1630E-03 -3.8206E-05 -3.8375E-03 -5.5771E-04
     164-
 mid.  surface     6.2978E-03  6.2676E-03 -1.5034E-02 -1.1261E-03 -6.3263E-04 -2.5424E-03
     165-
 mid.  surface     3.5634E-03  3.6414E-03 -8.3756E-03 -4.5560E-04 -2.6633E-03 -3.6147E-03
     166-
 mid.  surface     1.5460E-03  1.1661E-03 -5.0485E-03  3.8064E-06 -2.2819E-03 -3.0794E-03



 n o d a l  s t r e s s  c a l c u l a t i o n s   f o r   t i m e  s t e p      303   ( at time 3.38229E+00 )

 node (global)
          stress       sig-xx      sig-yy      sig-zz      sig-xy      sig-yz      sig-zx       plastic
                                                                                                 strain 
       1-
 mid.  surface    -6.0100E+07 -1.1733E+07 -3.6005E+08  4.3214E+07 -2.2039E+07  9.6258E+07  1.7881E-03
       2-
 mid.  surface    -9.6545E+08 -8.4356E+08 -1.2107E+09  4.3162E+07 -3.0565E+07  1.2124E+08  1.8040E-02
       8-
 mid.  surface     1.5520E+08  1.8757E+08 -9.0736E+07 -1.1206E+07  1.5334E+07 -5.5073E+06  4.7112E-03
       9-
 mid.  surface    -1.1329E+08 -1.1651E+08 -4.0022E+08 -1.8578E+07  2.4575E+07 -5.1392E+05  2.8133E-02
      10-
 mid.  surface    -1.7703E+08 -2.0706E+08 -4.2113E+08  8.0933E+05 -3.6903E+07  9.5660E+06  3.1380E-02
      11-
 mid.  surface     3.2859E+08  3.1428E+08  3.0262E+07  1.9409E+07 -1.2929E+08 -3.0514E+07  1.4892E-02
      12-
 mid.  surface     4.0748E+08  4.2457E+08  2.1068E+08 -6.7249E+06 -1.5785E+08 -2.3548E+07  2.1986E-02
      17-
 mid.  surface     3.7085E+08  3.6790E+08  1.3404E+08  2.0088E+07 -1.0684E+08 -5.6975E+07  1.4652E-02
      18-
 mid.  surface     8.4920E+07  9.3860E+07 -1.1306E+08  3.9151E+06 -2.3768E+07 -1.6982E+07  1.5724E-02
      19-
 mid.  surface    -2.3616E+08 -1.9068E+08 -3.9047E+08 -4.7116E+06 -1.2415E+08 -2.0682E+07  3.2930E-02
      20-
 mid.  surface     2.2981E+08  2.2191E+08 -4.6090E+07  1.5493E+07  1.3507E+05 -9.0183E+05  1.4959E-02
      21-
 mid.  surface    -1.2596E+08 -1.0696E+08 -3.1313E+08  2.2875E+06 -2.2400E+07  1.0698E+07  2.9313E-02
      22-
 mid.  surface     3.6078E+08  3.6210E+08  1.1777E+08  9.5023E+06 -2.5741E+07 -2.1553E+07  1.4784E-02
      23-
 mid.  surface     1.7841E+08  1.6903E+08 -1.1873E+08  1.3813E+07  6.5060E+06 -1.4937E+06  1.5914E-02
      24-
 mid.  surface    -4.9580E+07 -5.3534E+07 -3.1742E+08  3.9529E+06 -3.4346E+07 -1.4581E+07  6.4526E-03
      25-
 mid.  surface     9.1816E+06 -2.5583E+07 -2.0130E+08  5.0222E+06 -4.8303E+07  2.1328E+06  1.6735E-02
      26-
 mid.  surface     2.0818E+08  1.9408E+08 -7.8363E+07  2.8804E+07 -4.9600E+07 -5.9766E+07  3.8088E-03
      27-
 mid.  surface    -7.8463E+06 -8.9428E+06 -2.6174E+08  1.1592E+07 -3.8631E+07 -3.1944E+07  5.9557E-03
      28-
 mid.  surface    -3.5147E+08 -3.4311E+08 -5.7229E+08 -7.2338E+06 -7.3375E+07 -3.4690E+07  6.7526E-03
      29-
 mid.  surface    -1.0201E+08 -1.5166E+08 -2.7815E+08 -9.3672E+06 -9.0569E+07 -5.8347E+07  1.0331E-02
      30-
 mid.  surface    -2.7970E+07 -2.6511E+07 -2.7126E+08  2.3046E+07 -1.2636E+08 -1.1922E+08  6.6600E-03
      31-
 mid.  surface    -2.0654E+08 -1.9645E+08 -3.6744E+08  1.1078E+07 -1.1344E+08 -2.6314E+07  8.1454E-03
      52-
 mid.  surface    -1.5367E+08 -1.6312E+08 -4.2704E+08  3.1545E+06  3.9821E+06 -3.2958E+06  2.5746E-02
      53-
 mid.  surface     2.3733E+07  3.2411E+07 -2.2495E+08  5.7466E+06  4.4262E+06 -1.8646E+06  1.6110E-02
      54-
 mid.  surface    -5.3601E+07 -4.3723E+07 -2.9722E+08  1.0832E+07 -4.5421E+07 -2.4746E+07  8.7057E-03
      55-
 mid.  surface    -7.3654E+07 -6.8020E+07 -3.3830E+08  7.0229E+05 -4.6543E+07 -2.0687E+07  7.5730E-03
      56-
 mid.  surface    -2.4828E+08 -2.3782E+08 -4.0437E+08  1.6745E+07 -7.7000E+07 -7.1935E+06  7.2054E-03
      57-
 mid.  surface    -3.5926E+08 -3.5784E+08 -5.6127E+08 -7.1116E+06 -7.7841E+07 -2.3567E+07  8.1172E-03
     124-
 mid.  surface    -7.1681E+08 -6.5107E+08 -9.0118E+08  1.6398E+07  7.2081E+07 -4.7991E+07  2.8462E-02
     125-
 mid.  surface    -1.1154E+08 -9.6907E+07 -3.8182E+08  2.7661E+07  1.4276E+08 -7.8933E+07  3.5594E-03
     126-
 mid.  surface    -1.6868E+08 -2.2204E+08 -2.9069E+08 -2.1480E+07  1.0430E+08 -4.0280E+07  2.6067E-02
     127-
 mid.  surface    -1.6404E+08 -2.0240E+08 -4.3582E+08  7.4238E+06  2.0325E+08 -1.0622E+08  5.8547E-03
     128-
 mid.  surface     9.1330E+07 -3.1793E+06  3.9828E+07 -5.4200E+07  8.0654E+07 -1.3726E+08  1.2918E-02
     129-
 mid.  surface    -1.4654E+08 -1.9201E+08 -4.2016E+08 -2.1698E+07  1.6763E+08 -2.1914E+08  2.5130E-03
     148-
 mid.  surface     7.5152E+07  9.2871E+07 -1.9242E+08 -5.9187E+06 -2.4822E+07 -5.7947E+05  9.3885E-03
     149-
 mid.  surface    -4.5866E+07 -3.9372E+07 -3.0639E+08 -2.8043E+06 -5.6520E+07 -1.2941E+07  7.0716E-03
     150-
 mid.  surface    -3.3369E+08 -3.4418E+08 -5.2612E+08  9.0289E+04 -8.7603E+07 -1.4392E+07  8.1870E-03
     164-
 mid.  surface    -8.5105E+07 -9.2908E+07 -3.7862E+08 -1.1135E+07 -1.1763E+07 -2.1601E+07  2.3050E-02
     165-
 mid.  surface     1.4843E+07  1.6393E+07 -2.3700E+08 -2.3169E+06 -4.1634E+07 -5.7022E+07  8.1225E-03
     166-
 mid.  surface    -1.6033E+08 -1.6398E+08 -3.2954E+08  5.8587E+06 -6.0982E+07 -6.0862E+07  6.9475E-03



 n o d a l  s t r a i n  c a l c u l a t i o n s   f o r   t i m e  s t e p      303   ( at time 3.38229E+00 )

 node (global)
          strain       eps-xx      eps-yy      eps-zz      eps-xy      eps-yz      eps-zx       
       1-
 mid.  surface     3.0836E-03  9.7121E-03 -1.4729E-02  6.0399E-03 -2.0492E-03  7.2087E-03
       2-
 mid.  surface     3.3816E-03  1.3922E-02 -3.1469E-02  3.1597E-03 -5.2597E-04  8.9475E-03
       8-
 mid.  surface     6.4164E-03  1.1692E-02 -1.6966E-02 -1.5207E-03  3.5034E-03 -4.7698E-04
       9-
 mid.  surface     1.1812E-02  1.1724E-02 -2.6628E-02 -2.5707E-03  3.9678E-03  2.3766E-05
      10-
 mid.  surface     1.1717E-02  8.1676E-03 -2.3798E-02  4.8970E-04 -2.6034E-03  1.5719E-03
      11-
 mid.  surface     1.2368E-02  1.0812E-02 -2.0099E-02  3.2842E-03 -1.6006E-02 -4.6354E-03
      12-
 mid.  surface     7.1949E-03  9.8575E-03 -1.2235E-02  1.5208E-03 -1.6631E-02 -8.1113E-03
      17-
 mid.  surface     1.1570E-02  1.0674E-02 -1.8193E-02  3.0039E-03 -1.2370E-02 -8.3841E-03
      18-
 mid.  surface     7.2155E-03  9.0501E-03 -1.5998E-02  1.0967E-03 -9.5685E-04 -1.8054E-03
      19-
 mid.  surface     8.3270E-03  1.0984E-02 -2.3295E-02 -1.9197E-04 -9.8457E-03 -7.7998E-03
      20-
 mid.  surface     1.0084E-02  8.8960E-03 -1.7107E-02  2.2032E-03  1.2342E-03  7.7987E-04
      21-
 mid.  surface     9.0565E-03  9.4535E-03 -2.1219E-02  5.0895E-04 -1.0448E-03  1.1046E-03
      22-
 mid.  surface     8.5418E-03  9.1758E-03 -1.3856E-02  2.2696E-03 -3.4671E-03 -2.6660E-03
      23-
 mid.  surface     1.0529E-02  9.3121E-03 -1.8832E-02  2.2651E-03  1.6234E-03 -3.6341E-04
      24-
 mid.  surface     6.3130E-03  5.7332E-03 -1.4050E-02  4.8062E-04 -2.0200E-03  8.3117E-06
      25-
 mid.  surface     8.3928E-03  5.1532E-03 -1.4649E-02  4.8971E-04 -3.7007E-03  5.8955E-04
      26-
 mid.  surface     8.4631E-03  7.7854E-03 -1.4764E-02  2.6891E-03 -6.9685E-03 -5.0375E-03
      27-
 mid.  surface     6.3225E-03  6.4599E-03 -1.4132E-02  1.2060E-03 -2.7972E-03 -2.1643E-03
      28-
 mid.  surface     2.5468E-03  3.2845E-03 -1.1830E-02 -5.0181E-04 -2.9611E-03 -1.7509E-03
      29-
 mid.  surface     5.6749E-03  1.1412E-03 -9.3279E-03 -2.0794E-06 -4.5216E-03 -1.0543E-03
      30-
 mid.  surface     5.8237E-03  5.8824E-03 -1.3223E-02  2.3900E-03 -1.1286E-02 -5.6544E-03
      31-
 mid.  surface     2.5361E-03  3.9000E-03 -1.0093E-02  9.7275E-04 -7.0458E-03 -1.8093E-03
      52-
 mid.  surface     9.9369E-03  8.5137E-03 -2.2047E-02  5.1363E-04 -2.3843E-04 -1.4338E-03
      53-
 mid.  surface     7.0735E-03  8.6061E-03 -1.6504E-02  9.1806E-04 -3.8409E-04 -6.9861E-04
      54-
 mid.  surface     5.6973E-03  6.2229E-03 -1.3829E-02  9.4579E-04 -4.2411E-03 -2.1448E-03
      55-
 mid.  surface     5.5533E-03  5.9019E-03 -1.3746E-02  3.2395E-04 -4.9492E-03 -1.6424E-03
      56-
 mid.  surface     1.8864E-03  2.4065E-03 -8.5237E-03  9.2564E-04 -4.2020E-03 -7.3646E-04
      57-
 mid.  surface     2.9709E-03  2.5519E-03 -1.1593E-02 -5.6261E-04 -4.7041E-03 -1.8995E-03
     124-
 mid.  surface     4.4189E-03  1.0103E-02 -2.5283E-02  1.2276E-03  5.8766E-03 -5.2542E-03
     125-
 mid.  surface     4.6555E-03  7.0919E-03 -1.4547E-02  3.6030E-03  1.3012E-02 -7.9835E-03
     126-
 mid.  surface     5.3090E-03  2.6116E-03 -1.1218E-02 -1.3905E-03  7.2990E-03 -6.6875E-03
     127-
 mid.  surface     6.2986E-03  3.1419E-03 -1.3252E-02  1.9562E-04  1.7582E-02 -1.1354E-02
     128-
 mid.  surface     3.5604E-03 -2.5398E-03 -4.1493E-04 -3.2392E-03  6.5677E-03 -1.0652E-02
     129-
 mid.  surface     4.8905E-03  3.0189E-04 -8.6830E-03 -2.5038E-03  1.4339E-02 -1.6041E-02
     148-
 mid.  surface     6.3727E-03  9.7133E-03 -1.6231E-02 -7.7282E-04 -2.2905E-03 -4.0931E-05
     149-
 mid.  surface     5.1061E-03  6.0676E-03 -1.3050E-02 -2.3878E-04 -5.8048E-03 -6.3056E-04
     150-
 mid.  surface     3.2075E-03  2.3199E-03 -1.1253E-02  1.8307E-04 -6.1867E-03 -7.0406E-04
     164-
 mid.  surface     1.0329E-02  9.7954E-03 -2.2845E-02 -1.5117E-03 -1.1684E-03 -3.1439E-03
     165-
 mid.  surface     6.1787E-03  6.2390E-03 -1.3438E-02 -4.5601E-04 -4.1130E-03 -4.7356E-03
     166-
 mid.  surface     2.7427E-03  2.4803E-03 -8.3374E-03  2.4574E-04 -4.3478E-03 -3.9265E-03



 n o d a l  s t r e s s  c a l c u l a t i o n s   f o r   t i m e  s t e p      309   ( at time 4.84661E+00 )

 node (global)
          stress       sig-xx      sig-yy      sig-zz      sig-xy      sig-yz      sig-zx       plastic
                                                                                                 strain 
       1-
 mid.  surface    -3.5046E+07  2.5868E+06 -3.2221E+08  2.5179E+07 -1.8479E+07  7.3921E+07  1.1033E-02
       2-
 mid.  surface    -1.2704E+09 -1.1725E+09 -1.5222E+09  3.6401E+07 -2.6607E+07  8.5173E+07  3.2317E-02
       8-
 mid.  surface     2.1722E+08  2.4301E+08 -2.2268E+07 -9.0029E+06 -4.5738E+06 -5.1359E+06  1.7249E-02
       9-
 mid.  surface    -1.6669E+08 -1.6922E+08 -4.3829E+08 -1.3618E+07  3.8663E+05 -1.9231E+06  4.3233E-02
      10-
 mid.  surface    -1.7768E+08 -2.0459E+08 -4.4317E+08  2.2994E+06 -5.5722E+07  1.7432E+06  4.4795E-02
      11-
 mid.  surface     4.0537E+08  3.8616E+08  1.1151E+08  1.1543E+07 -1.1023E+08 -2.0468E+07  2.6672E-02
      12-
 mid.  surface     5.7851E+08  5.9208E+08  3.5303E+08 -9.9768E+06 -1.2999E+08 -2.9376E+07  3.2958E-02
      17-
 mid.  surface     4.5974E+08  4.6198E+08  2.1932E+08  1.6537E+07 -9.8858E+07 -4.4845E+07  2.7625E-02
      18-
 mid.  surface     1.7671E+08  1.8506E+08 -5.2272E+07  4.0041E+06 -4.6228E+07 -1.5850E+07  2.7517E-02
      19-
 mid.  surface    -3.2190E+08 -2.7608E+08 -5.1480E+08  2.4677E+06 -1.0581E+08 -3.2905E+07  4.7626E-02
      20-
 mid.  surface     2.8964E+08  2.8433E+08  7.3195E+06  1.2414E+07  3.3649E+06 -4.9365E+05  2.5447E-02
      21-
 mid.  surface    -1.6225E+08 -1.4538E+08 -3.8448E+08  5.7117E+06 -9.6030E+06  4.4592E+05  4.2996E-02
      22-
 mid.  surface     4.9813E+08  4.9549E+08  2.3208E+08  5.5996E+06 -1.2680E+07 -2.0010E+07  2.4968E-02
      23-
 mid.  surface     2.1823E+08  2.0776E+08 -8.2127E+07  6.8095E+06  1.3563E+07  9.0744E+05  2.6451E-02
      24-
 mid.  surface    -5.3846E+07 -6.3174E+07 -3.3179E+08  2.3400E+06 -3.4166E+07 -1.9448E+07  1.4454E-02
      25-
 mid.  surface     3.8562E+07  8.5048E+06 -1.9162E+08  4.0876E+06 -3.5974E+07 -1.1855E+07  2.7705E-02
      26-
 mid.  surface     2.5247E+08  2.3976E+08 -3.9320E+07  2.2054E+07 -4.2397E+07 -5.5897E+07  1.2378E-02
      27-
 mid.  surface    -1.1898E+07 -8.1848E+06 -2.7685E+08  6.1960E+06 -3.5667E+07 -3.1738E+07  1.4249E-02
      28-
 mid.  surface    -4.5139E+08 -4.5310E+08 -6.6867E+08 -6.1454E+06 -8.3937E+07 -4.7661E+07  1.3634E-02
      29-
 mid.  surface    -1.1414E+08 -1.5282E+08 -2.9709E+08 -6.1969E+06 -9.2605E+07 -6.0905E+07  1.8891E-02
      30-
 mid.  surface    -7.3003E+07 -6.6424E+07 -3.1553E+08  1.8689E+07 -1.2784E+08 -1.0165E+08  1.3874E-02
      31-
 mid.  surface    -2.5621E+08 -2.4049E+08 -4.2121E+08  7.8000E+06 -1.1278E+08 -3.8551E+07  1.5774E-02
      52-
 mid.  surface    -1.6451E+08 -1.6993E+08 -4.5112E+08  3.3194E+06  3.2372E+06 -4.1261E+06  3.7796E-02
      53-
 mid.  surface     7.7593E+07  8.5990E+07 -1.9086E+08  5.7630E+06  5.3698E+06 -7.3585E+05  2.6795E-02
      54-
 mid.  surface    -5.2346E+07 -3.9336E+07 -3.1052E+08  6.1890E+06 -4.7857E+07 -2.5345E+07  1.7748E-02
      55-
 mid.  surface    -8.6231E+07 -8.5163E+07 -3.6529E+08  1.5272E+06 -4.5860E+07 -1.9807E+07  1.6107E-02
      56-
 mid.  surface    -2.9734E+08 -2.8734E+08 -4.6119E+08  1.0942E+07 -9.4658E+07 -1.8653E+07  1.4698E-02
      57-
 mid.  surface    -4.8376E+08 -4.9035E+08 -6.9472E+08 -4.2600E+06 -9.0973E+07 -3.1141E+07  1.5821E-02
     124-
 mid.  surface    -9.1924E+08 -8.6896E+08 -1.1244E+09  1.2904E+07  6.8587E+07 -5.2011E+07  4.2687E-02
     125-
 mid.  surface    -9.9439E+07 -9.3653E+07 -3.6974E+08  1.7009E+07  1.2579E+08 -6.7803E+07  1.2506E-02
     126-
 mid.  surface    -1.5083E+08 -1.9452E+08 -3.0711E+08 -1.6757E+07  9.4472E+07 -5.0195E+07  3.7662E-02
     127-
 mid.  surface    -1.9342E+08 -2.3361E+08 -4.7170E+08  3.8700E+06  1.7222E+08 -1.0075E+08  1.3118E-02
     128-
 mid.  surface     1.7133E+08  9.4118E+07  4.7125E+07 -3.4022E+07  5.1150E+07 -1.0399E+08  2.1071E-02
     129-
 mid.  surface    -2.5570E+08 -3.0036E+08 -5.5199E+08 -1.4362E+07  1.1880E+08 -1.7781E+08  6.7254E-03
     148-
 mid.  surface     1.2106E+08  1.3202E+08 -1.4503E+08 -5.3490E+06 -1.8897E+07  4.3773E+06  2.0149E-02
     149-
 mid.  surface    -3.9277E+07 -3.9257E+07 -3.0739E+08  1.1312E+06 -5.2510E+07 -5.1092E+06  1.5537E-02
     150-
 mid.  surface    -4.6723E+08 -4.7535E+08 -6.7237E+08  5.7848E+06 -8.9106E+07 -8.0043E+06  1.6143E-02
     164-
 mid.  surface    -1.1568E+08 -1.2345E+08 -4.0057E+08 -7.9986E+06 -9.3138E+06 -1.1280E+07  3.5669E-02
     165-
 mid.  surface     3.0791E+07  3.1490E+07 -2.2726E+08 -3.1287E+05 -4.3536E+07 -3.6729E+07  1.6886E-02
     166-
 mid.  surface    -2.2224E+08 -2.1978E+08 -3.9730E+08  7.7706E+06 -7.6907E+07 -3.6384E+07  1.4456E-02



 n o d a l  s t r a i n  c a l c u l a t i o n s   f o r   t i m e  s t e p      309   ( at time 4.84661E+00 )

 node (global)
          strain       eps-xx      eps-yy      eps-zz      eps-xy      eps-yz      eps-zx       
       1-
 mid.  surface     7.1535E-03  1.5931E-02 -2.4638E-02  7.2255E-03 -2.6927E-03  9.3541E-03
       2-
 mid.  surface     6.9944E-03  2.1614E-02 -4.7247E-02  4.4968E-03 -5.2310E-04  1.1290E-02
       8-
 mid.  surface     1.1617E-02  1.8346E-02 -2.8028E-02 -2.0025E-03  2.8687E-03 -7.7703E-04
       9-
 mid.  surface     1.8548E-02  1.8229E-02 -4.0694E-02 -3.3246E-03  3.2755E-03 -2.2158E-04
      10-
 mid.  surface     1.8354E-02  1.3370E-02 -3.5844E-02  7.6457E-04 -6.2457E-03  1.4168E-03
      11-
 mid.  surface     1.9080E-02  1.6328E-02 -3.1351E-02  3.9638E-03 -2.1433E-02 -5.5142E-03
      12-
 mid.  surface     1.1973E-02  1.5470E-02 -2.0409E-02  1.3557E-03 -2.2581E-02 -1.0702E-02
      17-
 mid.  surface     1.7522E-02  1.6934E-02 -2.9246E-02  3.9105E-03 -1.7038E-02 -1.0493E-02
      18-
 mid.  surface     1.2371E-02  1.5015E-02 -2.6036E-02  1.4975E-03 -3.7781E-03 -2.6287E-03
      19-
 mid.  surface     1.2762E-02  1.7417E-02 -3.5644E-02  6.1479E-05 -1.3635E-02 -1.0442E-02
      20-
 mid.  surface     1.5711E-02  1.4269E-02 -2.7362E-02  2.8324E-03  1.7721E-03  9.2945E-04
      21-
 mid.  surface     1.4406E-02  1.5124E-02 -3.3051E-02  7.8806E-04 -1.2338E-03  1.0654E-03
      22-
 mid.  surface     1.4042E-02  1.4615E-02 -2.3067E-02  2.6633E-03 -4.6158E-03 -3.5008E-03
      23-
 mid.  surface     1.6408E-02  1.4540E-02 -2.9487E-02  2.5363E-03  2.5350E-03 -2.7755E-04
      24-
 mid.  surface     1.0582E-02  9.4277E-03 -2.2184E-02  5.7922E-04 -3.3058E-03 -6.7658E-04
      25-
 mid.  surface     1.3614E-02  8.8071E-03 -2.3261E-02  6.3447E-04 -5.2761E-03 -4.5485E-04
      26-
 mid.  surface     1.3530E-02  1.2475E-02 -2.3976E-02  3.5572E-03 -9.4339E-03 -7.2574E-03
      27-
 mid.  surface     1.0267E-02  1.0729E-02 -2.2473E-02  1.3504E-03 -4.0874E-03 -3.3639E-03
      28-
 mid.  surface     4.8513E-03  5.2552E-03 -1.7558E-02 -7.4416E-04 -6.2528E-03 -3.7356E-03
      29-
 mid.  surface     8.8647E-03  2.5300E-03 -1.4060E-02 -1.2876E-04 -7.6110E-03 -3.7807E-03
      30-
 mid.  surface     8.7311E-03  9.1375E-03 -1.9996E-02  3.0652E-03 -1.6221E-02 -9.1808E-03
      31-
 mid.  surface     4.3351E-03  6.5677E-03 -1.5266E-02  1.2503E-03 -1.1586E-02 -3.6578E-03
      52-
 mid.  surface     1.5878E-02  1.4111E-02 -3.3877E-02  6.6960E-04 -3.8555E-04 -1.8819E-03
      53-
 mid.  surface     1.2207E-02  1.4310E-02 -2.6739E-02  1.2636E-03  3.4882E-06 -6.7234E-04
      54-
 mid.  surface     9.7400E-03  1.0888E-02 -2.2627E-02  1.1156E-03 -6.4979E-03 -3.3457E-03
      55-
 mid.  surface     9.7523E-03  1.0123E-02 -2.2477E-02  4.6844E-04 -7.0784E-03 -2.4848E-03
      56-
 mid.  surface     3.7916E-03  4.7603E-03 -1.3534E-02  1.2717E-03 -8.2702E-03 -1.8046E-03
      57-
 mid.  surface     5.4030E-03  4.6035E-03 -1.7950E-02 -6.0106E-04 -8.7786E-03 -3.3667E-03
     124-
 mid.  surface     8.2820E-03  1.5882E-02 -3.8060E-02  1.6451E-03  9.1857E-03 -8.3184E-03
     125-
 mid.  surface     8.9029E-03  1.1878E-02 -2.3502E-02  4.4049E-03  1.8755E-02 -1.1326E-02
     126-
 mid.  surface     9.4794E-03  5.0333E-03 -1.7757E-02 -1.9042E-03  1.0554E-02 -1.0008E-02
     127-
 mid.  surface     1.0566E-02  5.8899E-03 -2.0773E-02  3.0816E-04  2.4369E-02 -1.5919E-02
     128-
 mid.  surface     6.7667E-03 -2.5219E-03 -2.7340E-03 -4.0537E-03  8.5550E-03 -1.4427E-02
     129-
 mid.  surface     8.0229E-03  1.5924E-03 -1.4707E-02 -3.1107E-03  1.8973E-02 -2.1621E-02
     148-
 mid.  surface     1.1419E-02  1.5272E-02 -2.6275E-02 -1.0666E-03 -3.3394E-03  3.5798E-04
     149-
 mid.  surface     9.1758E-03  1.0111E-02 -2.1174E-02 -1.2755E-04 -8.2050E-03 -6.9362E-04
     150-
 mid.  surface     5.5819E-03  4.5260E-03 -1.7807E-02  5.5302E-04 -1.0151E-02 -9.7629E-04
     164-
 mid.  surface     1.6430E-02  1.5326E-02 -3.4972E-02 -1.9553E-03 -1.9970E-03 -3.7185E-03
     165-
 mid.  surface     1.0370E-02  1.0351E-02 -2.1600E-02 -4.6390E-04 -6.1709E-03 -6.0792E-03
     166-
 mid.  surface     4.7759E-03  4.8007E-03 -1.3590E-02  6.2099E-04 -7.8610E-03 -4.9315E-03



 n o d a l  s t r e s s  c a l c u l a t i o n s   f o r   t i m e  s t e p      315   ( at time 7.16740E+00 )

 node (global)
          stress       sig-xx      sig-yy      sig-zz      sig-xy      sig-yz      sig-zx       plastic
                                                                                                 strain 
       1-
 mid.  surface     5.4704E+07  7.3278E+07 -2.3030E+08  9.2151E+06 -1.8869E+07  5.4800E+07  2.7319E-02
       2-
 mid.  surface    -1.6419E+09 -1.5731E+09 -1.9094E+09  3.0963E+07 -2.4062E+07  5.6353E+07  5.3912E-02
       8-
 mid.  surface     2.8953E+08  3.1068E+08  4.9573E+07 -8.9467E+06 -2.2585E+07 -3.7044E+06  3.7457E-02
       9-
 mid.  surface    -2.7892E+08 -2.8524E+08 -5.4699E+08 -1.2950E+07 -1.4673E+07 -5.2308E+05  6.6999E-02
      10-
 mid.  surface    -1.5206E+08 -1.7621E+08 -4.3548E+08  4.0868E+06 -7.1142E+07 -5.3147E+06  6.4763E-02
      11-
 mid.  surface     4.7449E+08  4.5310E+08  1.8265E+08  7.1248E+06 -9.8627E+07 -2.0835E+07  4.5206E-02
      12-
 mid.  surface     7.7016E+08  7.8409E+08  5.2199E+08 -1.0920E+07 -1.0904E+08 -3.3471E+07  4.8974E-02
      17-
 mid.  surface     5.2784E+08  5.3106E+08  2.7654E+08  1.3901E+07 -9.6131E+07 -3.8142E+07  4.7742E-02
      18-
 mid.  surface     3.1120E+08  3.1858E+08  5.6238E+07  5.8286E+06 -6.5388E+07 -1.8217E+07  4.5499E-02
      19-
 mid.  surface    -4.6339E+08 -4.1495E+08 -6.9122E+08  8.9771E+06 -9.4455E+07 -3.7248E+07  6.7586E-02
      20-
 mid.  surface     5.4483E+08  5.4515E+08  1.6466E+08  1.6344E+07 -8.2303E+06 -3.6093E+06  4.7532E-02
      21-
 mid.  surface    -2.3380E+08 -2.2035E+08 -4.7975E+08  9.0962E+06 -3.5358E+06 -3.4615E+06  6.2196E-02
      22-
 mid.  surface     1.0737E+09  1.0729E+09  5.7319E+08  7.1694E+06 -5.5190E+07 -4.0604E+07  5.4579E-02
      23-
 mid.  surface     5.3843E+08  5.2420E+08  9.7795E+07  9.4383E+06 -6.7292E+06 -8.8883E+06  5.1928E-02
      24-
 mid.  surface    -2.2429E+08 -2.2883E+08 -4.0993E+08  5.8330E+05 -1.8903E+07 -1.5292E+07  2.1282E-02
      25-
 mid.  surface    -3.5451E+08 -3.8566E+08 -3.3330E+08  3.8088E+06  2.1521E+07 -3.5430E+06  2.7687E-02
      26-
 mid.  surface     5.7746E+08  5.7175E+08  1.7716E+08  2.8512E+07 -8.3505E+07 -7.9741E+07  3.3365E-02
      27-
 mid.  surface     1.2224E+08  1.2956E+08 -2.4127E+08  4.5652E+06 -5.1744E+07 -3.7264E+07  3.3135E-02
      28-
 mid.  surface    -5.3977E+08 -5.4902E+08 -7.6067E+08 -7.0967E+06 -9.1832E+07 -5.5634E+07  2.4491E-02
      29-
 mid.  surface    -5.3653E+08 -5.8139E+08 -5.7617E+08 -1.4477E+07 -2.5928E+07 -3.3378E+07  2.2919E-02
      30-
 mid.  surface     2.2041E+08  2.3711E+08 -1.7714E+08  2.4883E+07 -1.6546E+08 -1.2356E+08  3.5139E-02
      31-
 mid.  surface    -3.1478E+08 -2.9835E+08 -4.9618E+08  2.0731E+06 -1.0571E+08 -4.4347E+07  2.7684E-02
      52-
 mid.  surface    -1.9468E+08 -2.0034E+08 -4.9523E+08  4.1204E+06  5.8281E+06 -1.8490E+06  5.6162E-02
      53-
 mid.  surface     1.4445E+08  1.5867E+08 -1.3813E+08  3.9057E+06  7.8961E+06  2.7016E+06  4.3244E-02
      54-
 mid.  surface    -6.7538E+07 -5.5197E+07 -3.4055E+08  3.3560E+06 -4.7498E+07 -2.3600E+07  3.2392E-02
      55-
 mid.  surface    -8.2462E+07 -8.2646E+07 -3.7343E+08  3.6420E+06 -4.4744E+07 -1.8639E+07  2.9522E-02
      56-
 mid.  surface    -3.9127E+08 -3.8501E+08 -5.7089E+08  3.9840E+06 -1.0373E+08 -2.7691E+07  2.7114E-02
      57-
 mid.  surface    -6.4251E+08 -6.6049E+08 -8.6783E+08 -3.6712E+06 -1.0111E+08 -3.4372E+07  2.7888E-02
     124-
 mid.  surface    -1.4980E+09 -1.4674E+09 -1.5445E+09  5.2384E+06  1.1861E+08 -3.3631E+07  5.2187E-02
     125-
 mid.  surface     2.2625E+08  2.2815E+08 -2.1621E+08  1.2774E+07  6.5500E+07 -7.3315E+07  3.8643E-02
     126-
 mid.  surface    -1.3453E+09 -1.4059E+09 -8.6772E+08 -3.2475E+07  2.7056E+08  3.3181E+07  1.3504E-02
     127-
 mid.  surface    -1.7285E+08 -1.9405E+08 -4.2339E+08  1.5370E+07  1.3787E+08 -9.5147E+07  2.2594E-02
     128-
 mid.  surface    -1.7835E+09 -1.9025E+09 -1.0418E+09 -7.6113E+07  3.2961E+08  8.4191E+07 -1.9128E-02
     129-
 mid.  surface    -1.2184E+09 -1.2708E+09 -1.1837E+09 -2.6427E+07  1.9362E+08 -8.5814E+07 -5.2553E-03
     148-
 mid.  surface     1.9459E+08  2.1031E+08 -7.0530E+07 -2.2121E+06 -1.5970E+07  8.1098E+06  3.7770E-02
     149-
 mid.  surface    -1.4628E+07 -1.7632E+07 -2.9252E+08  3.3260E+06 -4.5794E+07  9.6288E+05  2.9285E-02
     150-
 mid.  surface    -6.2927E+08 -6.3833E+08 -8.4402E+08  7.7246E+06 -9.2094E+07 -3.1535E+06  2.8925E-02
     164-
 mid.  surface    -1.5269E+08 -1.5512E+08 -4.3252E+08 -2.0696E+06 -8.2831E+06 -5.1368E+06  5.5829E-02
     165-
 mid.  surface     3.7371E+07  3.9188E+07 -2.3048E+08 -4.9961E+05 -4.0823E+07 -2.0939E+07  3.1181E-02
     166-
 mid.  surface    -3.3580E+08 -3.2857E+08 -5.2176E+08  5.6360E+06 -8.4111E+07 -2.0311E+07  2.7039E-02



 n o d a l  s t r a i n  c a l c u l a t i o n s   f o r   t i m e  s t e p      315   ( at time 7.16740E+00 )

 node (global)
          strain       eps-xx      eps-yy      eps-zz      eps-xy      eps-yz      eps-zx       
       1-
 mid.  surface     1.4966E-02  2.5206E-02 -4.0544E-02  8.0676E-03 -3.6369E-03  1.1783E-02
       2-
 mid.  surface     1.3828E-02  3.2565E-02 -7.0546E-02  6.5221E-03 -5.3601E-04  1.3851E-02
       8-
 mid.  surface     1.9770E-02  2.8563E-02 -4.5613E-02 -2.7547E-03  9.2672E-04 -1.0647E-03
       9-
 mid.  surface     2.8789E-02  2.7878E-02 -6.2514E-02 -4.4787E-03  1.3859E-03 -4.4068E-04
      10-
 mid.  surface     2.8499E-02  2.1711E-02 -5.4302E-02  1.4272E-03 -1.2323E-02  7.4854E-04
      11-
 mid.  surface     2.9019E-02  2.4370E-02 -4.8623E-02  4.7901E-03 -2.8449E-02 -6.9184E-03
      12-
 mid.  surface     1.8995E-02  2.3840E-02 -3.3313E-02  1.0598E-03 -3.0067E-02 -1.4014E-02
      17-
 mid.  surface     2.6549E-02  2.6396E-02 -4.7066E-02  5.1573E-03 -2.3160E-02 -1.2959E-02
      18-
 mid.  surface     2.0705E-02  2.4559E-02 -4.2313E-02  2.3938E-03 -8.6850E-03 -4.0353E-03
      19-
 mid.  surface     1.9026E-02  2.7153E-02 -5.3953E-02  9.3656E-04 -1.8593E-02 -1.3462E-02
      20-
 mid.  surface     2.4464E-02  2.3047E-02 -4.3788E-02  4.1116E-03  2.7625E-03  1.4639E-03
      21-
 mid.  surface     2.2679E-02  2.3757E-02 -5.0987E-02  1.4399E-03 -1.3572E-03  1.0489E-03
      22-
 mid.  surface     2.2730E-02  2.3183E-02 -3.7839E-02  3.0580E-03 -6.3336E-03 -5.1067E-03
      23-
 mid.  surface     2.6079E-02  2.2644E-02 -4.6462E-02  3.2087E-03  3.7027E-03 -2.2335E-04
      24-
 mid.  surface     1.6929E-02  1.5588E-02 -3.4731E-02  7.4568E-04 -5.5829E-03 -1.7868E-03
      25-
 mid.  surface     2.2306E-02  1.4715E-02 -3.7318E-02  9.7403E-04 -7.6278E-03 -2.3359E-03
      26-
 mid.  surface     2.1881E-02  2.0020E-02 -3.8785E-02  5.0046E-03 -1.3348E-02 -1.1184E-02
      27-
 mid.  surface     1.6537E-02  1.7538E-02 -3.6073E-02  1.5293E-03 -6.2480E-03 -5.0440E-03
      28-
 mid.  surface     8.8819E-03  8.4284E-03 -2.6086E-02 -1.1515E-03 -1.1703E-02 -6.9738E-03
      29-
 mid.  surface     1.4223E-02  5.2269E-03 -2.2887E-02 -2.7805E-04 -1.2076E-02 -8.2969E-03
      30-
 mid.  surface     1.3657E-02  1.4501E-02 -3.1085E-02  4.0945E-03 -2.3267E-02 -1.5010E-02
      31-
 mid.  surface     7.5165E-03  1.0941E-02 -2.3747E-02  1.4048E-03 -1.7963E-02 -6.4811E-03
      52-
 mid.  surface     2.5004E-02  2.2610E-02 -5.2229E-02  1.0342E-03 -3.9983E-04 -2.2207E-03
      53-
 mid.  surface     1.9938E-02  2.3512E-02 -4.2937E-02  1.6215E-03  9.1028E-04 -2.6630E-04
      54-
 mid.  surface     1.6353E-02  1.8310E-02 -3.7095E-02  1.2649E-03 -9.8562E-03 -5.0456E-03
      55-
 mid.  surface     1.6505E-02  1.6940E-02 -3.6168E-02  7.8903E-04 -1.0034E-02 -3.6709E-03
      56-
 mid.  surface     7.2112E-03  8.6760E-03 -2.2349E-02  1.4791E-03 -1.5043E-02 -3.9029E-03
      57-
 mid.  surface     9.7627E-03  7.7531E-03 -2.7909E-02 -7.1769E-04 -1.5325E-02 -5.6317E-03
     124-
 mid.  surface     1.4872E-02  2.4479E-02 -5.7436E-02  2.2706E-03  1.4459E-02 -1.2806E-02
     125-
 mid.  surface     1.6192E-02  1.9499E-02 -3.8071E-02  5.1604E-03  2.6700E-02 -1.5555E-02
     126-
 mid.  surface     1.6423E-02  9.1006E-03 -2.8668E-02 -2.4153E-03  1.5616E-02 -1.4653E-02
     127-
 mid.  surface     1.7336E-02  1.1248E-02 -3.3220E-02  1.1160E-03  3.3832E-02 -2.1890E-02
     128-
 mid.  surface     1.1665E-02 -1.5231E-03 -7.3121E-03 -5.1345E-03  1.1180E-02 -1.9658E-02
     129-
 mid.  surface     1.2323E-02  4.1989E-03 -2.4426E-02 -3.6965E-03  2.5335E-02 -2.9419E-02
     148-
 mid.  surface     1.9167E-02  2.4541E-02 -4.2398E-02 -1.1891E-03 -4.9777E-03  1.2057E-03
     149-
 mid.  surface     1.5965E-02  1.6696E-02 -3.4375E-02  1.0884E-04 -1.1323E-02 -5.2547E-04
     150-
 mid.  surface     9.6773E-03  8.2718E-03 -2.8078E-02  1.1020E-03 -1.6455E-02 -1.2222E-03
     164-
 mid.  surface     2.5618E-02  2.4285E-02 -5.3846E-02 -2.0641E-03 -3.4306E-03 -4.2442E-03
     165-
 mid.  surface     1.7084E-02  1.7066E-02 -3.5115E-02 -5.3816E-04 -9.1163E-03 -7.4295E-03
     166-
 mid.  surface     8.1896E-03  8.9708E-03 -2.2880E-02  1.0051E-03 -1.3631E-02 -6.0512E-03



 n o d a l  s t r e s s  c a l c u l a t i o n s   f o r   t i m e  s t e p      324   ( at time 1.08456E+01 )

 node (global)
          stress       sig-xx      sig-yy      sig-zz      sig-xy      sig-yz      sig-zx       plastic
                                                                                                 strain 
       1-
 mid.  surface    -2.6165E+09 -2.6323E+09 -1.5676E+09 -7.4592E+06  9.2328E+07  4.1427E+07 -6.4049E-02
       2-
 mid.  surface    -5.0629E+09 -5.1029E+09 -4.0383E+09 -3.8231E+06  1.0648E+08  1.1136E+08 -3.5075E-02
       8-
 mid.  surface     2.9885E+08  3.0819E+08  7.0204E+07 -1.2711E+07 -5.5785E+07  2.8871E+06  6.8661E-02
       9-
 mid.  surface    -4.3187E+08 -4.4650E+08 -6.8465E+08 -1.2318E+07 -5.8460E+07  4.2883E+06  1.0118E-01
      10-
 mid.  surface     1.9645E+07 -8.9261E+06 -2.8502E+08  7.4486E+06 -1.0372E+08 -1.7019E+07  9.2261E-02
      11-
 mid.  surface     2.4016E+08  2.4208E+08 -4.9487E+07 -1.9262E+07 -8.3877E+07 -1.0061E+07  7.1464E-02
      12-
 mid.  surface    -7.1636E+08 -6.7869E+08 -2.9642E+08 -1.3433E+07 -4.4529E+06 -2.8100E+07  1.5783E-02
      17-
 mid.  surface     1.7037E+08  2.0358E+08 -7.7294E+07 -2.1281E+07 -1.1787E+08 -4.9769E+07  7.9950E-02
      18-
 mid.  surface     4.1073E+08  4.1436E+08  1.3305E+08  4.2253E+06 -9.8563E+07 -2.3406E+07  7.3093E-02
      19-
 mid.  surface    -2.4317E+09 -2.3961E+09 -2.0207E+09 -1.0349E+07 -1.5399E+07 -3.3255E+07  3.8214E-02
      20-
 mid.  surface     6.1632E+08  6.2827E+08  3.3041E+08  2.6668E+07  7.2944E+06  7.6924E+06  7.7298E-02
      21-
 mid.  surface     2.2281E+08  2.5393E+08 -3.1729E+08  3.1062E+07  5.9207E+06 -1.5150E+07  1.1838E-01
      22-
 mid.  surface     2.2887E+09  2.2941E+09  1.4940E+09  6.0033E+06 -5.5095E+07 -4.3049E+07  1.3069E-01
      23-
 mid.  surface     8.2467E+08  7.9062E+08  4.7646E+08  4.8398E+06  2.7493E+05  5.0537E+06  8.7744E-02
      24-
 mid.  surface    -4.1938E+08 -4.0233E+08 -5.7285E+08 -3.3349E+06 -2.2782E+07  1.3824E+07  2.7686E-02
      25-
 mid.  surface     1.3004E+09  1.2764E+09  5.2707E+08  1.8677E+07  1.1797E+07 -1.5679E+08  9.1961E-02
      26-
 mid.  surface     2.2929E+09  2.2809E+09  1.3172E+09  2.8336E+07 -1.2956E+08 -1.7718E+08  1.1603E-01
      27-
 mid.  surface     2.2847E+08  2.4018E+08 -1.1022E+08 -1.1790E+07 -9.4968E+07 -2.1582E+07  6.0382E-02
      28-
 mid.  surface    -2.3304E+09 -2.3295E+09 -1.8487E+09 -1.1282E+07 -1.4101E+08  1.3797E+08 -1.3189E-02
      29-
 mid.  surface    -9.3189E+08 -9.4692E+08 -9.6170E+08 -8.8626E+06 -7.0355E+07  9.1496E+05  2.5649E-02
      30-
 mid.  surface    -1.2290E+09 -1.1769E+09 -9.0727E+08  3.5080E+07 -1.8787E+08  2.8520E+07  1.4086E-02
      31-
 mid.  surface    -2.0652E+09 -2.0443E+09 -1.5508E+09 -1.0999E+06 -1.5713E+08  1.2875E+08 -8.6698E-03
      52-
 mid.  surface    -3.4347E+08 -3.5959E+08 -6.4908E+08  4.9601E+05  1.6322E+07  5.5689E+06  8.2260E-02
      53-
 mid.  surface     4.4926E+07  5.8960E+07 -2.4290E+08 -9.1786E+06  2.7835E+07  7.6906E+06  6.8846E-02
      54-
 mid.  surface    -9.6429E+08 -9.6129E+08 -8.7483E+08 -3.8053E+06  5.9519E+06  3.6684E+07  2.2456E-02
      55-
 mid.  surface    -8.7284E+08 -8.7852E+08 -8.0476E+08 -1.0872E+06  2.6102E+07  3.3690E+07  1.7740E-02
      56-
 mid.  surface    -5.0921E+08 -4.9285E+08 -6.9973E+08 -6.8726E+06 -1.0380E+08 -3.1607E+07  5.0246E-02
      57-
 mid.  surface    -7.8199E+08 -7.8693E+08 -1.0240E+09 -4.0778E+06 -9.5249E+07 -3.8592E+07  4.8126E-02
     124-
 mid.  surface    -5.0735E+08 -4.4233E+08 -1.2851E+09  9.2668E+06  3.7896E+07 -3.4642E+07  1.3374E-01
     125-
 mid.  surface     2.0077E+09  2.0462E+09  8.2866E+08 -3.9167E+06 -3.8276E+07 -7.8759E+07  1.5039E-01
     126-
 mid.  surface    -9.4835E+08 -1.0283E+09 -9.0639E+08 -2.1961E+07  2.6421E+08 -7.9151E+07  1.0663E-02
     127-
 mid.  surface    -4.4749E+07 -1.0207E+08 -2.9254E+08  1.8227E+07  1.7195E+08 -8.0908E+07  3.9811E-02
     128-
 mid.  surface    -3.3687E+09 -3.4782E+09 -2.5801E+09 -9.7089E+07  4.5039E+08  8.0732E+07 -8.6586E-02
     129-
 mid.  surface    -5.4384E+09 -5.4415E+09 -3.9732E+09 -5.3381E+07  2.9978E+08  2.4985E+08 -1.3264E-01
     148-
 mid.  surface     2.6439E+08  2.8521E+08  1.2986E+06 -3.8644E+06  4.9669E+06  1.9382E+07  6.5262E-02
     149-
 mid.  surface    -4.7626E+07 -5.5669E+07 -3.5520E+08 -1.3584E+06 -1.4108E+07  1.8774E+07  5.0667E-02
     150-
 mid.  surface    -7.3785E+08 -7.2578E+08 -9.8475E+08  1.3102E+07 -8.0330E+07  8.9401E+06  4.8862E-02
     164-
 mid.  surface    -1.6008E+08 -1.4875E+08 -4.2479E+08  2.7798E+05 -5.2694E+06  2.9436E+06  8.5168E-02
     165-
 mid.  surface     2.2817E+07  2.0885E+07 -2.5909E+08 -3.1421E+06 -3.5824E+07 -2.7529E+06  5.2983E-02
     166-
 mid.  surface    -3.8419E+08 -3.7348E+08 -5.7981E+08  1.1251E+07 -9.5417E+07 -1.1226E+07  4.8670E-02



 n o d a l  s t r a i n  c a l c u l a t i o n s   f o r   t i m e  s t e p      324   ( at time 1.08456E+01 )

 node (global)
          strain       eps-xx      eps-yy      eps-zz      eps-xy      eps-yz      eps-zx       
       1-
 mid.  surface     3.8455E-02  4.1534E-02 -6.8756E-02  1.1389E-02 -7.8333E-03  1.1559E-02
       2-
 mid.  surface     3.7252E-02  4.4579E-02 -1.0563E-01  9.1411E-03 -1.2506E-03  2.3401E-02
       8-
 mid.  surface     3.1469E-02  4.2497E-02 -7.1501E-02 -4.3280E-03 -3.7305E-03 -6.1899E-04
       9-
 mid.  surface     4.2604E-02  3.9958E-02 -9.1207E-02 -5.8713E-03 -4.7811E-03 -3.0305E-04
      10-
 mid.  surface     4.3404E-02  3.3871E-02 -7.9601E-02  2.9388E-03 -2.3122E-02 -9.5239E-04
      11-
 mid.  surface     3.9745E-02  3.6166E-02 -7.4848E-02  2.0377E-03 -3.7863E-02 -7.2792E-03
      12-
 mid.  surface     3.2101E-02  3.9615E-02 -5.8556E-02  1.7536E-03 -3.7580E-02 -1.9343E-02
      17-
 mid.  surface     3.6788E-02  4.1879E-02 -7.8287E-02  1.8060E-03 -3.4702E-02 -1.7300E-02
      18-
 mid.  surface     3.3477E-02  3.9147E-02 -6.8810E-02  3.7034E-03 -1.7089E-02 -6.0003E-03
      19-
 mid.  surface     3.2499E-02  4.2494E-02 -8.6484E-02  1.0371E-03 -2.4952E-02 -1.8071E-02
      20-
 mid.  surface     4.0808E-02  3.9413E-02 -7.1826E-02  8.1421E-03  5.1191E-03  1.6057E-03
      21-
 mid.  surface     3.4715E-02  4.0563E-02 -8.0810E-02  5.3976E-03 -1.5275E-03  6.9892E-04
      22-
 mid.  surface     3.6943E-02  3.9375E-02 -6.2825E-02  4.1624E-03 -8.7537E-03 -7.3088E-03
      23-
 mid.  surface     4.4826E-02  3.6697E-02 -7.3580E-02  5.6826E-03  5.4614E-03 -1.5850E-04
      24-
 mid.  surface     2.5727E-02  2.6176E-02 -5.5933E-02 -6.2478E-04 -6.4115E-03 -3.3614E-03
      25-
 mid.  surface     3.5717E-02  2.4856E-02 -6.0131E-02  1.4052E-04 -9.5052E-03 -5.1073E-03
      26-
 mid.  surface     3.4695E-02  3.1479E-02 -6.1658E-02  5.4066E-03 -1.7674E-02 -1.7422E-02
      27-
 mid.  surface     2.5121E-02  2.9278E-02 -5.9363E-02 -5.9287E-04 -8.9732E-03 -7.5947E-03
      28-
 mid.  surface     1.6205E-02  1.4096E-02 -3.9381E-02 -1.0911E-03 -2.1575E-02 -1.3124E-02
      29-
 mid.  surface     2.1774E-02  1.1231E-02 -3.7889E-02 -2.1135E-04 -1.8213E-02 -1.6233E-02
      30-
 mid.  surface     2.0908E-02  2.2878E-02 -4.8355E-02  5.9750E-03 -3.1593E-02 -2.6218E-02
      31-
 mid.  surface     1.3963E-02  1.7712E-02 -3.7711E-02  1.9840E-03 -2.8559E-02 -1.1510E-02
      52-
 mid.  surface     3.8263E-02  3.4130E-02 -7.8768E-02  7.3928E-04  5.3364E-04 -2.1241E-03
      53-
 mid.  surface     3.1961E-02  3.6914E-02 -6.9151E-02  6.8774E-04  4.3107E-03  6.7124E-04
      54-
 mid.  surface     2.6817E-02  3.1327E-02 -6.1609E-02  1.2601E-03 -1.3826E-02 -6.5740E-03
      55-
 mid.  surface     2.7962E-02  2.9315E-02 -5.9336E-02  1.6699E-03 -1.2052E-02 -5.2820E-03
      56-
 mid.  surface     1.3836E-02  1.7469E-02 -3.9638E-02  7.5673E-04 -2.6441E-02 -7.8271E-03
      57-
 mid.  surface     1.7261E-02  1.5580E-02 -4.5447E-02 -9.9153E-04 -2.4763E-02 -9.6586E-03
     124-
 mid.  surface     1.9649E-02  4.0675E-02 -9.0049E-02  1.9771E-03  2.2028E-02 -1.8389E-02
     125-
 mid.  surface     2.2774E-02  3.4953E-02 -6.4145E-02  2.3015E-03  3.4879E-02 -2.2315E-02
     126-
 mid.  surface     3.0488E-02  1.6498E-02 -5.0208E-02 -1.7547E-03  2.4727E-02 -2.3159E-02
     127-
 mid.  surface     3.2447E-02  1.8904E-02 -5.4664E-02  3.5075E-03  4.8156E-02 -2.6711E-02
     128-
 mid.  surface     2.0340E-02  2.0261E-03 -1.8073E-02 -6.9086E-03  1.4972E-02 -2.6067E-02
     129-
 mid.  surface     2.0484E-02  9.5211E-03 -4.1054E-02 -5.7355E-03  3.3169E-02 -3.6187E-02
     148-
 mid.  surface     3.0371E-02  3.8826E-02 -6.7262E-02 -1.6390E-03 -4.9648E-03  3.6337E-03
     149-
 mid.  surface     2.7123E-02  2.7073E-02 -5.6877E-02 -1.2964E-04 -1.2085E-02  1.8709E-03
     150-
 mid.  surface     1.6838E-02  1.8143E-02 -4.6830E-02  2.6158E-03 -2.3751E-02 -2.7422E-04
     164-
 mid.  surface     3.7436E-02  3.7542E-02 -7.9403E-02 -1.9606E-03 -6.1491E-03 -4.4182E-03
     165-
 mid.  surface     2.7463E-02  2.6840E-02 -5.5869E-02 -1.0218E-03 -1.3285E-02 -7.5602E-03
     166-
 mid.  surface     1.4850E-02  1.7174E-02 -3.8711E-02  2.3981E-03 -2.3902E-02 -7.1319E-03



 n o d a l  s t r e s s  c a l c u l a t i o n s   f o r   t i m e  s t e p      339   ( at time 1.45238E+01 )

 node (global)
          stress       sig-xx      sig-yy      sig-zz      sig-xy      sig-yz      sig-zx       plastic
                                                                                                 strain 
       1-
 mid.  surface    -2.4872E+09 -2.5527E+09 -1.8328E+09  1.6562E+07  7.2939E+07  1.7999E+07 -1.1841E-01
       2-
 mid.  surface    -4.6156E+09 -4.6686E+09 -4.2007E+09  4.8711E+07  6.8403E+07  4.1662E+07 -7.1748E-02
       8-
 mid.  surface     5.4804E+07  1.7558E+07 -1.8785E+08 -4.7360E+06 -1.0591E+08  4.1604E+06  1.1303E-01
       9-
 mid.  surface    -5.1505E+08 -5.4583E+08 -7.8620E+08  5.6478E+06 -7.5904E+07  5.9708E+05  1.3890E-01
      10-
 mid.  surface     1.2476E+08  7.9989E+07 -2.1557E+08 -1.3271E+07 -7.7893E+07 -1.0333E+07  1.1892E-01
      11-
 mid.  surface     3.5777E+08  3.3034E+08  6.1426E+07 -1.0889E+07 -5.8643E+07 -4.1639E+06  1.0776E-01
      12-
 mid.  surface    -1.5012E+09 -1.4882E+09 -8.5576E+08  3.9766E+06  1.1784E+07 -3.2057E+07 -4.5223E-02
      17-
 mid.  surface    -4.7523E+07 -4.8314E+07 -3.1991E+08 -7.0377E+06 -1.1657E+08 -2.8768E+07  1.2079E-01
      18-
 mid.  surface     2.5816E+08  2.3808E+08 -4.8307E+07 -2.1332E+07 -1.2848E+08 -1.0165E+07  1.0626E-01
      19-
 mid.  surface    -2.8084E+09 -2.7909E+09 -2.6062E+09  2.8223E+07 -2.3271E+07 -8.7251E+06  2.4557E-02
      20-
 mid.  surface     1.1990E+08  1.4429E+08  5.0490E+07  8.4888E+06  1.8728E+07 -1.8092E+07  9.5354E-02
      21-
 mid.  surface    -4.4383E+08 -3.5833E+08 -8.7921E+08 -4.1104E+06  6.3947E+06 -1.1827E+07  1.7116E-01
      22-
 mid.  surface     8.7597E+08  8.9136E+08  8.0866E+08 -3.5478E+07 -2.5462E+07  3.1547E+07  1.3548E-01
      23-
 mid.  surface     3.9368E+08  3.6491E+08  3.0501E+08 -9.4362E+06  2.0611E+07  2.4444E+07  1.0542E-01
      24-
 mid.  surface    -6.3049E+08 -5.7067E+08 -5.0603E+08 -4.9854E+06 -3.0268E+07  1.6430E+06  9.3871E-03
      25-
 mid.  surface     4.1364E+08  4.2566E+08  3.5907E+08  1.5662E+07  8.9802E+07  5.3625E+07  1.0198E-01
      26-
 mid.  surface     9.0841E+08  8.3026E+08  9.8582E+08 -7.0493E+06  5.5776E+07  7.9657E+07  1.0289E-01
      27-
 mid.  surface    -3.3140E+08 -3.4336E+08 -2.3544E+08 -3.7964E+07 -5.6470E+07  2.6367E+07  4.2751E-02
      28-
 mid.  surface    -2.2217E+09 -2.1479E+09 -2.4223E+09 -3.1036E+07 -1.6568E+08  2.6009E+07 -9.9663E-03
      29-
 mid.  surface    -1.1784E+09 -1.2746E+09 -1.6618E+09 -1.6863E+07 -4.2418E+07  5.3052E+07  4.8978E-02
      30-
 mid.  surface    -1.0954E+09 -1.2025E+09 -1.5590E+09 -6.5984E+06 -1.0070E+08  1.6413E+07  4.7423E-02
      31-
 mid.  surface    -2.2170E+09 -2.1377E+09 -2.3552E+09 -6.0655E+07 -1.9999E+08  2.9424E+07  3.0060E-03
      52-
 mid.  surface    -1.2444E+09 -1.2449E+09 -1.0103E+09 -8.1772E+06  1.2639E+08  4.4731E+07  6.4398E-02
      53-
 mid.  surface    -7.1958E+08 -7.1540E+08 -6.9200E+08  3.3918E+06  8.3669E+07  4.4478E+07  7.0500E-02
      54-
 mid.  surface    -3.7123E+08 -3.6157E+08 -7.0888E+08 -2.6949E+06 -8.1181E+07 -1.7846E+07  5.2297E-02
      55-
 mid.  surface     4.7313E+07  3.4297E+07 -5.1770E+08  6.1877E+06 -6.4306E+07 -3.5935E+06  6.3410E-02
      56-
 mid.  surface    -5.2702E+08 -5.0903E+08 -6.7385E+08  1.8382E+07 -1.4530E+08 -2.8257E+07  8.1116E-02
      57-
 mid.  surface    -8.3166E+08 -8.4999E+08 -1.0814E+09  2.1454E+07 -1.2820E+08 -3.3780E+07  7.3775E-02
     124-
 mid.  surface    -3.2722E+08 -3.0518E+08 -1.1732E+09  4.2455E+06  6.8153E+07  1.7883E+07  2.3572E-01
     125-
 mid.  surface     1.1784E+09  1.1266E+09  8.3717E+08 -4.2876E+07  5.1115E+07  1.1396E+07  1.8933E-01
     126-
 mid.  surface     1.3292E+09  1.3757E+09  6.2024E+08  2.5774E+07  1.6955E+08 -2.9776E+08  1.0409E-01
     127-
 mid.  surface     1.6339E+09  1.6291E+09  1.3078E+09  3.3257E+07  1.0819E+08 -2.5474E+08  8.4254E-02
     128-
 mid.  surface     2.4198E+08  2.2472E+08 -1.1162E+09 -2.7316E+07 -6.1705E+07 -4.5574E+08  3.9957E-02
     129-
 mid.  surface    -6.9674E+08 -6.3534E+08 -1.9978E+09  6.0521E+07 -4.5966E+07 -5.2947E+08 -5.4648E-03
     148-
 mid.  surface    -2.9648E+08 -2.9409E+08 -2.1136E+08  3.8998E+06  8.3100E+07  4.6496E+07  6.7902E-02
     149-
 mid.  surface     1.7044E+09  1.6908E+09  4.6375E+08  1.1202E+07 -1.6368E+08  2.6082E+07  1.6319E-01
     150-
 mid.  surface    -5.0977E+08 -4.7671E+08 -7.0794E+08  9.7363E+06 -1.0864E+08  1.6964E+07  6.9048E-02
     164-
 mid.  surface    -8.7690E+08 -8.5172E+08 -6.7378E+08 -1.9001E+06  9.8843E+07  3.8999E+07  7.6251E-02
     165-
 mid.  surface     8.5970E+08  8.6179E+08  6.0664E+07 -5.0976E+05 -1.3919E+08  9.2245E+05  1.2752E-01
     166-
 mid.  surface    -4.4126E+08 -4.4669E+08 -5.6962E+08  2.2386E+06 -1.2697E+08 -9.2567E+05  7.8834E-02



 n o d a l  s t r a i n  c a l c u l a t i o n s   f o r   t i m e  s t e p      339   ( at time 1.45238E+01 )

 node (global)
          strain       eps-xx      eps-yy      eps-zz      eps-xy      eps-yz      eps-zx       
       1-
 mid.  surface     5.7668E-02  5.9430E-02 -1.0310E-01  6.0840E-03 -7.3443E-03  1.9594E-02
       2-
 mid.  surface     5.4388E-02  6.0894E-02 -1.3812E-01  7.1717E-03  1.8582E-04  3.0424E-02
       8-
 mid.  surface     4.9920E-02  5.7745E-02 -1.0982E-01 -5.0276E-03 -1.2717E-02 -1.2403E-04
       9-
 mid.  surface     5.9771E-02  5.2633E-02 -1.2298E-01 -4.2392E-03 -1.7009E-02 -1.0436E-03
      10-
 mid.  surface     6.0873E-02  4.4849E-02 -1.0718E-01  1.5661E-03 -3.5033E-02 -1.7837E-03
      11-
 mid.  surface     5.8466E-02  5.1409E-02 -1.0795E-01  1.6069E-03 -4.2595E-02 -6.9521E-03
      12-
 mid.  surface     4.5730E-02  5.8025E-02 -8.7767E-02 -2.0708E-04 -3.9349E-02 -1.6446E-02
      17-
 mid.  surface     5.3641E-02  5.7781E-02 -1.1558E-01  4.2521E-04 -4.2306E-02 -1.7877E-02
      18-
 mid.  surface     4.9760E-02  5.3386E-02 -1.0260E-01  1.1104E-04 -2.9462E-02 -5.6489E-03
      19-
 mid.  surface     4.4026E-02  5.9214E-02 -1.1979E-01  7.8812E-04 -2.8853E-02 -1.4866E-02
      20-
 mid.  surface     5.7080E-02  5.7699E-02 -1.0361E-01  8.4099E-03  5.1894E-03 -1.6930E-03
      21-
 mid.  surface     4.4972E-02  5.8582E-02 -1.1325E-01  4.7656E-03 -2.7800E-03 -2.9037E-03
      22-
 mid.  surface     4.8602E-02  5.5722E-02 -8.7668E-02  2.1621E-03 -1.2024E-02 -9.0490E-03
      23-
 mid.  surface     6.2717E-02  5.3661E-02 -1.0441E-01  5.1360E-03  7.1116E-03  1.7211E-03
      24-
 mid.  surface     3.6082E-02  3.7840E-02 -7.7009E-02 -1.8665E-03 -7.2750E-03 -3.8626E-03
      25-
 mid.  surface     5.5616E-02  4.0943E-02 -9.3072E-02  3.3679E-03 -9.6944E-03 -9.4075E-03
      26-
 mid.  surface     5.5336E-02  4.4811E-02 -9.0575E-02  7.3247E-03 -1.9346E-02 -2.6461E-02
      27-
 mid.  surface     3.6619E-02  3.9283E-02 -8.2856E-02 -4.0954E-03 -9.0347E-03 -8.5314E-03
      28-
 mid.  surface     1.8059E-02  2.1088E-02 -4.7782E-02 -2.0581E-03 -3.1825E-02 -1.8099E-02
      29-
 mid.  surface     3.8877E-02  1.7779E-02 -6.3944E-02  7.9138E-04 -2.8914E-02 -2.7459E-02
      30-
 mid.  surface     4.0169E-02  3.1521E-02 -8.0804E-02  8.3266E-03 -4.4940E-02 -4.0185E-02
      31-
 mid.  surface     1.3882E-02  2.6708E-02 -4.7977E-02 -1.5519E-03 -4.0461E-02 -1.8596E-02
      52-
 mid.  surface     5.5791E-02  5.1565E-02 -1.0789E-01 -3.3649E-04  2.2062E-03 -2.6015E-03
      53-
 mid.  surface     4.8802E-02  5.4683E-02 -9.9195E-02  5.8816E-04  9.0503E-03  1.5987E-03
      54-
 mid.  surface     3.8435E-02  4.4127E-02 -8.9680E-02 -1.5302E-04 -1.8837E-02 -1.0921E-02
      55-
 mid.  surface     4.1652E-02  4.1530E-02 -8.6077E-02  1.2368E-03 -1.1780E-02 -6.2104E-03
      56-
 mid.  surface     2.1952E-02  2.9739E-02 -5.9130E-02  3.7224E-03 -4.3654E-02 -1.2763E-02
      57-
 mid.  surface     2.7508E-02  2.5722E-02 -6.6416E-02  2.5327E-03 -3.9532E-02 -1.4005E-02
     124-
 mid.  surface     3.4851E-02  5.8252E-02 -1.2656E-01  4.2505E-03  3.0014E-02 -2.8635E-02
     125-
 mid.  surface     4.0423E-02  5.0896E-02 -9.2516E-02  1.3681E-03  3.9628E-02 -3.0899E-02
     126-
 mid.  surface     3.9534E-02  3.1529E-02 -7.5643E-02 -1.1394E-03  3.8951E-02 -3.3588E-02
     127-
 mid.  surface     4.1483E-02  3.1650E-02 -6.9489E-02  6.3364E-03  6.8880E-02 -3.7806E-02
     128-
 mid.  surface     2.8876E-02  4.8482E-03 -2.5556E-02 -1.2779E-02  1.6088E-02 -2.5644E-02
     129-
 mid.  surface     2.1594E-02  1.2928E-02 -4.5979E-02 -5.4440E-03  4.1182E-02 -4.3886E-02
     148-
 mid.  surface     4.8787E-02  5.7458E-02 -1.0016E-01 -1.3851E-03 -3.3375E-03  6.1265E-03
     149-
 mid.  surface     3.9345E-02  4.0189E-02 -8.1231E-02  3.9870E-04 -9.7768E-03  6.2112E-03
     150-
 mid.  surface     2.1459E-02  2.9339E-02 -5.9590E-02  3.4993E-03 -3.5717E-02  8.4374E-04
     164-
 mid.  surface     5.3194E-02  5.5425E-02 -1.0871E-01 -2.2202E-03 -9.1636E-03 -2.7004E-03
     165-
 mid.  surface     3.8529E-02  3.8769E-02 -8.1808E-02 -1.2454E-03 -1.8219E-02 -5.2858E-03
     166-
 mid.  surface     2.2389E-02  2.5719E-02 -5.4854E-02  2.4943E-03 -4.1527E-02 -9.2668E-03



 n o d a l  s t r e s s  c a l c u l a t i o n s   f o r   t i m e  s t e p      350   ( at time 1.82020E+01 )

 node (global)
          stress       sig-xx      sig-yy      sig-zz      sig-xy      sig-yz      sig-zx       plastic
                                                                                                 strain 
       1-
 mid.  surface    -6.0181E+09 -6.1114E+09 -4.3494E+09  7.8775E+06 -1.6219E+07  5.5404E+07 -2.8088E-01
       2-
 mid.  surface    -2.6859E+09 -2.9366E+09 -3.4900E+09 -6.6125E+07  7.9672E+07  4.3611E+07  2.5529E-03
       8-
 mid.  surface    -2.2105E+08 -2.8937E+08 -5.1796E+08  2.4239E+06 -1.2001E+08  8.0419E+06  1.5210E-01
       9-
 mid.  surface    -5.7547E+08 -6.3712E+08 -8.8506E+08  1.0838E+07 -9.3065E+07  1.0558E+07  1.6978E-01
      10-
 mid.  surface    -1.8345E+07 -6.7551E+07 -3.4895E+08 -2.2104E+07 -7.1975E+07 -7.6885E+06  1.5008E-01
      11-
 mid.  surface     2.1882E+08  2.1053E+08 -8.5628E+07 -9.9961E+06 -7.4647E+07  2.4733E+07  1.3940E-01
      12-
 mid.  surface    -2.9635E+09 -2.8585E+09 -1.8431E+09  1.9159E+07 -5.8948E+07 -2.0974E+07 -1.6395E-01
      17-
 mid.  surface    -3.5120E+08 -3.4294E+08 -6.1128E+08 -3.8852E+07 -1.1473E+08 -2.9269E+07  1.5695E-01
      18-
 mid.  surface     1.5175E+07 -1.3396E+07 -2.6479E+08 -2.4712E+07 -1.2868E+08 -4.2248E+06  1.4115E-01
      19-
 mid.  surface    -9.9364E+08 -9.2038E+08 -1.7384E+09 -3.7043E+07 -4.1698E+07 -5.1784E+07  9.8921E-02
      20-
 mid.  surface    -3.7218E+07 -2.9395E+07 -1.2493E+08 -6.1753E+06 -6.5935E+06 -5.9010E+06  1.0644E-01
      21-
 mid.  surface    -7.7781E+07 -3.4179E+07 -8.0904E+08  2.4496E+06  1.9524E+07 -5.0144E+07  2.6212E-01
      22-
 mid.  surface     1.0291E+08  1.1952E+08  2.7906E+08  2.3193E+07 -3.1932E+07  3.8522E+07  1.2492E-01
      23-
 mid.  surface     2.3011E+08  1.9918E+08  1.1069E+08 -1.1764E+07  2.3501E+07  4.9893E+07  1.1694E-01
      24-
 mid.  surface     1.0759E+09  1.0930E+09  3.4115E+08 -2.7863E+07 -3.1655E+07 -1.4448E+08  6.3032E-02
      25-
 mid.  surface     5.8548E+08  5.8275E+08  5.4770E+08  3.5986E+07  1.5304E+08  6.5457E+07  1.1287E-01
      26-
 mid.  surface     1.2046E+09  1.1066E+09  1.3095E+09 -6.5360E+06  1.1404E+08  9.0910E+07  9.5518E-02
      27-
 mid.  surface     5.0557E+08  5.0713E+08  3.6930E+07 -5.1893E+07 -4.2968E+07 -1.0359E+08  7.8800E-02
      28-
 mid.  surface    -1.1308E+09 -1.1152E+09 -1.9947E+09  9.5844E+06 -1.3457E+08 -2.5991E+08  6.5434E-02
      29-
 mid.  surface    -3.1486E+09 -3.1296E+09 -2.8083E+09  5.1801E+07  1.8633E+08  1.8357E+08  5.5701E-03
      30-
 mid.  surface    -2.8733E+09 -2.9916E+09 -2.5445E+09 -6.1259E+07  1.4907E+08  6.2571E+07  1.0886E-02
      31-
 mid.  surface    -2.4915E+09 -2.5389E+09 -2.5139E+09 -1.7742E+07 -1.9505E+08 -2.0518E+08  2.5062E-02
      52-
 mid.  surface    -5.9366E+08 -5.7503E+08 -6.8495E+08  1.6615E+07  4.6966E+07  2.9060E+06  8.1127E-02
      53-
 mid.  surface    -3.2142E+08 -2.8854E+08 -4.2329E+08 -2.1449E+06  5.9253E+07  3.2153E+06  8.6534E-02
      54-
 mid.  surface    -4.7452E+08 -4.6069E+08 -7.8148E+08 -4.8149E+06 -6.2819E+07 -2.7391E+07  7.9478E-02
      55-
 mid.  surface     6.8427E+08  6.7867E+08  3.3957E+06 -6.8501E+06  4.3713E+07 -5.3589E+07  1.1206E-01
      56-
 mid.  surface    -4.1183E+09 -4.2001E+09 -2.4978E+09  6.4319E+06 -1.1883E+08  6.9259E+07 -3.3249E-02
      57-
 mid.  surface    -1.7040E+09 -1.7870E+09 -1.3555E+09  8.0474E+06 -6.8474E+07 -4.6986E+07  4.4047E-02
     124-
 mid.  surface    -3.7031E+08 -3.8515E+08 -1.4071E+09 -2.0937E+07  1.4639E+08 -6.6932E+07  3.6873E-01
     125-
 mid.  surface    -1.1863E+09 -1.1841E+09 -5.7365E+08  3.6668E+07  9.4433E+07  7.5620E+06  1.3781E-01
     126-
 mid.  surface     1.1500E+09  1.2738E+09  1.0071E+09  3.4952E+07  1.4530E+07 -9.8279E+07  1.2618E-01
     127-
 mid.  surface     1.8992E+09  1.9147E+09  2.1215E+09  1.1795E+07 -1.6674E+07 -6.2682E+07  6.1058E-02
     128-
 mid.  surface    -2.0165E+09 -1.8379E+09 -2.3600E+09  3.3804E+07 -2.9113E+08  1.0996E+08  4.6517E-02
     129-
 mid.  surface    -2.7581E+09 -2.6561E+09 -3.0160E+09 -9.0145E+07 -1.8772E+08 -1.3986E+08  9.7082E-03
     148-
 mid.  surface    -2.3953E+08 -2.3687E+08 -3.3942E+08 -1.4489E+07  5.6420E+07  6.2910E+07  8.2009E-02
     149-
 mid.  surface     1.9061E+09  1.9905E+09  9.5927E+08  1.4237E+07  2.0815E+07  8.2990E+07  2.3288E-01
     150-
 mid.  surface    -8.4168E+08 -8.1407E+08 -6.2933E+08  6.0991E+07 -4.7481E+07  8.4390E+07  5.2512E-02
     164-
 mid.  surface    -6.1968E+08 -6.3793E+08 -6.9771E+08  1.5801E+07  2.9596E+06  5.5812E+07  9.0264E-02
     165-
 mid.  surface     4.2897E+08  4.8170E+08 -4.3131E+07  2.2818E+07 -1.3610E+08  9.9366E+07  1.7250E-01
     166-
 mid.  surface    -3.1633E+09 -3.1846E+09 -2.0639E+09  3.4719E+07 -2.2142E+08  1.1355E+08  2.4315E-02



 n o d a l  s t r a i n  c a l c u l a t i o n s   f o r   t i m e  s t e p      350   ( at time 1.82020E+01 )

 node (global)
          strain       eps-xx      eps-yy      eps-zz      eps-xy      eps-yz      eps-zx       
       1-
 mid.  surface     8.6442E-02  8.1849E-02 -1.4460E-01  7.2456E-03 -1.4502E-02  2.2911E-02
       2-
 mid.  surface     8.7964E-02  7.5754E-02 -1.8560E-01  9.6417E-03 -2.8546E-03  4.0387E-02
       8-
 mid.  surface     7.0266E-02  7.1967E-02 -1.4937E-01 -4.0992E-03 -2.1497E-02  1.3554E-03
       9-
 mid.  surface     7.6630E-02  6.1652E-02 -1.5061E-01 -2.6239E-03 -3.1416E-02 -2.9104E-04
      10-
 mid.  surface     7.7468E-02  5.5167E-02 -1.3676E-01 -1.6064E-03 -4.1879E-02 -2.0148E-03
      11-
 mid.  surface     7.2238E-02  6.4657E-02 -1.3757E-01  1.2822E-03 -4.5264E-02 -2.2931E-03
      12-
 mid.  surface     5.4454E-02  7.9606E-02 -1.0785E-01  2.3941E-03 -4.7478E-02 -1.8073E-02
      17-
 mid.  surface     6.6626E-02  7.2691E-02 -1.4833E-01 -4.3244E-03 -4.6976E-02 -1.6106E-02
      18-
 mid.  surface     6.5043E-02  6.6890E-02 -1.3536E-01 -3.1383E-03 -3.7225E-02 -4.3082E-03
      19-
 mid.  surface     5.5510E-02  7.7254E-02 -1.4910E-01  3.2525E-04 -3.0700E-02 -1.4623E-02
      20-
 mid.  surface     7.0939E-02  7.3393E-02 -1.3207E-01  7.9590E-03  2.1954E-03 -1.4804E-03
      21-
 mid.  surface     5.8948E-02  7.5444E-02 -1.4937E-01  4.0708E-03  2.2422E-03 -6.8414E-03
      22-
 mid.  surface     6.2583E-02  7.1644E-02 -1.1426E-01  2.1504E-03 -1.2396E-02 -1.3785E-02
      23-
 mid.  surface     7.8520E-02  6.8013E-02 -1.3273E-01  4.1853E-03  6.5768E-03  7.6733E-03
      24-
 mid.  surface     5.0381E-02  5.1016E-02 -1.0208E-01 -2.9503E-03 -6.5370E-03 -4.4555E-03
      25-
 mid.  surface     7.3663E-02  5.5296E-02 -1.2544E-01  5.8977E-03 -9.2097E-03 -1.3492E-02
      26-
 mid.  surface     7.4910E-02  5.9463E-02 -1.2050E-01  7.8624E-03 -2.3456E-02 -3.2686E-02
      27-
 mid.  surface     4.8005E-02  5.1415E-02 -1.0820E-01 -7.5439E-03 -8.5757E-03 -9.2675E-03
      28-
 mid.  surface     2.7608E-02  3.1173E-02 -6.8311E-02  4.1457E-04 -4.3078E-02 -2.1079E-02
      29-
 mid.  surface     4.4982E-02  2.8753E-02 -8.1805E-02  4.3154E-03 -3.5202E-02 -3.0390E-02
      30-
 mid.  surface     4.9635E-02  3.9877E-02 -1.0122E-01  4.8366E-03 -5.2239E-02 -5.0981E-02
      31-
 mid.  surface     2.3138E-02  3.2136E-02 -6.7273E-02 -6.7720E-04 -5.2490E-02 -2.5063E-02
      52-
 mid.  surface     7.1830E-02  7.1112E-02 -1.3853E-01  4.4814E-04  1.4564E-03 -5.1192E-03
      53-
 mid.  surface     6.4348E-02  7.6619E-02 -1.3081E-01  3.1261E-04  1.0343E-02  2.2940E-03
      54-
[...]
      31-
 mid.  surface     2.6304E-01  2.7196E-01 -4.8894E-01  3.4042E-02 -3.5706E-01 -2.0962E-01
      52-
 mid.  surface     3.7096E-01  3.3468E-01 -6.4724E-01 -9.9858E-03  3.0617E-03  6.3706E-02
      53-
 mid.  surface     3.9187E-01  3.3235E-01 -6.5207E-01 -1.5641E-02  1.8166E-01  6.8000E-02
      54-
 mid.  surface     3.4403E-01  3.7265E-01 -7.2895E-01 -1.1913E-02 -6.1099E-02  2.0951E-02
      55-
 mid.  surface     3.5382E-01  3.0016E-01 -5.5134E-01 -2.4091E-02  3.5723E-01  1.2961E-01
      56-
 mid.  surface     2.5481E-01  3.1673E-01 -7.8867E-01 -2.6104E-02 -5.0278E-01 -1.8088E-01
      57-
 mid.  surface     2.7965E-01  1.6283E-01 -5.2762E-01 -5.3683E-02 -8.2891E-02 -5.6652E-02
     124-
 mid.  surface     3.5562E-01  3.4570E-01 -7.7072E-01 -8.1800E-03  1.0148E-01  8.0187E-02
     125-
 mid.  surface     3.5360E-01  3.9385E-01 -6.9227E-01  5.4343E-03  1.0304E-01 -1.0594E-01
     126-
 mid.  surface     3.0541E-01  2.9082E-01 -6.3446E-01 -5.3090E-03  1.7751E-01 -2.2891E-02
     127-
 mid.  surface     3.1796E-01  3.1554E-01 -6.6739E-01 -3.3845E-02  1.9162E-01 -1.9355E-01
     128-
 mid.  surface     2.4433E-01  1.8214E-01 -3.7049E-01 -7.6449E-03  4.1451E-02 -1.0606E-01
     129-
 mid.  surface     2.8939E-01  2.4034E-01 -4.7273E-01 -6.6540E-02 -9.7994E-04 -1.6738E-01
     148-
 mid.  surface     3.9845E-01  3.7951E-01 -8.1789E-01 -5.1555E-03  1.4089E-01  2.3268E-02
     149-
 mid.  surface     3.7161E-01  4.0861E-01 -6.1036E-01  1.9379E-02  1.0458E-01  3.7739E-02
     150-
 mid.  surface     2.6998E-01  4.2264E-01 -6.1882E-01 -7.8844E-03 -3.6271E-01 -5.0911E-02
     164-
 mid.  surface     3.8140E-01  3.3569E-01 -8.1524E-01  6.7957E-03 -1.3155E-01 -2.2170E-02
     165-
 mid.  surface     3.5032E-01  5.7207E-01 -9.7426E-01  1.1645E-02 -2.7191E-01  1.6564E-02
     166-
 mid.  surface     2.3767E-01  5.0710E-01 -7.7608E-01 -3.4960E-02 -9.7007E-01 -1.3374E-01



 n o d a l  s t r e s s  c a l c u l a t i o n s   f o r   t i m e  s t e p      588   ( at time 9.67663E+01 )

 node (global)
          stress       sig-xx      sig-yy      sig-zz      sig-xy      sig-yz      sig-zx       plastic
                                                                                                 strain 
       1-
 mid.  surface     9.3752E+08  9.7377E+08  1.3839E+07 -4.0018E+07 -1.8235E+07 -2.2413E+07  3.8413E+00
       2-
 mid.  surface     9.0085E+08  9.4661E+08 -9.6491E+08 -4.4794E+07 -2.8471E+07 -9.4092E+07  3.4098E+00
       8-
 mid.  surface    -2.1303E+09 -2.2353E+09 -1.5064E+09  1.3747E+08 -4.2327E+07 -5.9578E+07  1.2778E+00
       9-
 mid.  surface     6.5237E+08  4.5864E+08 -6.3162E+08 -1.8713E+07 -2.6597E+08 -6.1561E+06  1.5935E+00
      10-
 mid.  surface     1.4544E+09  1.4202E+09  1.6469E+09  1.9328E+07 -3.8319E+08 -1.0917E+08  2.1855E-01
      11-
 mid.  surface    -4.8016E+08 -4.8385E+08  5.1385E+07  1.7180E+07 -2.8246E+08 -1.1959E+08 -5.8164E-01
      12-
 mid.  surface     3.0783E+07 -2.6320E+07 -1.7859E+09 -5.1513E+07 -6.2166E+07 -2.3987E+07  4.0904E-02
      17-
 mid.  surface    -2.0449E+08 -2.5957E+08 -1.4819E+09 -1.7999E+07 -2.3821E+08 -1.1087E+08  1.6124E+00
      18-
 mid.  surface     7.5836E+08  7.3253E+08 -9.9531E+08  1.7725E+07 -1.6751E+08 -7.1507E+07  1.4826E+00
      19-
 mid.  surface    -1.5676E+08 -2.4406E+08 -1.4512E+09 -1.1509E+07 -1.1154E+08 -9.7371E+07  9.2417E-01
      20-
 mid.  surface    -4.2222E+08 -4.3162E+08  2.0088E+07  3.5242E+07  1.2474E+08  6.2825E+07  9.2726E-01
      21-
 mid.  surface    -6.8162E+08 -7.4341E+08  6.3743E+08  2.9054E+07  6.8547E+07  1.0684E+08 -4.5062E-01
      22-
 mid.  surface    -8.1901E+08 -8.2793E+08 -4.1586E+08 -1.9817E+07  9.7131E+07  1.4285E+08 -9.9181E-01
      23-
 mid.  surface    -1.4549E+09 -1.4202E+09 -3.7187E+08  2.7439E+07  1.2171E+08  6.4175E+07 -2.9466E-01
      24-
 mid.  surface     1.6379E+08  1.4250E+08 -5.5910E+08  2.6903E+07 -1.3338E+08 -1.0372E+08  8.7318E-01
      25-
 mid.  surface    -4.0460E+08 -4.1534E+08 -2.7512E+08 -3.3323E+06  6.7951E+07 -1.3727E+07 -3.9813E-01
      26-
 mid.  surface    -2.4632E+09 -2.4304E+09 -3.3438E+09 -6.4833E+07  1.0050E+07 -8.5587E+07  2.8501E-01
      27-
 mid.  surface    -2.4889E+09 -2.5084E+09 -3.5284E+09 -2.9829E+07 -5.1353E+07 -7.2790E+07  1.6099E+00
      28-
 mid.  surface     3.1525E+09  3.1201E+09  2.5161E+09  1.0746E+07 -7.2966E+07 -8.9622E+07  9.6020E-01
      29-
 mid.  surface     1.5712E+09  1.5670E+09  1.0686E+09 -8.5604E+06  1.2135E+08  7.9483E+07  8.3294E-01
      30-
 mid.  surface    -4.5539E+08 -4.0026E+08 -1.6203E+09 -7.7920E+07  6.4550E+07  2.3834E+07  1.3929E+00
      31-
 mid.  surface     5.8521E+08  5.3975E+08 -1.8418E+07 -4.0403E+07  3.7959E+07 -8.6279E+07  1.5477E+00
      52-
 mid.  surface     3.3665E+08  4.4325E+08  1.9622E+09 -1.0866E+07  9.8444E+07  1.9665E+07 -2.9969E-01
      53-
 mid.  surface    -1.0853E+08 -1.1699E+07  4.4652E+08 -3.9751E+06  1.6912E+08  1.9777E+07 -2.1548E-01
      54-
 mid.  surface    -1.8386E+09 -1.8411E+09 -2.5573E+09 -2.1394E+07 -7.3620E+06  1.2191E+07  1.5774E+00
      55-
 mid.  surface    -3.0954E+08 -3.3529E+08 -1.1926E+09  8.8457E+06 -1.0669E+08 -3.9389E+07  6.3427E-01
      56-
 mid.  surface     9.5997E+08  9.2199E+08 -1.9821E+08 -3.8486E+07 -6.4372E+07  1.4128E+07  1.3217E+00
      57-
 mid.  surface     2.9761E+09  2.8910E+09  1.4668E+09 -9.5791E+06 -1.1130E+08 -8.8298E+06  1.0336E+00
     124-
 mid.  surface     1.7794E+09  1.8408E+09  6.2664E+08 -3.2369E+07 -8.5431E+06 -4.4150E+07  1.5057E+00
     125-
 mid.  surface     1.5083E+09  1.6435E+09 -4.0638E+08 -4.4096E+07 -2.5876E+07 -9.2690E+06  1.6215E+00
     126-
 mid.  surface     6.4177E+08  5.9900E+08 -4.2435E+08  2.5334E+07 -3.9010E+06 -1.5711E+08 -3.4448E-01
     127-
 mid.  surface    -3.0787E+08 -1.7299E+08 -2.7548E+09 -1.0474E+07 -1.0613E+08 -3.0768E+08 -2.0243E-01
     128-
 mid.  surface     1.4388E+09  1.2794E+09  2.5071E+09  5.5587E+07  1.0261E+08  1.5494E+08  2.2064E-01
     129-
 mid.  surface    -1.9804E+09 -2.0626E+09 -2.0411E+09  4.3863E+07 -5.9181E+07  5.2149E+07  8.4376E-01
     148-
 mid.  surface    -7.3709E+08 -6.4537E+08  7.7124E+08  1.6904E+07  1.4249E+08 -3.9211E+07 -1.6173E+00
     149-
 mid.  surface    -5.5726E+08 -5.6253E+08 -6.2039E+08  1.5725E+07  1.0152E+08  8.5670E+06 -5.8129E-01
     150-
 mid.  surface     2.5073E+09  2.4808E+09  2.0263E+09  1.3691E+07 -5.3613E+07  5.9432E+07  1.5609E-01
     164-
 mid.  surface     4.4940E+08  4.6758E+08  1.4049E+09 -4.8768E+07  5.7907E+07  7.2594E+06 -4.5112E-01
     165-
 mid.  surface    -1.7261E+09 -1.7483E+09 -2.2187E+09 -3.5369E+06  1.3519E+08  4.8375E+07  1.0571E+00
     166-
 mid.  surface     1.4481E+09  1.4347E+09  8.0523E+08 -5.4744E+07  1.1802E+08  1.5302E+08  1.0286E+00



 n o d a l  s t r a i n  c a l c u l a t i o n s   f o r   t i m e  s t e p      588   ( at time 9.67663E+01 )

 node (global)
          strain       eps-xx      eps-yy      eps-zz      eps-xy      eps-yz      eps-zx       
       1-
 mid.  surface     3.3529E-01  4.4725E-01 -6.5933E-01 -1.4037E-03 -2.1889E-02  4.0259E-02
       2-
 mid.  surface     3.5623E-01  3.8377E-01 -7.9833E-01 -3.0419E-02  4.9950E-02  6.1365E-02
       8-
 mid.  surface     4.2986E-01  4.5646E-01 -9.0669E-01  1.5156E-02 -6.4793E-02 -1.0781E-02
       9-
 mid.  surface     4.1643E-01  3.4821E-01 -8.6231E-01  8.9418E-03 -9.7044E-02 -3.3147E-02
      10-
 mid.  surface     3.9133E-01  2.7275E-01 -6.2102E-01  3.1505E-03 -1.4485E-01 -1.3509E-03
      11-
 mid.  surface     3.4251E-01  3.5841E-01 -6.9409E-01 -5.0010E-02 -9.3001E-02  9.9639E-03
      12-
 mid.  surface     3.9925E-01  4.5777E-01 -8.6459E-01  2.8480E-02 -5.5815E-02 -3.9368E-02
      17-
 mid.  surface     3.5743E-01  3.9146E-01 -7.8179E-01 -7.5923E-02 -1.2174E-01 -3.4313E-02
      18-
 mid.  surface     4.1591E-01  3.6474E-01 -7.5081E-01 -4.8051E-04 -1.2884E-01 -4.5622E-03
      19-
 mid.  surface     4.0723E-01  4.1565E-01 -9.3793E-01  6.5498E-03  1.7477E-04 -7.0664E-02
      20-
 mid.  surface     3.9610E-01  3.6746E-01 -8.2367E-01 -4.2923E-02  8.1582E-02 -3.9951E-02
      21-
 mid.  surface     3.9724E-01  3.5714E-01 -8.2318E-01  6.0245E-03 -1.3738E-02 -6.9334E-02
      22-
 mid.  surface     3.8085E-01  4.2020E-01 -7.8556E-01  2.8004E-02 -2.7815E-02  4.6056E-02
      23-
 mid.  surface     3.6321E-01  3.9502E-01 -8.2638E-01 -1.9493E-02  1.2307E-01 -2.8190E-02
      24-
 mid.  surface     4.2038E-01  3.9788E-01 -7.4105E-01  4.2855E-02  1.9093E-01  8.0517E-02
      25-
 mid.  surface     3.1800E-01  3.1321E-01 -6.7150E-01 -1.6353E-02  7.8703E-02  4.2720E-02
      26-
 mid.  surface     3.4063E-01  3.5896E-01 -6.7963E-01 -8.8291E-03 -7.2465E-02  2.9961E-02
      27-
 mid.  surface     4.0080E-01  4.0094E-01 -7.2999E-01  6.0988E-02  2.0457E-01  1.5865E-01
      28-
 mid.  surface     2.9101E-01  2.5811E-01 -4.8763E-01 -4.2588E-02  4.8242E-02  5.8321E-02
      29-
 mid.  surface     2.7986E-01  2.6622E-01 -6.0720E-01 -4.5738E-03 -6.8950E-02 -7.1918E-02
      30-
 mid.  surface     3.1852E-01  2.8035E-01 -6.0674E-01  3.8429E-02 -2.8015E-01 -1.4590E-01
      31-
 mid.  surface     2.8529E-01  3.0478E-01 -5.6004E-01  4.4788E-02 -3.9189E-01 -2.2884E-01
      52-
 mid.  surface     3.9439E-01  3.5478E-01 -6.6996E-01 -1.2345E-02 -5.0273E-03  8.2241E-02
      53-
 mid.  surface     4.1896E-01  3.4677E-01 -6.7892E-01 -1.6147E-02  1.9599E-01  9.2397E-02
      54-
 mid.  surface     3.6987E-01  4.0423E-01 -7.7192E-01 -1.0058E-02 -8.2465E-02  5.1279E-02
      55-
 mid.  surface     3.7627E-01  3.1971E-01 -5.8903E-01 -3.5116E-02  4.1381E-01  1.7684E-01
      56-
 mid.  surface     2.8527E-01  3.6688E-01 -8.4192E-01 -5.4849E-03 -5.9425E-01 -2.0857E-01
      57-
 mid.  surface     2.9915E-01  2.0532E-01 -5.8257E-01 -5.7254E-02 -8.0046E-02 -3.3753E-02
     124-
 mid.  surface     3.8072E-01  3.6381E-01 -8.0664E-01 -3.2536E-03  8.9721E-02  9.7747E-02
     125-
 mid.  surface     3.8333E-01  4.1148E-01 -7.3239E-01  7.7344E-03  9.6243E-02 -1.0288E-01
     126-
 mid.  surface     3.2099E-01  3.1728E-01 -6.7037E-01 -1.2135E-02  1.7765E-01 -3.7499E-02
     127-
 mid.  surface     3.4023E-01  3.3725E-01 -7.1253E-01 -3.8850E-02  1.9162E-01 -1.8677E-01
     128-
 mid.  surface     2.6819E-01  1.9385E-01 -3.6570E-01 -2.4733E-02  9.1795E-03 -6.1511E-02
     129-
 mid.  surface     3.0191E-01  2.6061E-01 -4.8727E-01 -6.6309E-02 -6.4475E-02 -1.4129E-01
     148-
 mid.  surface     4.2846E-01  3.9720E-01 -8.6602E-01 -2.8211E-03  1.4779E-01  2.5548E-02
     149-
 mid.  surface     4.0045E-01  4.1502E-01 -6.5894E-01  1.4395E-02  1.1034E-01  3.1126E-02
     150-
 mid.  surface     2.9317E-01  4.2784E-01 -6.7781E-01 -2.9758E-03 -4.0984E-01 -8.4737E-02
     164-
 mid.  surface     4.1146E-01  3.5704E-01 -8.8607E-01  1.9941E-03 -7.2263E-02 -3.1041E-02
     165-
 mid.  surface     3.8462E-01  5.8720E-01 -1.0352E+00  1.4016E-02 -2.5580E-01 -1.2315E-02
     166-
 mid.  surface     2.6692E-01  5.6587E-01 -8.7839E-01 -1.0624E-02 -9.9380E-01 -1.8527E-01



 n o d a l  s t r e s s  c a l c u l a t i o n s   f o r   t i m e  s t e p      598   ( at time 1.00000E+02 )

 node (global)
          stress       sig-xx      sig-yy      sig-zz      sig-xy      sig-yz      sig-zx       plastic
                                                                                                 strain 
       1-
 mid.  surface     9.6571E+08  9.6239E+08  1.8275E+07 -3.5126E+07 -2.5442E+07 -2.1370E+07  3.8911E+00
       2-
 mid.  surface     9.5444E+08  9.3721E+08 -9.4315E+08 -4.1930E+07 -2.9968E+07 -1.2732E+08  3.5125E+00
       8-
 mid.  surface    -1.7212E+09 -1.7450E+09 -1.0321E+09  6.4008E+07 -5.1450E+07 -7.0127E+07  1.2248E+00
       9-
 mid.  surface     2.1245E+09  2.0041E+09  8.9748E+08  2.4071E+07 -3.1566E+08 -1.8005E+07  1.6707E+00
      10-
 mid.  surface     1.3468E+09  1.2332E+09  1.5308E+09 -1.9717E+06 -3.4601E+08 -1.0382E+08  1.9513E-01
      11-
 mid.  surface    -1.0133E+09 -1.0268E+09  6.8883E+07 -1.9579E+07 -2.3082E+08 -7.6948E+07 -6.3337E-01
      12-
 mid.  surface    -6.3293E+08 -6.4302E+08 -9.4549E+08 -1.4499E+07 -6.5934E+07 -9.3940E+06  7.3212E-02
      17-
 mid.  surface     1.9912E+08  2.1612E+08 -1.1032E+09  2.1080E+07 -5.7121E+07 -3.3884E+07  1.6887E+00
      18-
 mid.  surface    -1.9763E+08 -1.9052E+08 -9.9334E+08  1.4841E+07 -4.0975E+07 -7.0237E+07  1.5333E+00
      19-
 mid.  surface     3.9600E+08  3.3574E+08 -1.3811E+09  2.0297E+07 -2.1997E+07 -6.6393E+07  1.0073E+00
      20-
 mid.  surface    -6.4907E+08 -5.7668E+08  1.1802E+07  3.8040E+07  2.1247E+08  1.0092E+08  8.9621E-01
      21-
 mid.  surface    -8.6141E+08 -9.0434E+08  3.3328E+08  3.0847E+07  6.4999E+07  8.3972E+07 -5.2901E-01
      22-
 mid.  surface    -1.2485E+09 -1.2347E+09 -3.6489E+08 -1.4012E+07  1.8111E+07  8.0645E+07 -1.0308E+00
      23-
 mid.  surface    -1.8788E+09 -1.8043E+09 -1.7940E+08  1.8065E+06  8.2425E+07  4.2055E+07 -3.8255E-01
      24-
 mid.  surface    -3.5138E+07 -9.4409E+07 -4.9041E+08  3.6254E+07 -7.2264E+07 -3.5863E+06  8.9187E-01
      25-
 mid.  surface    -6.2131E+08 -6.2599E+08 -1.7372E+08 -2.4282E+06 -2.1125E+07 -7.1737E+07 -4.1897E-01
      26-
 mid.  surface    -2.5345E+09 -2.4782E+09 -3.5947E+09 -5.2470E+07 -5.6342E+07 -1.6950E+08  3.6383E-01
      27-
 mid.  surface    -2.4563E+09 -2.4891E+09 -3.8219E+09 -1.4994E+07 -1.0264E+08 -1.2257E+08  1.6934E+00
      28-
 mid.  surface     3.8392E+09  3.7385E+09  2.9545E+09  5.3430E+06 -2.1412E+06 -4.7441E+07  9.9356E-01
      29-
 mid.  surface     1.4682E+09  1.3774E+09  1.1684E+09 -2.0395E+07  2.8878E+07  1.2369E+08  8.6428E-01
      30-
 mid.  surface    -5.4012E+08 -5.2671E+08 -1.9084E+09 -9.2586E+07  4.5138E+06  2.5084E+07  1.4916E+00
      31-
 mid.  surface     8.0020E+08  7.3225E+08 -2.0037E+08 -4.1875E+07  4.7966E+07 -8.0975E+07  1.5983E+00
      52-
 mid.  surface     6.4725E+08  7.1179E+08  1.9154E+09 -1.6584E+07  7.3962E+07  6.7910E+06 -3.8167E-01
      53-
 mid.  surface    -3.0627E+08 -2.0110E+08  2.7246E+08 -8.1681E+06  1.9193E+08  3.0078E+07 -2.4284E-01
      54-
 mid.  surface    -1.7845E+09 -1.7890E+09 -2.8114E+09 -7.4822E+06 -7.8423E+07  3.0183E+06  1.6493E+00
      55-
 mid.  surface     1.7090E+07 -2.1193E+07 -1.2694E+09  2.2867E+07 -7.6463E+07  5.8655E+07  7.2677E-01
      56-
 mid.  surface     1.1440E+09  1.1277E+09 -2.5070E+07 -3.2357E+07 -9.2972E+07 -6.0778E+07  1.4020E+00
      57-
 mid.  surface     3.3905E+09  3.3184E+09  1.8938E+09 -1.2049E+07 -3.1334E+07  4.0058E+07  1.1354E+00
     124-
 mid.  surface     1.9147E+09  1.9280E+09  9.6264E+08 -3.1825E+07 -1.3151E+07  1.4577E+07  1.5443E+00
     125-
 mid.  surface     1.8198E+09  1.9176E+09 -3.3693E+08 -3.6603E+07  3.1595E+06  9.1432E+06  1.7472E+00
     126-
 mid.  surface     6.4705E+08  5.7831E+08  1.3065E+08  4.3499E+07 -2.5484E+06 -4.8962E+07 -3.2216E-01
     127-
 mid.  surface    -9.7737E+07  5.1037E+07 -2.3717E+09 -4.8577E+06 -5.9199E+07 -2.4295E+08 -6.9664E-02
     128-
 mid.  surface     1.4511E+09  1.2599E+09  2.4887E+09  6.7454E+07  8.3661E+07  1.4252E+08  1.5780E-01
     129-
 mid.  surface    -2.3221E+09 -2.3984E+09 -2.4363E+09  8.0430E+07 -8.6080E+06  1.5121E+08  8.6057E-01
     148-
 mid.  surface    -7.3177E+08 -6.5179E+08  7.8356E+08 -1.1010E+07  1.2690E+08 -2.8445E+07 -1.7220E+00
     149-
 mid.  surface    -8.1890E+08 -8.1450E+08 -8.8135E+08  1.6309E+07  8.6732E+07  1.7132E+07 -5.7446E-01
     150-
 mid.  surface     2.4117E+09  2.3623E+09  1.9151E+09 -1.5288E+07 -5.4456E+06  3.1216E+07  1.9275E-01
     164-
 mid.  surface     1.0481E+09  1.0824E+09  2.0363E+09 -2.7805E+07 -5.7801E+06  3.4968E+06 -5.2390E-01
     165-
 mid.  surface    -2.0983E+09 -2.1235E+09 -2.6041E+09  6.8136E+06  5.4363E+07  9.8703E+06  1.0809E+00
     166-
 mid.  surface     1.0858E+09  9.8382E+08  3.8170E+08 -7.3801E+07  8.3300E+07  5.4320E+07  1.0478E+00



 n o d a l  s t r a i n  c a l c u l a t i o n s   f o r   t i m e  s t e p      598   ( at time 1.00000E+02 )

 node (global)
          strain       eps-xx      eps-yy      eps-zz      eps-xy      eps-yz      eps-zx       
       1-
 mid.  surface     3.4509E-01  4.6104E-01 -6.8576E-01 -5.6852E-03 -2.9180E-02  2.8753E-02
       2-
 mid.  surface     3.6789E-01  3.9824E-01 -8.3254E-01 -3.2856E-02  4.4164E-02  6.1133E-02
       8-
 mid.  surface     4.4472E-01  4.5687E-01 -9.1381E-01  1.1266E-02 -6.7254E-02 -6.8627E-03
       9-
 mid.  surface     4.3119E-01  3.5434E-01 -8.7215E-01  4.7071E-03 -9.2391E-02 -2.9108E-02
      10-
 mid.  surface     4.0816E-01  2.9368E-01 -6.5635E-01  6.2912E-03 -1.6288E-01 -2.6819E-03
      11-
 mid.  surface     3.5727E-01  3.7578E-01 -7.3029E-01 -4.8141E-02 -9.8777E-02  1.4385E-02
      12-
 mid.  surface     4.1008E-01  4.7148E-01 -8.9400E-01  2.3737E-02 -5.3473E-02 -3.6621E-02
      17-
 mid.  surface     3.7287E-01  4.0210E-01 -8.0070E-01 -7.4108E-02 -1.3735E-01 -4.2799E-02
      18-
 mid.  surface     4.3295E-01  3.8114E-01 -7.9439E-01  1.9630E-03 -1.5225E-01 -1.1176E-02
      19-
 mid.  surface     4.1784E-01  4.2753E-01 -9.5906E-01  2.9320E-03 -2.3845E-03 -6.8073E-02
      20-
 mid.  surface     4.1074E-01  3.7672E-01 -8.4878E-01 -4.4651E-02  5.8864E-02 -4.3095E-02
      21-
 mid.  surface     4.0859E-01  3.6721E-01 -8.4288E-01  6.5179E-03 -4.3885E-03 -7.4398E-02
      22-
 mid.  surface     3.9209E-01  4.3360E-01 -8.0439E-01  2.8745E-02 -2.3042E-02  5.1960E-02
      23-
 mid.  surface     3.7766E-01  4.0349E-01 -8.5518E-01 -1.9864E-02  1.3569E-01 -2.2381E-02
      24-
 mid.  surface     4.3853E-01  4.0956E-01 -7.9320E-01  4.4391E-02  2.0565E-01  9.4703E-02
      25-
 mid.  surface     3.2313E-01  3.2301E-01 -6.8070E-01 -2.1034E-02  9.0725E-02  4.2963E-02
      26-
 mid.  surface     3.4847E-01  3.7043E-01 -6.9444E-01 -1.0513E-02 -6.7266E-02  2.3158E-02
      27-
 mid.  surface     4.1702E-01  4.0528E-01 -7.5639E-01  6.3525E-02  2.3476E-01  1.9773E-01
      28-
 mid.  surface     2.9691E-01  2.6738E-01 -5.2175E-01 -4.6842E-02  4.6858E-02  6.2398E-02
      29-
 mid.  surface     2.8424E-01  2.7551E-01 -5.8428E-01 -1.1890E-02 -6.8698E-02 -5.4946E-02
      30-
 mid.  surface     3.2006E-01  2.9457E-01 -6.0555E-01  4.0423E-02 -3.1115E-01 -1.8228E-01
      31-
 mid.  surface     3.0075E-01  3.2185E-01 -6.0867E-01  5.6629E-02 -3.7838E-01 -1.9951E-01
      52-
 mid.  surface     4.0666E-01  3.6786E-01 -6.9191E-01 -1.3825E-02  3.0525E-02  9.1306E-02
      53-
 mid.  surface     4.3146E-01  3.5789E-01 -6.9676E-01 -1.7568E-02  1.9764E-01  9.0460E-02
      54-
 mid.  surface     3.8469E-01  4.1433E-01 -7.9432E-01 -1.0541E-02 -5.6709E-02  5.3563E-02
      55-
 mid.  surface     3.8795E-01  3.2716E-01 -5.9285E-01 -4.0041E-02  4.1603E-01  1.7866E-01
      56-
 mid.  surface     2.9734E-01  3.9135E-01 -8.5664E-01  1.9473E-03 -6.1665E-01 -2.2093E-01
      57-
 mid.  surface     3.0469E-01  2.1979E-01 -6.0118E-01 -6.2213E-02 -9.2637E-02 -3.7519E-02
     124-
 mid.  surface     3.9277E-01  3.7321E-01 -8.2756E-01  2.7013E-04  8.2662E-02  1.0768E-01
     125-
 mid.  surface     3.9991E-01  4.2162E-01 -7.5419E-01  7.9846E-03  9.6226E-02 -1.0000E-01
     126-
 mid.  surface     3.4018E-01  3.2853E-01 -7.0813E-01 -1.3665E-02  1.7067E-01 -4.1540E-02
     127-
 mid.  surface     3.6210E-01  3.4954E-01 -7.6655E-01 -4.1441E-02  1.8097E-01 -1.9200E-01
     128-
 mid.  surface     2.7840E-01  1.9823E-01 -3.8612E-01 -3.0396E-02  1.3610E-03 -6.8113E-02
     129-
 mid.  surface     3.1385E-01  2.7283E-01 -5.3405E-01 -6.4326E-02 -8.4172E-02 -1.0563E-01
     148-
 mid.  surface     4.4356E-01  4.0899E-01 -8.9267E-01 -2.6434E-03  1.6418E-01  2.0492E-02
     149-
 mid.  surface     4.1589E-01  4.2005E-01 -6.9331E-01  1.2779E-02  1.1356E-01  2.5524E-02
     150-
 mid.  surface     3.0519E-01  4.3655E-01 -7.1572E-01 -4.3422E-03 -4.3063E-01 -8.6688E-02
     164-
 mid.  surface     4.2682E-01  3.7176E-01 -9.1341E-01  2.4322E-03 -7.1637E-02 -3.2456E-02
     165-
 mid.  surface     4.0291E-01  5.9979E-01 -1.0762E+00  1.6354E-02 -2.5784E-01 -1.2421E-02
     166-
 mid.  surface     2.8165E-01  5.9680E-01 -9.3830E-01 -5.4782E-03 -1.0040E+00 -1.8999E-01
