 LS-DYNA keyword deck by LS-PrePost                                      
                    ls-dyna smp d R14 R14.1.1s_1_ef50e1 date 06/16/2024



 e l e m e n t   s t r e s s   c a l c u l a t i o n s   f o r   t i m e  s t e p        1   ( at time 0.00000E+00 )

 element  materl
     ipt  stress       sig-xx      sig-yy      sig-zz      sig-xy      sig-yz      sig-zx                       yield
           state                                                                                  effsg      function
      13-      1
       1          -1.9509E-06 -1.9509E-06 -1.9509E-06  0.0000E+00  0.0000E+00  0.0000E+00    0.0000E+00    0.0000E+00
      14-      1
       1          -5.8528E-06 -5.8528E-06 -5.8528E-06  0.0000E+00  0.0000E+00  0.0000E+00    0.0000E+00    0.0000E+00
      15-      1
       1          -1.9509E-06 -1.9509E-06 -1.9509E-06  0.0000E+00  0.0000E+00  0.0000E+00    0.0000E+00    0.0000E+00
      21-      1
       1           0.0000E+00  0.0000E+00  0.0000E+00  0.0000E+00  0.0000E+00  0.0000E+00    0.0000E+00    0.0000E+00
      22-      1
       1           0.0000E+00  0.0000E+00  0.0000E+00  0.0000E+00  0.0000E+00  0.0000E+00    0.0000E+00    0.0000E+00
      23-      1
       1          -1.9509E-06 -1.9509E-06 -1.9509E-06  0.0000E+00  0.0000E+00  0.0000E+00    0.0000E+00    0.0000E+00
      53-      1
       1          -1.9509E-06 -1.9509E-06 -1.9509E-06  0.0000E+00  0.0000E+00  0.0000E+00    0.0000E+00    0.0000E+00
      54-      1
       1           0.0000E+00  0.0000E+00  0.0000E+00  0.0000E+00  0.0000E+00  0.0000E+00    0.0000E+00    0.0000E+00
      55-      1
       1          -1.9509E-06 -1.9509E-06 -1.9509E-06  0.0000E+00  0.0000E+00  0.0000E+00    0.0000E+00    0.0000E+00
      93-      1
       1          -3.9019E-06 -3.9019E-06 -3.9019E-06  0.0000E+00  0.0000E+00  0.0000E+00    0.0000E+00    0.0000E+00
      94-      1
       1          -3.9019E-06 -3.9019E-06 -3.9019E-06  0.0000E+00  0.0000E+00  0.0000E+00    0.0000E+00    0.0000E+00
      95-      1
       1          -1.9509E-06 -1.9509E-06 -1.9509E-06  0.0000E+00  0.0000E+00  0.0000E+00    0.0000E+00    0.0000E+00



 e l e m e n t   s t r a i n   c a l c u l a t i o n s   f o r   t i m e  s t e p        1   ( at time  0.00000E+00 )

 element  strain       eps-xx      eps-yy      eps-zz      eps-xy      eps-yz      eps-zx                            yield
 num/ipt   state
      13-      1
      1            0.0000E+00  0.0000E+00  0.0000E+00  0.0000E+00  0.0000E+00  0.0000E+00
      14-      1
      1            0.0000E+00  0.0000E+00  0.0000E+00  0.0000E+00  0.0000E+00  0.0000E+00
      15-      1
      1            0.0000E+00  0.0000E+00  0.0000E+00  0.0000E+00  0.0000E+00  0.0000E+00
      21-      1
      1            0.0000E+00  0.0000E+00  0.0000E+00  0.0000E+00  0.0000E+00  0.0000E+00
      22-      1
      1            0.0000E+00  0.0000E+00  0.0000E+00  0.0000E+00  0.0000E+00  0.0000E+00
      23-      1
      1            0.0000E+00  0.0000E+00  0.0000E+00  0.0000E+00  0.0000E+00  0.0000E+00
      53-      1
      1            0.0000E+00  0.0000E+00  0.0000E+00  0.0000E+00  0.0000E+00  0.0000E+00
      54-      1
      1            0.0000E+00  0.0000E+00  0.0000E+00  0.0000E+00  0.0000E+00  0.0000E+00
      55-      1
      1            0.0000E+00  0.0000E+00  0.0000E+00  0.0000E+00  0.0000E+00  0.0000E+00
      93-      1
      1            0.0000E+00  0.0000E+00  0.0000E+00  0.0000E+00  0.0000E+00  0.0000E+00
      94-      1
      1            0.0000E+00  0.0000E+00  0.0000E+00  0.0000E+00  0.0000E+00  0.0000E+00
      95-      1
      1            0.0000E+00  0.0000E+00  0.0000E+00  0.0000E+00  0.0000E+00  0.0000E+00



 e l e m e n t   s t r e s s   c a l c u l a t i o n s   f o r   t i m e  s t e p       10   ( at time 1.29245E+00 )

 element  materl
     ipt  stress       sig-xx      sig-yy      sig-zz      sig-xy      sig-yz      sig-zx                       yield
           state                                                                                  effsg      function
      13-      1
       1          -2.6308E+07 -2.9067E+07 -2.7455E+08  1.1731E+07 -8.0767E+06 -1.1587E+07    2.4891E+08    1.1619E-04
      14-      1
       1          -2.3025E+07 -2.4897E+07 -2.5502E+08  7.9526E+06 -2.2737E+07 -3.3008E+07    2.4166E+08    3.9854E-05
      15-      1
       1          -2.4111E+07 -2.5597E+07 -2.1720E+08  2.2946E+06 -3.2059E+07 -4.7877E+07    2.1674E+08    0.0000E+00
      21-      1
       1          -3.0266E+07 -2.0293E+07 -2.7362E+08  9.9160E+06 -1.1105E+07 -7.8539E+06    2.5020E+08    1.0992E-04
      22-      1
       1          -2.6924E+07 -2.0629E+07 -2.5638E+08  6.9626E+06 -3.1628E+07 -2.2410E+07    2.4246E+08    3.3572E-05
      23-      1
       1          -2.7720E+07 -2.6889E+07 -2.2069E+08  2.7420E+06 -4.5784E+07 -3.2337E+07    2.1644E+08    0.0000E+00
      53-      1
       1          -1.7425E+07 -3.6635E+07 -2.7558E+08  6.2083E+06 -2.6656E+06 -1.3753E+07    2.5051E+08    9.9551E-05
      54-      1
       1          -1.7128E+07 -3.0837E+07 -2.5235E+08  4.0520E+06 -7.1429E+06 -3.8287E+07    2.3852E+08    4.9351E-05
      55-      1
       1          -1.9331E+07 -2.5815E+07 -2.1528E+08  9.6194E+05 -1.0121E+07 -5.5660E+07    2.1627E+08    0.0000E+00
      93-      1
       1          -3.4170E+07 -1.2999E+07 -2.7381E+08  3.3040E+06 -1.2295E+07 -2.2942E+06    2.5190E+08    8.9746E-05
      94-      1
       1          -3.0990E+07 -1.6313E+07 -2.5765E+08  2.5473E+06 -3.4879E+07 -6.6180E+06    2.4232E+08    2.6295E-05
      95-      1
       1          -3.0528E+07 -2.4877E+07 -2.2449E+08  1.5219E+06 -5.0867E+07 -1.0027E+07    2.1638E+08    0.0000E+00



 e l e m e n t   s t r a i n   c a l c u l a t i o n s   f o r   t i m e  s t e p       10   ( at time  1.29245E+00 )

 element  strain       eps-xx      eps-yy      eps-zz      eps-xy      eps-yz      eps-zx                            yield
 num/ipt   state
      13-      1
      1            1.2224E-03  1.1690E-03 -3.9595E-03  2.4405E-04 -1.7677E-04 -2.4753E-04
      14-      1
      1            1.0534E-03  1.0190E-03 -3.5121E-03  1.5723E-04 -4.5593E-04 -6.5653E-04
      15-      1
      1            8.1523E-04  7.8678E-04 -2.8700E-03  4.3777E-05 -6.1180E-04 -9.1367E-04
      21-      1
      1            1.1034E-03  1.3096E-03 -3.9540E-03  2.0562E-04 -2.4031E-04 -1.6732E-04
      22-      1
      1            9.7457E-04  1.0988E-03 -3.5176E-03  1.3722E-04 -6.3101E-04 -4.4236E-04
      23-      1
      1            7.8642E-04  8.0230E-04 -2.8965E-03  5.2375E-05 -8.7371E-04 -6.1710E-04
      53-      1
      1            1.3825E-03  9.9193E-04 -3.9413E-03  1.2708E-04 -5.3296E-05 -2.8501E-04
      54-      1
      1            1.1702E-03  9.0061E-04 -3.4980E-03  8.0072E-05 -1.4008E-04 -7.6206E-04
      55-      1
      1            8.7538E-04  7.5204E-04 -2.8647E-03  1.8253E-05 -1.9311E-04 -1.0622E-03
      93-      1
      1            9.8273E-04  1.4138E-03 -3.9223E-03  6.6980E-05 -2.5738E-04 -4.7512E-05
      94-      1
      1            8.9316E-04  1.1788E-03 -3.5211E-03  4.9641E-05 -6.8594E-04 -1.2965E-04
      95-      1
      1            7.5479E-04  8.6271E-04 -2.9470E-03  2.9085E-05 -9.7073E-04 -1.9136E-04



 e l e m e n t   s t r e s s   c a l c u l a t i o n s   f o r   t i m e  s t e p      297   ( at time 2.45836E+00 )

 element  materl
     ipt  stress       sig-xx      sig-yy      sig-zz      sig-xy      sig-yz      sig-zx                       yield
           state                                                                                  effsg      function
      13-      1
       1          -6.7844E+07 -6.4471E+07 -2.9333E+08  6.0140E+06 -8.0504E+06 -1.0346E+07    2.2856E+08    1.0387E-02
      14-      1
       1          -2.6344E+07 -2.8258E+07 -2.6998E+08  5.7342E+06 -2.7446E+07 -3.8211E+07    2.5619E+08    6.3658E-03
      15-      1
       1          -1.6772E+07 -2.8342E+07 -2.4445E+08  1.3375E+06 -4.1302E+07 -6.2022E+07    2.5691E+08    3.3416E-03
      21-      1
       1          -4.2567E+07 -4.6604E+07 -2.9365E+08  4.0035E+06 -1.2898E+07 -8.0981E+06    2.5058E+08    9.5763E-03
      22-      1
       1          -2.6068E+07 -2.7415E+07 -2.7489E+08  6.6914E+06 -4.1442E+07 -2.7488E+07    2.6293E+08    6.1222E-03
      23-      1
       1          -3.4867E+07 -3.7565E+07 -2.5856E+08  6.5240E+06 -5.9478E+07 -4.3830E+07    2.5680E+08    3.0372E-03
      53-      1
       1          -4.5693E+07 -5.3776E+07 -2.8488E+08  1.1637E+07 -3.1367E+06 -7.5756E+06    2.3654E+08    8.8596E-03
      54-      1
       1          -1.4687E+07 -2.8240E+07 -2.3964E+08  7.8606E+06 -8.5446E+06 -3.2413E+07    2.2648E+08    7.2253E-03
      55-      1
       1           3.0535E+06 -1.2977E+07 -1.8154E+08  1.5960E+06 -1.2074E+07 -5.3679E+07    2.0115E+08    4.3799E-03
      93-      1
       1          -2.1043E+07 -1.7530E+07 -2.8833E+08  1.6292E+06 -1.5027E+07 -2.9451E+06    2.7038E+08    8.5269E-03
      94-      1
       1          -3.7228E+07 -2.7709E+07 -2.7879E+08  4.3462E+06 -4.3663E+07 -9.5447E+06    2.5844E+08    6.0985E-03
      95-      1
       1          -4.9178E+07 -3.8762E+07 -2.6808E+08  4.3199E+06 -6.6351E+07 -1.6000E+07    2.5365E+08    2.7131E-03



 e l e m e n t   s t r a i n   c a l c u l a t i o n s   f o r   t i m e  s t e p      297   ( at time  2.45836E+00 )

 element  strain       eps-xx      eps-yy      eps-zz      eps-xy      eps-yz      eps-zx                            yield
 num/ipt   state
      13-      1
      1            5.0597E-03  5.2673E-03 -1.2375E-02  5.8890E-04 -9.2753E-04 -9.5932E-04
      14-      1
      1            4.4235E-03  4.3315E-03 -1.0310E-02  4.0072E-04 -1.9319E-03 -2.5183E-03
      15-      1
      1            3.0925E-03  2.5660E-03 -7.0382E-03  6.9598E-05 -1.9238E-03 -2.9341E-03
      21-      1
      1            5.6777E-03  5.2943E-03 -1.2820E-02  4.7430E-04 -1.1308E-03 -7.3957E-04
      22-      1
      1            4.5040E-03  4.4037E-03 -1.0482E-02  4.6465E-04 -2.5161E-03 -1.8044E-03
      23-      1
      1            2.6583E-03  2.4687E-03 -6.7015E-03  2.8626E-04 -2.5123E-03 -1.8946E-03
      53-      1
      1            5.1406E-03  4.4620E-03 -1.1447E-02  1.0148E-03 -2.4521E-04 -8.4742E-04
      54-      1
      1            4.5684E-03  3.7157E-03 -9.6444E-03  5.9796E-04 -4.7075E-04 -2.4285E-03
      55-      1
      1            3.2075E-03  2.4576E-03 -6.5836E-03  1.1472E-04 -4.5376E-04 -3.0191E-03
      93-      1
      1            5.4852E-03  6.0026E-03 -1.3073E-02  1.6839E-04 -1.0717E-03 -2.1616E-04
      94-      1
      1            4.0727E-03  4.7931E-03 -1.0515E-02  2.9156E-04 -2.5430E-03 -6.0817E-04
      95-      1
      1            2.2149E-03  2.6209E-03 -6.5288E-03  1.5444E-04 -2.5504E-03 -6.5546E-04



 e l e m e n t   s t r e s s   c a l c u l a t i o n s   f o r   t i m e  s t e p      303   ( at time 3.38229E+00 )

 element  materl
     ipt  stress       sig-xx      sig-yy      sig-zz      sig-xy      sig-yz      sig-zx                       yield
           state                                                                                  effsg      function
      13-      1
       1          -7.5899E+07 -7.2819E+07 -3.2268E+08  8.4193E+05 -8.2144E+06 -1.0209E+07    2.4938E+08    1.8024E-02
      14-      1
       1          -2.1575E+07 -2.1706E+07 -2.8055E+08  2.7852E+06 -2.7726E+07 -3.8405E+07    2.7164E+08    1.2699E-02
      15-      1
       1          -1.0853E+07 -1.9076E+07 -2.4379E+08  2.4425E+06 -4.2833E+07 -6.4243E+07    2.6517E+08    8.0040E-03
      21-      1
       1          -4.6541E+07 -5.1702E+07 -3.1084E+08 -1.0440E+06 -1.2850E+07 -7.1712E+06    2.6300E+08    1.7183E-02
      22-      1
       1          -1.9644E+07 -2.2387E+07 -2.8121E+08  4.0275E+06 -4.2948E+07 -2.5423E+07    2.7428E+08    1.2451E-02
      23-      1
       1          -3.3431E+07 -3.4640E+07 -2.6094E+08  6.9911E+06 -6.4143E+07 -4.3253E+07    2.6380E+08    7.6389E-03
      53-      1
       1          -5.0957E+07 -5.1975E+07 -3.0771E+08  5.3948E+06 -1.7357E+06 -8.4556E+06    2.5685E+08    1.6369E-02
      54-      1
       1          -8.3697E+06 -1.5669E+07 -2.5223E+08  3.7054E+06 -5.4265E+06 -3.5866E+07    2.4845E+08    1.3781E-02
      55-      1
       1           2.1166E+07  6.0661E+06 -1.8571E+08  8.7799E+04 -1.0027E+07 -6.2790E+07    2.2811E+08    9.2027E-03
      93-      1
       1          -1.5350E+07 -2.1074E+07 -2.9554E+08 -3.0725E+05 -1.3757E+07 -2.5302E+06    2.7843E+08    1.6014E-02
      94-      1
       1          -2.8858E+07 -2.7155E+07 -2.8804E+08  2.9420E+06 -4.5288E+07 -8.8116E+06    2.7209E+08    1.2465E-02
      95-      1
       1          -4.7731E+07 -3.8746E+07 -2.7244E+08  4.1749E+06 -7.2539E+07 -1.5453E+07    2.6296E+08    7.2060E-03



 e l e m e n t   s t r a i n   c a l c u l a t i o n s   f o r   t i m e  s t e p      303   ( at time  3.38229E+00 )

 element  strain       eps-xx      eps-yy      eps-zz      eps-xy      eps-yz      eps-zx                            yield
 num/ipt   state
      13-      1
      1            8.4217E-03  8.7418E-03 -1.9465E-02  5.2057E-04 -1.2895E-03 -1.3783E-03
      14-      1
      1            7.4829E-03  7.4266E-03 -1.6485E-02  4.5206E-04 -2.8832E-03 -3.8206E-03
      15-      1
      1            5.2074E-03  4.5538E-03 -1.1075E-02  1.7424E-04 -3.0449E-03 -4.6197E-03
      21-      1
      1            9.3717E-03  8.7477E-03 -2.0131E-02  3.3315E-04 -1.6673E-03 -1.0117E-03
      22-      1
      1            7.6385E-03  7.4209E-03 -1.6634E-02  5.6075E-04 -3.9836E-03 -2.6165E-03
      23-      1
      1            4.6317E-03  4.4395E-03 -1.0645E-02  4.8743E-04 -4.2326E-03 -2.9757E-03
      53-      1
      1            8.6136E-03  8.0167E-03 -1.8636E-02  1.1128E-03 -2.5037E-04 -1.2285E-03
      54-      1
      1            7.6296E-03  6.6358E-03 -1.5622E-02  6.5096E-04 -5.5574E-04 -3.7374E-03
      55-      1
      1            5.3676E-03  4.2423E-03 -1.0382E-02  9.8437E-05 -6.6611E-04 -4.8100E-03
      93-      1
      1            9.4410E-03  9.5512E-03 -2.0643E-02  1.1968E-04 -1.5874E-03 -3.0532E-04
      94-      1
      1            7.2066E-03  7.8452E-03 -1.6729E-02  3.6930E-04 -4.0828E-03 -8.8760E-04
      95-      1
      1            4.0626E-03  4.6758E-03 -1.0454E-02  2.5893E-04 -4.4539E-03 -1.0277E-03



 e l e m e n t   s t r e s s   c a l c u l a t i o n s   f o r   t i m e  s t e p      309   ( at time 4.84661E+00 )

 element  materl
     ipt  stress       sig-xx      sig-yy      sig-zz      sig-xy      sig-yz      sig-zx                       yield
           state                                                                                  effsg      function
      13-      1
       1          -9.3657E+07 -9.2405E+07 -3.5553E+08  1.0305E+06 -7.8787E+06 -9.2162E+06    2.6334E+08    2.9541E-02
      14-      1
       1          -2.0251E+07 -1.9672E+07 -2.9041E+08  2.9218E+06 -2.6901E+07 -3.6284E+07    2.8158E+08    2.2695E-02
      15-      1
       1          -3.6616E+06 -8.0768E+06 -2.4246E+08  2.9857E+06 -4.3581E+07 -6.3718E+07    2.7184E+08    1.5709E-02
      21-      1
       1          -5.8701E+07 -6.2243E+07 -3.3125E+08 -1.3953E+06 -1.2124E+07 -6.2263E+06    2.7183E+08    2.8915E-02
      22-      1
       1          -1.4139E+07 -1.6786E+07 -2.8666E+08  3.3492E+06 -4.2206E+07 -2.3266E+07    2.8382E+08    2.2541E-02
      23-      1
       1          -2.6660E+07 -2.8565E+07 -2.6183E+08  6.0505E+06 -6.6134E+07 -4.1539E+07    2.7068E+08    1.5263E-02
      53-      1
       1          -6.1387E+07 -6.4930E+07 -3.3375E+08  3.7711E+06 -9.8734E+05 -8.2664E+06    2.7107E+08    2.7637E-02
      54-      1
       1          -3.3712E+06 -1.1274E+07 -2.6276E+08  2.9512E+06 -3.8042E+06 -3.5939E+07    2.6314E+08    2.3946E-02
      55-      1
       1           4.2532E+07  2.8770E+07 -1.8139E+08  3.5670E+05 -9.1107E+06 -6.6474E+07    2.4649E+08    1.7094E-02
      93-      1
       1          -1.8203E+07 -2.4565E+07 -3.0570E+08 -5.1266E+05 -1.2879E+07 -2.0279E+06    2.8526E+08    2.7777E-02
      94-      1
       1          -2.3287E+07 -2.3658E+07 -2.9520E+08  2.8544E+06 -4.5004E+07 -7.7791E+06    2.8306E+08    2.2580E-02
      95-      1
       1          -4.1785E+07 -3.6054E+07 -2.7530E+08  3.4761E+06 -7.5183E+07 -1.4708E+07    2.7119E+08    1.4643E-02



 e l e m e n t   s t r a i n   c a l c u l a t i o n s   f o r   t i m e  s t e p      309   ( at time  4.84661E+00 )

 element  strain       eps-xx      eps-yy      eps-zz      eps-xy      eps-yz      eps-zx                            yield
 num/ipt   state
      13-      1
      1            1.3579E-02  1.3918E-02 -3.0213E-02  5.7773E-04 -1.7542E-03 -1.8973E-03
      14-      1
      1            1.2273E-02  1.2261E-02 -2.6205E-02  6.2914E-04 -4.2437E-03 -5.6206E-03
      15-      1
      1            8.6340E-03  7.8715E-03 -1.7756E-02  3.4210E-04 -4.8092E-03 -7.1752E-03
      21-      1
      1            1.4923E-02  1.4098E-02 -3.1327E-02  2.3854E-04 -2.3922E-03 -1.3544E-03
      22-      1
      1            1.2592E-02  1.2246E-02 -2.6453E-02  7.4316E-04 -6.1369E-03 -3.7484E-03
      23-      1
      1            7.9626E-03  7.6875E-03 -1.7196E-02  7.4445E-04 -6.9236E-03 -4.5991E-03
      53-      1
      1            1.4023E-02  1.3145E-02 -2.9494E-02  1.2980E-03 -2.2894E-04 -1.7295E-03
      54-      1
      1            1.2485E-02  1.1051E-02 -2.4965E-02  7.9582E-04 -6.5205E-04 -5.5921E-03
      55-      1
      1            8.9122E-03  7.2234E-03 -1.6710E-02  1.3367E-04 -1.0025E-03 -7.5973E-03
      93-      1
      1            1.5434E-02  1.5139E-02 -3.2404E-02  8.5214E-05 -2.3455E-03 -4.0863E-04
      94-      1
      1            1.2131E-02  1.2729E-02 -2.6599E-02  5.2688E-04 -6.3820E-03 -1.2556E-03
      95-      1
      1            7.1986E-03  8.0121E-03 -1.6928E-02  3.9274E-04 -7.4373E-03 -1.5871E-03



 e l e m e n t   s t r e s s   c a l c u l a t i o n s   f o r   t i m e  s t e p      315   ( at time 7.16740E+00 )

 element  materl
     ipt  stress       sig-xx      sig-yy      sig-zz      sig-xy      sig-yz      sig-zx                       yield
           state                                                                                  effsg      function
      13-      1
       1          -1.0874E+08 -1.0873E+08 -3.8550E+08  2.9196E+06 -6.7488E+06 -8.0591E+06    2.7741E+08    4.7085E-02
      14-      1
       1          -6.9024E+07 -6.9448E+07 -3.1570E+08  5.0712E+06 -1.9667E+07 -3.1933E+07    2.5503E+08    3.6617E-02
      15-      1
       1           1.3738E+07  1.1539E+07 -2.3450E+08  3.5108E+06 -4.3961E+07 -6.2659E+07    2.8052E+08    2.8152E-02
      21-      1
       1          -7.8198E+07 -7.9552E+07 -3.5958E+08  9.5670E+04 -1.0705E+07 -5.6343E+06    2.8149E+08    4.7089E-02
      22-      1
       1          -6.4859E+06 -8.3205E+06 -2.9019E+08  4.7626E+06 -4.0800E+07 -2.1509E+07    2.9397E+08    3.8517E-02
      23-      1
       1          -1.5965E+07 -1.9434E+07 -2.6251E+08  4.4634E+06 -6.6348E+07 -3.9982E+07    2.7929E+08    2.7647E-02
      53-      1
       1          -6.9434E+07 -7.6864E+07 -3.5825E+08  2.9970E+06 -2.4464E+05 -6.7346E+06    2.8546E+08    4.4637E-02
      54-      1
       1          -4.2097E+07 -5.2276E+07 -2.8508E+08  3.4130E+06  5.8326E+06 -3.0732E+07    2.4422E+08    3.7865E-02
      55-      1
       1           1.4426E+07  1.1884E+06 -1.9546E+08 -1.2786E+05 -1.2428E+06 -6.1947E+07    2.3014E+08    2.8224E-02
      93-      1
       1          -2.9025E+07 -3.2994E+07 -3.2320E+08 -1.1612E+05 -1.1712E+07 -1.4589E+06    2.9293E+08    4.6199E-02
      94-      1
       1          -2.1946E+07 -2.1741E+07 -3.0575E+08  3.1333E+06 -4.3285E+07 -6.6047E+06    2.9391E+08    3.8618E-02
      95-      1
       1          -3.2860E+07 -3.0568E+07 -2.7786E+08  2.6538E+06 -7.6329E+07 -1.3721E+07    2.8045E+08    2.6835E-02



 e l e m e n t   s t r a i n   c a l c u l a t i o n s   f o r   t i m e  s t e p      315   ( at time  7.16740E+00 )

 element  strain       eps-xx      eps-yy      eps-zz      eps-xy      eps-yz      eps-zx                            yield
 num/ipt   state
      13-      1
      1            2.1646E-02  2.1913E-02 -4.6764E-02  8.5351E-04 -2.2575E-03 -2.5327E-03
      14-      1
      1            2.0025E-02  1.9983E-02 -4.1712E-02  1.1685E-03 -6.2642E-03 -8.2637E-03
      15-      1
      1            1.4213E-02  1.3317E-02 -2.8655E-02  6.4537E-04 -7.5280E-03 -1.1042E-02
      21-      1
      1            2.3388E-02  2.2446E-02 -4.8665E-02  2.7078E-04 -3.3024E-03 -1.8023E-03
      22-      1
      1            2.0394E-02  1.9941E-02 -4.2068E-02  1.1954E-03 -9.2668E-03 -5.3198E-03
      23-      1
      1            1.3470E-02  1.2972E-02 -2.7982E-02  1.0581E-03 -1.1052E-02 -7.0231E-03
      53-      1
      1            2.2484E-02  2.0861E-02 -4.6080E-02  1.5258E-03 -1.3711E-04 -2.2797E-03
      54-      1
      1            2.0386E-02  1.8152E-02 -3.9978E-02  1.1650E-03 -7.9778E-04 -8.2037E-03
      55-      1
      1            1.4794E-02  1.2373E-02 -2.7334E-02  2.9803E-04 -1.7286E-03 -1.1930E-02
      93-      1
      1            2.4526E-02  2.3896E-02 -5.0670E-02  8.2434E-05 -3.3781E-03 -5.0512E-04
      94-      1
      1            1.9863E-02  2.0531E-02 -4.2351E-02  8.0471E-04 -9.7133E-03 -1.7081E-03
      95-      1
      1            1.2448E-02  1.3425E-02 -2.7619E-02  5.6533E-04 -1.2125E-02 -2.3955E-03



 e l e m e n t   s t r e s s   c a l c u l a t i o n s   f o r   t i m e  s t e p      324   ( at time 1.08456E+01 )

 element  materl
     ipt  stress       sig-xx      sig-yy      sig-zz      sig-xy      sig-yz      sig-zx                       yield
           state                                                                                  effsg      function
      13-      1
       1          -9.8669E+07 -9.1938E+07 -3.8822E+08  6.8206E+04 -7.7677E+06 -5.1299E+06    2.9342E+08    7.6928E-02
      14-      1
       1          -2.1360E+08 -2.1247E+08 -3.9773E+08  2.1568E+05 -1.0979E+07 -1.6996E+07    1.8800E+08    5.2525E-02
      15-      1
       1          -1.1276E+08 -1.0862E+08 -2.9797E+08 -7.6491E+05 -4.2592E+07 -4.4718E+07    2.1571E+08    4.3209E-02
      21-      1
       1          -1.1342E+08 -1.1658E+08 -4.0273E+08 -1.6620E+06 -6.4054E+06 -5.8009E+06    2.8815E+08    7.5502E-02
      22-      1
       1          -1.4914E+08 -1.4875E+08 -3.7295E+08  3.4081E+05 -2.2475E+07 -1.2433E+07    2.2838E+08    5.7183E-02
      23-      1
       1          -2.1274E+07 -2.2180E+07 -2.8174E+08  2.2153E+06 -5.9078E+07 -3.9541E+07    2.8772E+08    4.8248E-02
      53-      1
       1          -5.2889E+07 -5.8146E+07 -3.5655E+08  4.4491E+06 -3.5958E+06 -6.7503E+06    3.0146E+08    7.4109E-02
      54-      1
       1          -6.3435E+07 -6.8115E+07 -3.1951E+08  2.8142E+06  5.1990E+06 -2.1850E+07    2.5677E+08    6.0423E-02
      55-      1
       1          -1.1604E+08 -1.2400E+08 -2.7464E+08 -1.8784E+06 -1.6049E+06 -4.3943E+07    1.7253E+08    4.1214E-02
      93-      1
       1          -7.6391E+07 -7.6824E+07 -3.7150E+08 -2.1337E+06 -6.3829E+06 -1.4396E+06    2.9513E+08    7.3162E-02
      94-      1
       1          -4.6529E+07 -4.0942E+07 -3.4325E+08  4.3157E+05 -2.9988E+07 -5.3514E+06    3.0417E+08    6.2970E-02
      95-      1
       1          -3.1380E+07 -2.4173E+07 -2.9462E+08  1.2380E+06 -6.7105E+07 -1.2418E+07    2.9193E+08    4.7771E-02



 e l e m e n t   s t r a i n   c a l c u l a t i o n s   f o r   t i m e  s t e p      324   ( at time  1.08456E+01 )

 element  strain       eps-xx      eps-yy      eps-zz      eps-xy      eps-yz      eps-zx                            yield
 num/ipt   state
      13-      1
      1            3.5063E-02  3.6376E-02 -7.5122E-02  7.9804E-04 -2.9724E-03 -3.0950E-03
      14-      1
      1            3.3156E-02  3.3621E-02 -6.6686E-02  1.4225E-03 -8.3321E-03 -1.1957E-02
      15-      1
      1            2.3176E-02  2.2508E-02 -4.6431E-02  7.1508E-04 -1.0965E-02 -1.7072E-02
      21-      1
      1            3.6430E-02  3.4984E-02 -7.5307E-02  2.9617E-07 -3.7219E-03 -2.5026E-03
      22-      1
      1            3.2572E-02  3.2812E-02 -6.7089E-02  1.4240E-03 -1.2421E-02 -7.8194E-03
      23-      1
      1            2.2499E-02  2.2143E-02 -4.6543E-02  1.3852E-03 -1.6482E-02 -1.0805E-02
      53-      1
      1            3.7098E-02  3.4730E-02 -7.4985E-02  2.1637E-03 -5.9484E-04 -3.1440E-03
      54-      1
      1            3.2890E-02  3.0182E-02 -6.4948E-02  1.6171E-03 -1.1056E-03 -1.0830E-02
      55-      1
      1            2.4824E-02  2.1339E-02 -4.5537E-02  3.6646E-04 -2.8815E-03 -1.8186E-02
      93-      1
      1            3.6971E-02  3.6299E-02 -7.6665E-02 -2.4030E-04 -3.9083E-03 -6.3903E-04
      94-      1
      1            3.1234E-02  3.2807E-02 -6.6801E-02  8.3145E-04 -1.2597E-02 -2.2412E-03
      95-      1
      1            2.1409E-02  2.3520E-02 -4.6975E-02  7.0778E-04 -1.8464E-02 -3.5964E-03



 e l e m e n t   s t r e s s   c a l c u l a t i o n s   f o r   t i m e  s t e p      339   ( at time 1.45238E+01 )

 element  materl
     ipt  stress       sig-xx      sig-yy      sig-zz      sig-xy      sig-yz      sig-zx                       yield
           state                                                                                  effsg      function
      13-      1
       1          -1.3478E+08 -1.2680E+08 -4.4006E+08 -8.7167E+06 -2.1116E+06  3.2608E+06    3.0979E+08    1.0866E-01
      14-      1
       1          -2.9768E+08 -3.0506E+08 -4.5486E+08 -2.9198E+06 -1.4454E+05 -1.2094E+07    1.5513E+08    6.6850E-02
      15-      1
       1          -1.0390E+08 -1.0215E+08 -2.9008E+08  1.6361E+06 -4.7178E+07 -4.9722E+07    2.2157E+08    6.1482E-02
      21-      1
       1          -8.7373E+07 -9.9213E+07 -3.9229E+08 -9.4933E+06 -2.5127E+06 -1.0723E+06    2.9966E+08    1.0982E-01
      22-      1
       1          -2.9963E+08 -2.9972E+08 -4.5221E+08 -4.8473E+06 -1.2849E+07 -1.2414E+07    1.5587E+08    7.0508E-02
      23-      1
       1          -8.2710E+05  4.4380E+06 -2.5452E+08  3.9048E+05 -6.3257E+07 -4.2207E+07    2.8822E+08    7.2396E-02
      53-      1
       1          -7.7873E+07 -6.9766E+07 -3.4982E+08 -5.9408E+06  4.2692E+06 -4.7003E+04    2.7638E+08    1.0213E-01
      54-      1
       1          -1.2728E+08 -1.2935E+08 -3.1787E+08  8.4249E+05  9.0864E+06 -1.2843E+07    1.9151E+08    7.9339E-02
      55-      1
       1          -1.8730E+08 -1.9846E+08 -3.1993E+08 -2.8858E+06 -1.2157E+07 -3.4758E+07    1.4258E+08    5.3303E-02
      93-      1
       1          -6.1016E+07 -7.2789E+07 -3.6569E+08 -4.4415E+06 -8.1687E+05 -9.6761E+05    2.9907E+08    1.0847E-01
      94-      1
       1          -1.1145E+08 -1.1540E+08 -3.7878E+08 -2.6391E+06 -3.3340E+07 -8.6114E+06    2.7204E+08    8.7195E-02
      95-      1
       1           3.3883E+06  1.2621E+07 -2.5307E+08  8.5582E+05 -7.2565E+07 -1.3740E+07    2.9084E+08    7.1096E-02



 e l e m e n t   s t r a i n   c a l c u l a t i o n s   f o r   t i m e  s t e p      339   ( at time  1.45238E+01 )

 element  strain       eps-xx      eps-yy      eps-zz      eps-xy      eps-yz      eps-zx                            yield
 num/ipt   state
      13-      1
      1            4.9363E-02  5.1816E-02 -1.0614E-01 -6.3144E-04 -2.8911E-03 -2.2827E-03
      14-      1
      1            4.7970E-02  4.7573E-02 -9.4765E-02  5.9135E-04 -9.8506E-03 -1.4652E-02
      15-      1
      1            3.5092E-02  3.3350E-02 -6.7243E-02  1.7833E-03 -1.5075E-02 -2.5176E-02
      21-      1
      1            5.3211E-02  4.9646E-02 -1.0726E-01 -1.6652E-03 -3.4403E-03 -2.2884E-03
      22-      1
      1            4.7090E-02  4.7344E-02 -9.3525E-02  9.7763E-05 -1.6683E-02 -1.0383E-02
      23-      1
      1            3.2349E-02  3.3072E-02 -6.7180E-02  1.8215E-03 -2.2744E-02 -1.4882E-02
      53-      1
      1            5.2537E-02  5.1469E-02 -1.0699E-01  1.1331E-03  4.7724E-04 -2.4032E-03
      54-      1
      1            4.7488E-02  4.5639E-02 -9.3752E-02  1.9108E-03 -2.2123E-04 -1.3073E-02
      55-      1
      1            3.7535E-02  3.2406E-02 -6.5311E-02  1.0448E-03 -4.2745E-03 -2.8113E-02
      93-      1
      1            5.4156E-02  5.1278E-02 -1.0952E-01 -1.0215E-03 -3.3007E-03 -5.9646E-04
      94-      1
      1            4.5740E-02  4.6862E-02 -9.3397E-02  6.3672E-04 -1.6446E-02 -2.7909E-03
      95-      1
      1            3.0800E-02  3.4729E-02 -6.7173E-02  9.4709E-04 -2.5308E-02 -4.9075E-03



 e l e m e n t   s t r e s s   c a l c u l a t i o n s   f o r   t i m e  s t e p      350   ( at time 1.82020E+01 )

 element  materl
     ipt  stress       sig-xx      sig-yy      sig-zz      sig-xy      sig-yz      sig-zx                       yield
           state                                                                                  effsg      function
      13-      1
       1          -1.6827E+08 -1.5786E+08 -4.8007E+08 -7.2153E+06 -9.0941E+06 -2.5486E+06    3.1780E+08    1.3733E-01
      14-      1
       1          -3.0570E+08 -3.0966E+08 -4.6651E+08 -4.9283E+06  8.4515E+06 -5.2268E+06    1.6003E+08    8.1809E-02
      15-      1
       1          -2.1842E+08 -2.2190E+08 -3.4125E+08  9.2874E+04 -3.5034E+07 -4.1534E+07    1.5340E+08    7.4138E-02
      21-      1
       1          -8.7099E+07 -9.7342E+07 -4.0168E+08 -1.3215E+07 -1.0638E+07 -5.7530E+05    3.1098E+08    1.4089E-01
      22-      1
       1          -3.6734E+08 -3.6250E+08 -5.2507E+08 -3.5289E+06 -3.1855E+06 -8.5534E+06    1.6110E+08    8.4345E-02
      23-      1
       1          -9.1800E+07 -8.7066E+07 -2.8054E+08  4.2379E+06 -6.4730E+07 -3.2136E+07    2.2860E+08    9.0639E-02
      53-      1
       1          -8.3760E+07 -7.0822E+07 -3.2097E+08 -2.3674E+04  4.7772E+06 -1.0578E+07    2.4476E+08    1.2745E-01
      54-      1
       1          -1.6075E+08 -1.6458E+08 -3.5706E+08  6.0309E+04  1.3160E+07 -4.8801E+06    1.9594E+08    9.7045E-02
      55-      1
       1          -1.3751E+08 -1.4892E+08 -2.7858E+08 -2.7470E+06 -5.9903E+06 -2.8601E+07    1.4493E+08    6.5578E-02
      93-      1
       1          -4.2415E+07 -6.3095E+07 -3.6102E+08 -4.3108E+06 -6.0518E+06  1.9349E+06    3.0908E+08    1.4215E-01
      94-      1
       1          -3.2991E+08 -3.2440E+08 -4.8737E+08 -1.6700E+06 -4.0234E+06 -3.3108E+06    1.6057E+08    1.0146E-01
      95-      1
       1          -1.5251E+08 -1.4090E+08 -2.9788E+08  1.7709E+06 -6.6450E+07 -9.4458E+06    1.9099E+08    8.6234E-02



 e l e m e n t   s t r a i n   c a l c u l a t i o n s   f o r   t i m e  s t e p      350   ( at time  1.82020E+01 )

 element  strain       eps-xx      eps-yy      eps-zz      eps-xy      eps-yz      eps-zx                            yield
 num/ipt   state
      13-      1
      1            6.2104E-02  6.5971E-02 -1.3407E-01 -1.5491E-03 -3.1099E-03 -2.0275E-03
      14-      1
      1            6.2341E-02  6.2145E-02 -1.2383E-01 -4.6357E-04 -9.4609E-03 -1.4966E-02
      15-      1
      1            4.8237E-02  4.5303E-02 -8.9960E-02  1.8749E-03 -1.7664E-02 -3.2453E-02
      21-      1
      1            6.8249E-02  6.3190E-02 -1.3651E-01 -3.5649E-03 -4.3744E-03 -1.8828E-03
      22-      1
      1            6.0460E-02  6.2396E-02 -1.2145E-01 -5.6248E-04 -1.9475E-02 -1.1212E-02
      23-      1
      1            4.2860E-02  4.4512E-02 -8.8886E-02  2.7068E-03 -2.8294E-02 -1.7989E-02
      53-      1
      1            6.8256E-02  7.0179E-02 -1.3992E-01  1.4128E-03  1.2618E-03 -3.3148E-03
      54-      1
      1            6.0901E-02  5.9433E-02 -1.2080E-01  1.8993E-03  1.4658E-03 -1.3877E-02
      55-      1
      1            5.1329E-02  4.3305E-02 -8.5949E-02  1.4963E-03 -3.6434E-03 -3.5614E-02
      93-      1
      1            7.1274E-02  6.5041E-02 -1.4100E-01 -1.6715E-03 -3.3990E-03 -1.3041E-05
      94-      1
      1            6.0475E-02  6.2345E-02 -1.2173E-01  7.1128E-04 -1.9573E-02 -2.7891E-03
      95-      1
      1            4.0196E-02  4.7402E-02 -8.8288E-02  1.5152E-03 -3.1876E-02 -5.3743E-03



 e l e m e n t   s t r e s s   c a l c u l a t i o n s   f o r   t i m e  s t e p      365   ( at time 2.18802E+01 )

 element  materl
     ipt  stress       sig-xx      sig-yy      sig-zz      sig-xy      sig-yz      sig-zx                       yield
           state                                                                                  effsg      function
      13-      1
       1          -1.8163E+08 -1.6879E+08 -4.9767E+08 -2.0964E+06 -6.5037E+06  1.0146E+06    3.2287E+08    1.6304E-01
      14-      1
       1          -1.8374E+08 -1.8573E+08 -3.4879E+08  1.0702E+06  1.1087E+07  3.3133E+06    1.6529E+08    9.8837E-02
      15-      1
       1          -1.5543E+08 -1.5536E+08 -2.7974E+08 -8.0744E+06 -3.2670E+07 -4.5480E+07    1.5832E+08    8.6859E-02
      21-      1
       1          -9.9215E+07 -1.0125E+08 -4.1897E+08 -7.7696E+06 -5.7675E+06  1.6072E+06    3.1919E+08    1.6859E-01
      22-      1
       1          -3.3856E+08 -3.2820E+08 -4.9770E+08 -1.6403E+06  1.3082E+07  3.3850E+05    1.6615E+08    1.0019E-01
      23-      1
       1          -1.3865E+08 -1.4424E+08 -2.9682E+08 -5.8969E+06 -5.9016E+07 -2.9442E+07    1.9318E+08    1.0565E-01
      53-      1
       1          -1.2338E+08 -1.2290E+08 -3.3085E+08  3.7940E+06  3.4993E+06 -1.0830E+07    2.0874E+08    1.4672E-01
      54-      1
       1          -2.3128E+08 -2.3902E+08 -3.9430E+08 -1.8228E+06  9.7185E+06  1.6445E+06    1.6023E+08    1.1079E-01
      55-      1
       1          -5.7106E+07 -5.5006E+07 -1.9747E+08 -1.1753E+07 -1.8404E+06 -3.0462E+07    1.5234E+08    7.7702E-02
      93-      1
       1          -5.8380E+07 -6.9898E+07 -3.8626E+08 -1.2082E+06 -3.8182E+06  6.3642E+05    3.2235E+08    1.7159E-01
      94-      1
       1          -3.5200E+08 -3.4092E+08 -5.0873E+08 -3.1761E+06  1.9677E+07  7.2956E+05    1.6618E+08    1.1747E-01
      95-      1
       1          -1.5970E+08 -1.6419E+08 -3.1526E+08 -8.7491E+05 -6.6723E+07 -8.2331E+06    1.9257E+08    1.0119E-01



 e l e m e n t   s t r a i n   c a l c u l a t i o n s   f o r   t i m e  s t e p      365   ( at time  2.18802E+01 )

 element  strain       eps-xx      eps-yy      eps-zz      eps-xy      eps-yz      eps-zx                            yield
 num/ipt   state
      13-      1
      1            7.3456E-02  7.8835E-02 -1.5891E-01 -1.7024E-03 -2.7655E-03 -1.6617E-03
      14-      1
      1            7.8103E-02  7.8381E-02 -1.5582E-01 -5.7603E-04 -8.6938E-03 -1.3351E-02
      15-      1
      1            6.3319E-02  5.9671E-02 -1.1204E-01  1.7768E-03 -2.0623E-02 -3.9714E-02
      21-      1
      1            8.1168E-02  7.5901E-02 -1.6280E-01 -4.3875E-03 -4.7082E-03 -1.3133E-03
      22-      1
      1            7.4359E-02  7.8554E-02 -1.5169E-01 -5.6617E-04 -1.9420E-02 -1.0187E-02
      23-      1
      1            5.4324E-02  5.6847E-02 -1.1027E-01  2.0202E-03 -3.2280E-02 -2.1699E-02
      53-      1
      1            8.5046E-02  8.6176E-02 -1.7111E-01  1.9243E-03  1.9748E-03 -4.8153E-03
      54-      1
      1            7.5210E-02  7.1991E-02 -1.4737E-01  1.6966E-03  2.9334E-03 -1.4059E-02
      55-      1
      1            6.4137E-02  5.5729E-02 -1.0723E-01  1.0077E-04 -2.6324E-03 -4.0541E-02
      93-      1
      1            8.5689E-02  7.8082E-02 -1.6926E-01 -1.7716E-03 -3.5370E-03  1.7702E-04
      94-      1
      1            7.4442E-02  7.7908E-02 -1.5137E-01  6.9980E-04 -1.9597E-02 -2.0766E-03
      95-      1
      1            5.0991E-02  5.9331E-02 -1.0930E-01  1.2127E-03 -3.7101E-02 -5.5136E-03



 e l e m e n t   s t r e s s   c a l c u l a t i o n s   f o r   t i m e  s t e p      378   ( at time 2.55585E+01 )

 element  materl
     ipt  stress       sig-xx      sig-yy      sig-zz      sig-xy      sig-yz      sig-zx                       yield
           state                                                                                  effsg      function
      13-      1
       1          -5.0442E+07 -3.8044E+07 -3.7483E+08 -1.7455E+07 -1.0394E+07 -3.7844E+06    3.3269E+08    1.9375E-01
      14-      1
       1          -1.2043E+08 -1.1557E+08 -2.8475E+08  7.3298E+06  1.6522E+07  3.3588E+06    1.6981E+08    1.1711E-01
      15-      1
       1           8.4183E+05 -8.8274E+06 -1.2564E+08 -5.4033E+06 -3.5578E+07 -5.2259E+07    1.6415E+08    1.0050E-01
      21-      1
       1          -9.9319E+07 -9.7641E+07 -4.1439E+08 -7.2718E+06 -9.0052E+06  2.9120E+06    3.1659E+08    1.9673E-01
      22-      1
       1          -2.4439E+08 -2.3931E+08 -4.1019E+08  5.2469E+06  1.3757E+07  3.4578E+06    1.7042E+08    1.1817E-01
      23-      1
       1          -1.3425E+08 -1.2816E+08 -2.8556E+08 -9.7608E+06 -5.6893E+07 -3.3378E+07    1.9285E+08    1.2289E-01
      53-      1
       1          -7.0662E+07 -6.7070E+07 -2.8108E+08  2.9407E+06  1.5932E+06 -1.2866E+07    2.1348E+08    1.6936E-01
      54-      1
       1          -2.0747E+08 -2.0887E+08 -3.7194E+08  3.2370E+06  1.0620E+07  2.1601E+06    1.6494E+08    1.2740E-01
      55-      1
       1          -5.6553E+07 -5.3410E+07 -1.5934E+08 -7.9631E+06  9.4922E+06 -2.5960E+07    1.1568E+08    8.7476E-02
      93-      1
       1          -6.5035E+07 -8.1237E+07 -3.8709E+08 -1.6446E+06 -4.0472E+06 -1.0541E+06    3.1437E+08    2.0023E-01
      94-      1
       1          -3.2224E+08 -3.0563E+08 -4.7555E+08 -4.3153E+06  2.8512E+07  2.6449E+06    1.6982E+08    1.3675E-01
      95-      1
       1          -1.7322E+08 -1.8398E+08 -2.8558E+08 -1.1846E+06 -7.0376E+07 -7.5464E+06    1.6298E+08    1.1638E-01



 e l e m e n t   s t r a i n   c a l c u l a t i o n s   f o r   t i m e  s t e p      378   ( at time  2.55585E+01 )

 element  strain       eps-xx      eps-yy      eps-zz      eps-xy      eps-yz      eps-zx                            yield
 num/ipt   state
      13-      1
      1            8.7826E-02  9.4835E-02 -1.8806E-01 -4.2955E-03 -2.2183E-03 -2.0530E-03
      14-      1
      1            9.5028E-02  9.6752E-02 -1.9002E-01  4.7601E-04 -6.3645E-03 -1.2507E-02
      15-      1
      1            7.9892E-02  7.4820E-02 -1.3460E-01  3.5790E-03 -2.3767E-02 -4.6873E-02
      21-      1
      1            9.3817E-02  8.8556E-02 -1.8855E-01 -5.2010E-03 -4.3119E-03 -6.8806E-04
      22-      1
      1            9.0477E-02  9.6847E-02 -1.8555E-01  9.3627E-04 -1.8590E-02 -8.3894E-03
      23-      1
      1            6.7002E-02  7.2054E-02 -1.3406E-01  2.0620E-03 -3.5720E-02 -2.6318E-02
      53-      1
      1            1.0412E-01  1.0574E-01 -2.0709E-01  2.3022E-03  2.4146E-03 -6.1874E-03
      54-      1
      1            9.1908E-02  8.8489E-02 -1.7926E-01  2.8239E-03  4.6145E-03 -1.4022E-02
      55-      1
      1            7.8198E-02  7.0388E-02 -1.2821E-01 -3.6096E-04 -9.4668E-04 -4.4326E-02
      93-      1
      1            9.9418E-02  8.9649E-02 -1.9515E-01 -2.0117E-03 -3.0664E-03  3.1934E-05
      94-      1
      1            8.9119E-02  9.5441E-02 -1.8419E-01  7.2189E-04 -1.9027E-02 -1.2212E-03
      95-      1
      1            6.3973E-02  7.4670E-02 -1.3398E-01  1.4551E-04 -4.2884E-02 -5.1083E-03



 e l e m e n t   s t r e s s   c a l c u l a t i o n s   f o r   t i m e  s t e p      391   ( at time 2.92367E+01 )

 element  materl
     ipt  stress       sig-xx      sig-yy      sig-zz      sig-xy      sig-yz      sig-zx                       yield
           state                                                                                  effsg      function
      13-      1
       1          -1.0893E+07 -1.7735E+07 -3.0872E+08 -1.0795E+07 -1.2301E+07 -8.0318E+05    2.9583E+08    2.2109E-01
      14-      1
       1          -1.2019E+08 -1.0123E+08 -2.8140E+08  8.4156E+06  6.0867E+06  2.3720E+06    1.7247E+08    1.3366E-01
      15-      1
       1           2.4765E+07  8.8588E+06 -8.5111E+07 -9.4573E+06 -1.9031E+07 -3.4005E+07    1.2410E+08    1.1038E-01
      21-      1
       1          -7.3673E+06 -8.8669E+06 -3.3245E+08 -8.2003E+06 -1.2061E+07  1.1391E+06    3.2532E+08    2.2947E-01
      22-      1
       1          -1.3216E+08 -1.2793E+08 -3.0298E+08  1.2483E+06  5.6461E+06  3.5744E+06    1.7338E+08    1.3628E-01
      23-      1
       1          -1.0922E+08 -1.0074E+08 -2.6650E+08 -1.3848E+07 -5.5788E+07 -3.2120E+07    1.9786E+08    1.3967E-01
      53-      1
       1          -8.8941E+07 -9.8140E+07 -2.2271E+08  4.7589E+05  6.2833E+06 -1.2573E+07    1.3169E+08    1.8255E-01
      54-      1
       1          -2.1015E+08 -2.0920E+08 -3.7874E+08  1.2377E+06  6.8721E+06 -7.6938E+06    1.7002E+08    1.4287E-01
      55-      1
       1           1.6081E+07  1.4453E+07 -9.5223E+07 -1.0763E+07  9.4855E+06 -2.2465E+07    1.1976E+08    9.7428E-02
      93-      1
       1          -8.5569E+06 -1.3818E+07 -3.3016E+08 -2.2107E+05 -7.1600E+06 -1.9258E+06    3.1927E+08    2.3178E-01
      94-      1
       1          -2.1739E+08 -2.0039E+08 -3.7755E+08 -3.9467E+06  2.0453E+07  1.4710E+06    1.7312E+08    1.5708E-01
      95-      1
       1          -1.4093E+08 -1.4942E+08 -2.5884E+08 -7.0962E+05 -6.8762E+07 -1.2001E+07    1.6611E+08    1.3163E-01



 e l e m e n t   s t r a i n   c a l c u l a t i o n s   f o r   t i m e  s t e p      391   ( at time  2.92367E+01 )

 element  strain       eps-xx      eps-yy      eps-zz      eps-xy      eps-yz      eps-zx                            yield
 num/ipt   state
      13-      1
      1            1.0357E-01  1.0903E-01 -2.1773E-01 -5.8289E-03 -2.3890E-03 -1.6998E-03
      14-      1
      1            1.0939E-01  1.1459E-01 -2.2260E-01  1.9537E-03 -6.4191E-03 -1.0771E-02
      15-      1
      1            9.5720E-02  8.8519E-02 -1.5805E-01  3.6567E-03 -2.7105E-02 -5.1839E-02
      21-      1
      1            1.0929E-01  1.0350E-01 -2.1836E-01 -6.3604E-03 -5.4779E-03 -9.7002E-04
      22-      1
      1            1.0813E-01  1.1589E-01 -2.2021E-01  1.2229E-03 -1.9534E-02 -6.8305E-03
      23-      1
      1            8.0465E-02  8.6477E-02 -1.5776E-01  1.1434E-03 -3.8794E-02 -2.8921E-02
      53-      1
      1            1.2307E-01  1.2337E-01 -2.4020E-01  2.6667E-03  3.1516E-03 -6.8383E-03
      54-      1
      1            1.0811E-01  1.0425E-01 -2.1017E-01  3.5845E-03  6.2037E-03 -1.5666E-02
      55-      1
      1            9.3152E-02  8.4004E-02 -1.5083E-01 -2.2084E-03  8.5645E-04 -4.8359E-02
      93-      1
      1            1.1401E-01  1.0359E-01 -2.2339E-01 -2.0118E-03 -3.0301E-03 -4.4980E-04
      94-      1
      1            1.0548E-01  1.1537E-01 -2.1996E-01  8.2436E-04 -1.8533E-02 -9.0006E-04
      95-      1
      1            7.7944E-02  9.1493E-02 -1.5990E-01 -5.5801E-04 -4.7908E-02 -5.5765E-03



 e l e m e n t   s t r e s s   c a l c u l a t i o n s   f o r   t i m e  s t e p      404   ( at time 3.29149E+01 )

 element  materl
     ipt  stress       sig-xx      sig-yy      sig-zz      sig-xy      sig-yz      sig-zx                       yield
           state                                                                                  effsg      function
      13-      1
       1          -1.4956E+07 -1.7227E+07 -2.7311E+08 -2.6495E+06 -7.8816E+06  6.1070E+06    2.5764E+08    2.4604E-01
      14-      1
       1           2.3431E+07  4.4260E+07 -1.3853E+08  1.1038E+07 -7.1754E+06 -1.0620E+07    1.7577E+08    1.5168E-01
      15-      1
       1           5.3198E+07  3.6495E+07 -6.0588E+07 -1.2285E+07 -1.1067E+07 -2.9820E+07    1.2171E+08    1.1980E-01
      21-      1
       1           1.3263E+08  1.2712E+08 -1.9768E+08 -1.5517E+07 -3.3720E+06  4.8317E+06    3.2886E+08    2.6082E-01
      22-      1
       1           2.3493E+07  2.6178E+07 -1.5232E+08  2.3243E+06 -1.0199E+06 -1.3874E+06    1.7724E+08    1.5493E-01
      23-      1
       1          -3.5971E+07 -2.1381E+07 -2.0000E+08 -1.0638E+07 -5.7711E+07 -3.8318E+07    2.1035E+08    1.5741E-01
      53-      1
       1          -3.7818E+07 -5.0375E+07 -1.7725E+08  9.4500E+05  2.5882E+06 -1.0644E+07    1.3495E+08    1.9574E-01
      54-      1
       1          -1.5076E+08 -1.6081E+08 -3.2759E+08  6.0520E+06 -1.4398E+06 -1.9694E+07    1.7571E+08    1.5875E-01
      55-      1
       1           1.6043E+07  1.1682E+07 -9.8226E+07 -8.8278E+06  7.2311E+06 -2.4772E+07    1.2169E+08    1.0709E-01
      93-      1
       1          -3.2501E+07 -5.2901E+07 -3.6855E+08 -1.8051E+06 -5.6959E+06 -5.8055E+06    3.2665E+08    2.6099E-01
      94-      1
       1          -1.3934E+08 -1.1868E+08 -3.0361E+08  7.1729E+05  1.6104E+07  7.2705E+06    1.7817E+08    1.7707E-01
      95-      1
       1          -4.3951E+07 -4.0490E+07 -1.5739E+08  2.5325E+06 -7.0534E+07 -1.1575E+07    1.6917E+08    1.4818E-01



 e l e m e n t   s t r a i n   c a l c u l a t i o n s   f o r   t i m e  s t e p      404   ( at time  3.29149E+01 )

 element  strain       eps-xx      eps-yy      eps-zz      eps-xy      eps-yz      eps-zx                            yield
 num/ipt   state
      13-      1
      1            1.1989E-01  1.2471E-01 -2.4852E-01 -6.9508E-03 -2.1717E-03 -1.2476E-03
      14-      1
      1            1.2634E-01  1.3620E-01 -2.5788E-01  4.9961E-03 -6.2259E-03 -1.0727E-02
      15-      1
      1            1.1097E-01  1.0246E-01 -1.8042E-01  3.3907E-03 -2.9729E-02 -5.5965E-02
      21-      1
      1            1.2444E-01  1.1779E-01 -2.4641E-01 -8.5101E-03 -4.4275E-03 -1.1252E-03
      22-      1
      1            1.2745E-01  1.3702E-01 -2.5620E-01  1.6793E-03 -1.8265E-02 -7.3287E-03
      23-      1
      1            9.4812E-02  1.0312E-01 -1.8298E-01  9.2613E-04 -4.2134E-02 -3.3077E-02
      53-      1
      1            1.4240E-01  1.4111E-01 -2.7488E-01  4.0287E-03  2.6436E-03 -7.4854E-03
      54-      1
      1            1.2704E-01  1.1906E-01 -2.4241E-01  5.5730E-03  5.9082E-03 -1.8028E-02
      55-      1
      1            1.0771E-01  9.5939E-02 -1.7343E-01 -3.2631E-03  1.5542E-03 -5.2064E-02
      93-      1
      1            1.2835E-01  1.1504E-01 -2.5017E-01 -2.2135E-03 -2.0458E-03 -9.0017E-04
      94-      1
      1            1.2059E-01  1.3446E-01 -2.5564E-01  1.8763E-03 -1.8478E-02  1.4722E-04
      95-      1
      1            9.1669E-02  1.1182E-01 -1.8545E-01  8.8631E-04 -5.5387E-02 -6.2886E-03



 e l e m e n t   s t r e s s   c a l c u l a t i o n s   f o r   t i m e  s t e p      416   ( at time 3.65931E+01 )

 element  materl
     ipt  stress       sig-xx      sig-yy      sig-zz      sig-xy      sig-yz      sig-zx                       yield
           state                                                                                  effsg      function
      13-      1
       1          -1.2330E+07 -7.0538E+06 -2.7677E+08 -6.0641E+06 -6.4061E+06  1.0939E+06    2.6756E+08    2.7057E-01
      14-      1
       1           1.8700E+07  2.3402E+07 -1.1089E+08  3.8204E+06 -3.6923E+06 -1.4170E+07    1.3458E+08    1.6395E-01
      15-      1
       1           2.4179E+07  1.0778E+07 -9.8103E+07 -7.3608E+06 -7.3081E+06 -2.1628E+07    1.2337E+08    1.2928E-01
      21-      1
       1          -1.4433E+07 -1.5103E+07 -2.7454E+08 -1.0956E+07 -1.3620E+07  1.6909E+06    2.6155E+08    2.8365E-01
      22-      1
       1           1.0743E+08  1.0562E+08 -7.3483E+07 -2.0599E+06  1.2949E+06 -7.3228E+06    1.8051E+08    1.7222E-01
      23-      1
       1          -3.7838E+07 -3.1879E+07 -1.8586E+08 -6.4425E+06 -4.0400E+07 -2.3968E+07    1.7196E+08    1.7062E-01
      53-      1
       1          -8.8117E+06 -1.4453E+07 -1.4717E+08  5.2754E+05  1.2450E+06 -1.3030E+07    1.3751E+08    2.0812E-01
      54-      1
       1          -1.4763E+08 -1.4575E+08 -3.2299E+08 -2.7786E+05 -1.3431E+06 -1.8277E+07    1.7914E+08    1.7368E-01
      55-      1
       1           4.6646E+07  3.7282E+07 -8.0508E+07 -2.8365E+06  5.0308E+06 -1.8667E+07    1.2732E+08    1.1772E-01
      93-      1
       1          -7.9825E+07 -9.7570E+07 -3.9356E+08  1.7269E+05  6.8984E+06  7.6039E+05    3.0549E+08    2.8843E-01
      94-      1
       1          -1.4609E+08 -1.3154E+08 -3.1933E+08 -1.0793E+06  1.0011E+07  4.5468E+06    1.8196E+08    1.9528E-01
      95-      1
       1           2.4257E+06  4.9358E+06 -1.4378E+08  1.7552E+05 -4.8448E+07 -7.7971E+06    1.7022E+08    1.6142E-01



 e l e m e n t   s t r a i n   c a l c u l a t i o n s   f o r   t i m e  s t e p      416   ( at time  3.65931E+01 )

 element  strain       eps-xx      eps-yy      eps-zz      eps-xy      eps-yz      eps-zx                            yield
 num/ipt   state
      13-      1
      1            1.3484E-01  1.4117E-01 -2.8036E-01 -8.5524E-03 -1.9618E-03 -1.4661E-03
      14-      1
      1            1.4124E-01  1.5466E-01 -2.9095E-01  5.5153E-03 -6.2867E-03 -1.1042E-02
      15-      1
      1            1.2634E-01  1.1564E-01 -2.0432E-01  4.0509E-03 -3.1836E-02 -5.8746E-02
      21-      1
      1            1.3866E-01  1.3253E-01 -2.7633E-01 -1.0216E-02 -3.4274E-03 -1.1487E-03
      22-      1
      1            1.4468E-01  1.5472E-01 -2.9001E-01  8.6332E-04 -1.6250E-02 -7.8424E-03
      23-      1
      1            1.0961E-01  1.1996E-01 -2.0968E-01  1.1011E-03 -4.4422E-02 -3.5233E-02
      53-      1
      1            1.5938E-01  1.5849E-01 -3.0826E-01  4.9253E-03  1.9284E-03 -8.2381E-03
      54-      1
      1            1.4217E-01  1.3444E-01 -2.7350E-01  5.6142E-03  5.1242E-03 -1.9570E-02
      55-      1
      1            1.2277E-01  1.0949E-01 -1.9940E-01 -3.8170E-03  1.8982E-03 -5.6123E-02
      93-      1
      1            1.4454E-01  1.2862E-01 -2.8044E-01 -2.6533E-03 -1.6851E-03 -5.1116E-04
      94-      1
      1            1.3637E-01  1.5282E-01 -2.8974E-01  2.1775E-03 -1.9878E-02  1.8076E-03
      95-      1
      1            1.0484E-01  1.2926E-01 -2.1106E-01  1.6838E-03 -6.0242E-02 -5.9940E-03



 e l e m e n t   s t r e s s   c a l c u l a t i o n s   f o r   t i m e  s t e p      431   ( at time 4.02713E+01 )

 element  materl
     ipt  stress       sig-xx      sig-yy      sig-zz      sig-xy      sig-yz      sig-zx                       yield
           state                                                                                  effsg      function
      13-      1
       1           3.6033E+07  3.9726E+07 -2.3668E+08 -9.2334E+06 -5.5168E+06  9.3635E+05    2.7522E+08    2.9711E-01
      14-      1
       1           4.7233E+07  5.0379E+07 -8.1016E+07  3.6416E+06 -1.2434E+07 -1.9791E+07    1.3616E+08    1.7580E-01
      15-      1
       1          -2.7993E+05 -9.8271E+06 -1.2214E+08 -7.0791E+06 -8.3943E+06 -2.4676E+07    1.2635E+08    1.3794E-01
      21-      1
       1          -1.6422E+07 -9.1524E+06 -2.7924E+08 -1.0337E+07 -9.7429E+06  2.4725E+06    2.6770E+08    3.0486E-01
      22-      1
       1           4.1879E+07  4.3338E+07 -4.9545E+07 -3.6322E+06  3.1016E+06 -3.4354E+05    9.2535E+07    1.8075E-01
      23-      1
       1          -3.3194E+07 -3.0711E+07 -1.9131E+08 -1.2249E+07 -2.8215E+07 -2.4001E+07    1.7310E+08    1.8274E-01
      53-      1
       1          -1.2704E+07 -1.8130E+07 -1.5320E+08  1.0406E+06 -1.3342E+05 -1.2675E+07    1.3961E+08    2.2019E-01
      54-      1
       1          -1.4708E+08 -1.3465E+08 -3.1767E+08 -2.8313E+06 -3.9197E+06 -2.3251E+07    1.8185E+08    1.8775E-01
      55-      1
       1           2.9777E+07  2.5995E+07 -9.9475E+07 -1.1802E+05  1.7302E+06 -1.9363E+07    1.3178E+08    1.2862E-01
      93-      1
       1          -6.2265E+07 -7.9752E+07 -3.8516E+08  1.5168E+06  5.5399E+06  3.9213E+05    3.1467E+08    3.1298E-01
      94-      1
       1          -1.1457E+08 -9.7438E+07 -2.9082E+08 -1.9424E+06  6.3915E+06  6.5486E+06    1.8612E+08    2.1261E-01
      95-      1
       1           8.4189E+05  2.4785E+06 -1.5734E+08 -1.9564E+06 -3.8148E+07 -7.0576E+06    1.7266E+08    1.7447E-01



 e l e m e n t   s t r a i n   c a l c u l a t i o n s   f o r   t i m e  s t e p      431   ( at time  4.02713E+01 )

 element  strain       eps-xx      eps-yy      eps-zz      eps-xy      eps-yz      eps-zx                            yield
 num/ipt   state
      13-      1
      1            1.5119E-01  1.5926E-01 -3.1467E-01 -1.0421E-02 -1.0934E-03 -2.5653E-03
      14-      1
      1            1.5607E-01  1.7306E-01 -3.2402E-01  5.8645E-03 -6.9439E-03 -1.3002E-02
      15-      1
      1            1.4022E-01  1.2837E-01 -2.2583E-01  5.1158E-03 -3.4483E-02 -6.0936E-02
      21-      1
      1            1.5187E-01  1.4696E-01 -3.0427E-01 -1.1677E-02 -1.2199E-03 -1.2343E-03
      22-      1
      1            1.6209E-01  1.7343E-01 -3.2550E-01  3.9652E-04 -1.1831E-02 -9.8216E-03
      23-      1
      1            1.2406E-01  1.3712E-01 -2.3522E-01  6.2927E-04 -4.4332E-02 -3.8272E-02
      53-      1
      1            1.7680E-01  1.7459E-01 -3.4212E-01  5.8036E-03  7.4448E-04 -8.4174E-03
      54-      1
      1            1.5547E-01  1.4945E-01 -3.0364E-01  5.0772E-03  3.3764E-03 -1.9994E-02
      55-      1
      1            1.3677E-01  1.2379E-01 -2.2703E-01 -4.1851E-03  2.1561E-03 -5.8922E-02
      93-      1
      1            1.5930E-01  1.4105E-01 -3.0769E-01 -2.6203E-03 -1.7669E-03 -3.9839E-04
      94-      1
      1            1.5106E-01  1.7020E-01 -3.2247E-01  2.2629E-03 -2.1096E-02  3.3452E-03
      95-      1
      1            1.1777E-01  1.4668E-01 -2.3763E-01  2.2416E-03 -6.4471E-02 -5.3083E-03



 e l e m e n t   s t r e s s   c a l c u l a t i o n s   f o r   t i m e  s t e p      439   ( at time 4.39495E+01 )

 element  materl
     ipt  stress       sig-xx      sig-yy      sig-zz      sig-xy      sig-yz      sig-zx                       yield
           state                                                                                  effsg      function
      13-      1
       1           7.7506E+07  8.2238E+07 -2.0047E+08 -1.8821E+06 -6.3047E+05 -5.9190E+06    2.8058E+08    3.1805E-01
      14-      1
       1           3.8754E+07  4.0678E+07 -9.6169E+07  5.0548E+04 -9.9036E+06 -1.5700E+07    1.3965E+08    1.8446E-01
      15-      1
       1          -7.5356E+07 -8.0927E+07 -2.0960E+08 -5.2474E+06 -5.1714E+06 -1.0866E+07    1.3349E+08    1.4571E-01
      21-      1
       1           4.2183E+07  4.8633E+07 -2.3130E+08 -3.0704E+05 -1.0049E+07 -2.6448E+06    2.7735E+08    3.2426E-01
      22-      1
       1           2.2654E+06  5.0348E+06 -4.3020E+07 -7.4590E+05 -7.7933E+05  2.5973E+05    4.6771E+07    1.8403E-01
      23-      1
       1          -9.2829E+07 -8.9861E+07 -2.2064E+08 -3.7272E+06 -1.3324E+07 -9.5841E+06    1.3257E+08    1.9103E-01
      53-      1
       1          -1.1994E+07 -1.8168E+07 -1.5590E+08  8.5783E+05  4.1203E+06 -3.6044E+06    1.4125E+08    2.2951E-01
      54-      1
       1          -1.2114E+08 -1.1548E+08 -2.9839E+08 -1.9077E+05 -3.1283E+06 -2.2520E+07    1.8440E+08    1.9986E-01
      55-      1
       1          -3.9178E+07 -4.3742E+07 -1.7113E+08 -1.0961E+06  2.6764E+06 -1.9103E+07    1.3398E+08    1.3727E-01
      93-      1
       1           4.4224E+06  1.5756E+06 -3.2063E+08  3.1979E+06 -1.3650E+05  6.9504E+06    3.2391E+08    3.3589E-01
      94-      1
       1          -5.7421E+07 -4.7278E+07 -2.3993E+08 -3.6956E+06  7.0136E+05  3.2674E+06    1.8799E+08    2.2647E-01
      95-      1
       1          -3.2798E+06 -2.4745E+06 -1.7694E+08 -1.6564E+06 -1.6716E+07 -5.5214E+06    1.7673E+08    1.8563E-01



 e l e m e n t   s t r a i n   c a l c u l a t i o n s   f o r   t i m e  s t e p      439   ( at time  4.39495E+01 )

 element  strain       eps-xx      eps-yy      eps-zz      eps-xy      eps-yz      eps-zx                            yield
 num/ipt   state
      13-      1
      1            1.6446E-01  1.7365E-01 -3.4249E-01 -1.0299E-02 -1.5717E-03 -3.7077E-03
      14-      1
      1            1.6749E-01  1.8489E-01 -3.4793E-01  5.3941E-03 -8.3358E-03 -1.4825E-02
      15-      1
      1            1.5144E-01  1.3825E-01 -2.4801E-01  5.1740E-03 -3.6482E-02 -6.2364E-02
      21-      1
      1            1.6430E-01  1.6028E-01 -3.3024E-01 -1.1513E-02 -5.8332E-04 -1.6634E-03
      22-      1
      1            1.7384E-01  1.8621E-01 -3.5076E-01  2.5820E-04 -1.1034E-02 -1.0890E-02
      23-      1
      1            1.3533E-01  1.4944E-01 -2.5849E-01  7.1898E-04 -4.5108E-02 -3.9736E-02
      53-      1
      1            1.8982E-01  1.8604E-01 -3.6823E-01  6.2478E-03  1.2207E-04 -9.1583E-03
      54-      1
      1            1.6736E-01  1.6165E-01 -3.2865E-01  5.1112E-03  2.8425E-03 -2.1692E-02
      55-      1
      1            1.4844E-01  1.3442E-01 -2.5032E-01 -4.3075E-03  2.3489E-03 -6.1463E-02
      93-      1
      1            1.7243E-01  1.5405E-01 -3.3317E-01 -2.1325E-03 -2.5262E-03  9.0493E-06
      94-      1
      1            1.6451E-01  1.8493E-01 -3.4884E-01  1.8288E-03 -2.2783E-02  4.4760E-03
      95-      1
      1            1.2950E-01  1.5990E-01 -2.6093E-01  2.5658E-03 -6.6759E-02 -4.6987E-03



 e l e m e n t   s t r e s s   c a l c u l a t i o n s   f o r   t i m e  s t e p      451   ( at time 4.76277E+01 )

 element  materl
     ipt  stress       sig-xx      sig-yy      sig-zz      sig-xy      sig-yz      sig-zx                       yield
           state                                                                                  effsg      function
      13-      1
       1          -1.0735E+07 -6.6053E+06 -2.4645E+08 -5.7812E+06 -3.2175E+06  2.3401E+05    2.3808E+08    3.4164E-01
      14-      1
       1           1.2176E+07  1.6869E+07 -1.2325E+08  1.9409E+05 -9.6292E+06 -1.7784E+07    1.4221E+08    1.9615E-01
      15-      1
       1          -3.6323E+07 -4.4393E+07 -1.7079E+08 -3.1552E+06 -2.6319E+06 -2.0290E+07    1.3545E+08    1.5535E-01
      21-      1
       1          -1.1064E+08 -1.0833E+08 -3.9038E+08 -1.1432E+07 -1.1940E+06 -2.0563E+06    2.8163E+08    3.4767E-01
      22-      1
       1           3.8646E+07  4.1561E+07 -7.2460E+06 -1.0000E+06  8.9195E+05  2.1221E+06    4.7616E+07    1.8916E-01
      23-      1
       1          -1.3194E+06  3.2042E+06 -1.2447E+08 -3.9919E+06 -2.1166E+07 -1.8684E+07    1.3485E+08    2.0189E-01
      53-      1
       1           2.2964E+07  2.3362E+07 -1.1942E+08  7.8731E+05  3.5754E+06 -6.8197E+06    1.4322E+08    2.4270E-01
      54-      1
       1          -6.0731E+07 -5.2080E+07 -2.3893E+08  1.5618E+06 -2.8281E+06 -2.5372E+07    1.8797E+08    2.1773E-01
      55-      1
       1           2.0545E+07  1.8742E+07 -1.0982E+08 -5.8117E+05  4.5004E+06 -2.5332E+07    1.3693E+08    1.4866E-01
      93-      1
       1          -1.4356E+08 -1.5582E+08 -3.8601E+08 -1.3170E+06  6.9612E+06  7.9602E+06    2.3727E+08    3.5835E-01
      94-      1
       1          -3.1650E+07 -1.6755E+07 -2.1390E+08 -6.2862E+06 -7.2152E+06  5.5345E+06    1.9110E+08    2.4623E-01
      95-      1
       1          -7.1916E+06 -1.0787E+07 -1.4222E+08  6.2756E+05 -1.1060E+07 -1.3858E+06    1.3467E+08    1.9507E-01



 e l e m e n t   s t r a i n   c a l c u l a t i o n s   f o r   t i m e  s t e p      451   ( at time  4.76277E+01 )

 element  strain       eps-xx      eps-yy      eps-zz      eps-xy      eps-yz      eps-zx                            yield
 num/ipt   state
      13-      1
      1            1.8149E-01  1.9253E-01 -3.8098E-01 -1.1797E-02 -1.1391E-03 -4.4983E-03
      14-      1
      1            1.8210E-01  2.0222E-01 -3.8047E-01  5.2082E-03 -7.2032E-03 -1.6153E-02
      15-      1
      1            1.6785E-01  1.5270E-01 -2.7428E-01  7.2866E-03 -3.6170E-02 -6.2865E-02
      21-      1
      1            1.7872E-01  1.7545E-01 -3.6330E-01 -1.3562E-02  2.4140E-03 -1.0135E-03
      22-      1
      1            1.9196E-01  2.0601E-01 -3.8715E-01 -9.4603E-04 -6.5583E-03 -9.1779E-03
      23-      1
      1            1.5313E-01  1.7030E-01 -2.8850E-01  2.0846E-03 -4.5391E-02 -3.8713E-02
      53-      1
      1            2.0792E-01  2.0526E-01 -4.0372E-01  7.1757E-03  1.1399E-04 -8.4861E-03
      54-      1
      1            1.8428E-01  1.8052E-01 -3.6654E-01  5.5794E-03  3.3514E-03 -2.1510E-02
      55-      1
      1            1.6525E-01  1.5087E-01 -2.7957E-01 -4.1741E-03  4.5659E-03 -6.3416E-02
      93-      1
      1            1.9130E-01  1.6835E-01 -3.6863E-01 -2.5643E-03 -1.8333E-03  1.9415E-03
      94-      1
      1            1.8218E-01  2.0492E-01 -3.8775E-01  1.7035E-04 -2.2932E-02  8.5995E-03
      95-      1
      1            1.4416E-01  1.7943E-01 -2.8817E-01  3.5829E-03 -6.8675E-02 -2.6327E-03



 e l e m e n t   s t r e s s   c a l c u l a t i o n s   f o r   t i m e  s t e p      464   ( at time 5.13059E+01 )

 element  materl
     ipt  stress       sig-xx      sig-yy      sig-zz      sig-xy      sig-yz      sig-zx                       yield
           state                                                                                  effsg      function
      13-      1
       1          -1.7061E+07 -1.4045E+07 -2.5536E+08 -8.5098E+06 -5.3914E+06  1.9314E+06    2.4048E+08    3.6374E-01
      14-      1
       1           5.3951E+07  6.0405E+07 -7.9980E+07  1.7352E+06 -1.4831E+07 -2.0133E+07    1.4397E+08    2.0900E-01
      15-      1
       1          -3.8100E+07 -4.9284E+07 -1.7377E+08 -6.2068E+06 -9.7795E+05 -2.2597E+07    1.3662E+08    1.6451E-01
      21-      1
       1          -1.2128E+08 -1.1770E+08 -4.0058E+08 -1.4715E+07  2.2071E+06  2.2422E+06    2.8231E+08    3.6803E-01
      22-      1
       1           5.0174E+07  5.0221E+07  2.1384E+06  7.7443E+04  2.7689E+06  1.6758E+06    4.8385E+07    1.9409E-01
      23-      1
       1          -8.7321E+06 -4.0817E+06 -1.3143E+08 -6.5355E+06 -1.9748E+07 -2.0641E+07    1.3499E+08    2.1202E-01
      53-      1
       1           1.7319E+07  1.7292E+07 -1.2600E+08 -1.6270E+05  1.8381E+06 -1.3692E+07    1.4529E+08    2.5593E-01
      54-      1
       1          -2.9797E+07 -1.8697E+07 -2.0528E+08  3.1700E+06 -5.7389E+06 -3.3405E+07    1.9063E+08    2.3398E-01
      55-      1
       1           2.8083E+07  2.5512E+07 -9.9944E+07  9.9922E+04  4.1182E+06 -3.2353E+07    1.3878E+08    1.5974E-01
      93-      1
       1          -1.1499E+08 -1.2284E+08 -3.5866E+08  6.5852E+05  5.6446E+06  5.6643E+06    2.4024E+08    3.7719E-01
      94-      1
       1          -8.2695E+06  1.1660E+07 -1.9026E+08 -7.8710E+06 -3.9456E+06  7.8195E+06    1.9381E+08    2.6445E-01
      95-      1
       1          -2.5362E+07 -3.4954E+07 -1.6226E+08  2.8082E+06 -3.3679E+06 -4.0243E+06    1.3277E+08    2.0423E-01



 e l e m e n t   s t r a i n   c a l c u l a t i o n s   f o r   t i m e  s t e p      464   ( at time  5.13059E+01 )

 element  strain       eps-xx      eps-yy      eps-zz      eps-xy      eps-yz      eps-zx                            yield
 num/ipt   state
      13-      1
      1            1.9775E-01  2.1008E-01 -4.1526E-01 -1.3779E-02  1.2893E-03 -6.1896E-03
      14-      1
      1            1.9837E-01  2.2179E-01 -4.1601E-01  5.5760E-03 -4.0656E-03 -1.8112E-02
      15-      1
      1            1.8416E-01  1.6744E-01 -3.0037E-01  9.2144E-03 -3.5307E-02 -6.2570E-02
      21-      1
      1            1.9265E-01  1.8966E-01 -3.9114E-01 -1.5585E-02  4.3341E-03 -1.2480E-04
      22-      1
      1            2.0989E-01  2.2583E-01 -4.2483E-01 -5.2962E-04 -1.8366E-03 -8.8737E-03
      23-      1
      1            1.6918E-01  1.9019E-01 -3.1695E-01  3.6161E-03 -4.3586E-02 -3.8768E-02
      53-      1
      1            2.2616E-01  2.2419E-01 -4.3992E-01  7.5688E-03  9.4632E-04 -7.2660E-03
      54-      1
      1            1.9942E-01  1.9765E-01 -4.0196E-01  5.9464E-03  3.8258E-03 -2.0369E-02
      55-      1
      1            1.8041E-01  1.6539E-01 -3.0903E-01 -4.0819E-03  6.6770E-03 -6.5718E-02
      93-      1
      1            2.0703E-01  1.8144E-01 -3.9796E-01 -2.1947E-03 -1.7220E-03  2.5991E-03
      94-      1
      1            1.9755E-01  2.2379E-01 -4.2319E-01 -1.4153E-03 -2.3363E-02  1.0920E-02
      95-      1
      1            1.5795E-01  1.9749E-01 -3.1641E-01  4.8125E-03 -6.9671E-02 -1.4612E-03



 e l e m e n t   s t r e s s   c a l c u l a t i o n s   f o r   t i m e  s t e p      472   ( at time 5.49841E+01 )

 element  materl
     ipt  stress       sig-xx      sig-yy      sig-zz      sig-xy      sig-yz      sig-zx                       yield
           state                                                                                  effsg      function
      13-      1
       1           3.6615E+06  8.7794E+06 -2.3773E+08  4.2315E+06 -1.1975E+06 -8.2606E+06    2.4452E+08    3.8007E-01
      14-      1
       1           4.6922E+07  5.0349E+07 -9.3224E+07 -7.5006E+05 -1.0200E+07 -1.4962E+07    1.4532E+08    2.1719E-01
      15-      1
       1          -1.1622E+08 -1.2424E+08 -2.5888E+08 -4.3394E+06  2.4197E+06 -7.3280E+06    1.3967E+08    1.7228E-01
      21-      1
       1          -5.1969E+07 -4.4033E+07 -2.8962E+08  2.3042E+06 -3.4495E+06 -2.4152E+06    2.4186E+08    3.8527E-01
      22-      1
       1           0.0000E+00  0.0000E+00  0.0000E+00  0.0000E+00  0.0000E+00  0.0000E+00    0.0000E+00    1.9409E-01
      23-      1
       1          -6.7783E+07 -6.7602E+07 -2.0246E+08 -3.1304E+06 -1.2425E+07 -1.1433E+07    1.3802E+08    2.2036E-01
      53-      1
       1           1.2369E+07  2.9833E+06 -1.3868E+08  1.3242E+06  4.8154E+06 -4.5213E+06    1.4704E+08    2.6467E-01
      54-      1
       1          -2.7241E+07 -2.5611E+07 -2.1250E+08  4.3991E+06 -6.3115E+06 -2.7308E+07    1.9246E+08    2.4534E-01
      55-      1
       1          -4.5885E+07 -4.9284E+07 -1.7938E+08 -6.8558E+05  4.2661E+06 -2.6507E+07    1.3980E+08    1.6790E-01
      93-      1
       1          -8.1481E+07 -8.0163E+07 -3.2295E+08  3.5611E+05 -9.7174E+06  4.6693E+06    2.4285E+08    3.9568E-01
      94-      1
       1           5.4478E+07  5.6831E+07 -1.7967E+08 -5.2829E+06 -1.0022E+07  3.7806E+06    2.3624E+08    2.8040E-01
      95-      1
       1          -6.7772E+07 -7.0523E+07 -2.0860E+08 -2.9668E+05 -8.3972E+05 -2.4270E+06    1.3955E+08    2.1209E-01



 e l e m e n t   s t r a i n   c a l c u l a t i o n s   f o r   t i m e  s t e p      472   ( at time  5.49841E+01 )

 element  strain       eps-xx      eps-yy      eps-zz      eps-xy      eps-yz      eps-zx                            yield
 num/ipt   state
      13-      1
      1            2.1053E-01  2.2333E-01 -4.4167E-01 -1.2234E-02  2.3036E-04 -6.7022E-03
      14-      1
      1            2.0892E-01  2.3254E-01 -4.3838E-01  5.2446E-03 -5.5163E-03 -1.9218E-02
      15-      1
      1            1.9524E-01  1.7721E-01 -3.2324E-01  9.3067E-03 -3.6925E-02 -6.3733E-02
      21-      1
      1            2.0567E-01  2.0418E-01 -4.1891E-01 -1.4874E-02  4.6808E-03 -6.1430E-05
      22-      1
      1            2.2087E-01  2.3675E-01 -4.4789E-01 -9.6422E-04 -1.3557E-03 -7.5567E-03
      23-      1
      1            1.8034E-01  2.0112E-01 -3.4058E-01  4.0598E-03 -4.4824E-02 -3.7822E-02
      53-      1
      1            2.3886E-01  2.3401E-01 -4.6441E-01  8.1092E-03  6.7365E-04 -7.8443E-03
      54-      1
      1            2.1105E-01  2.0837E-01 -4.2575E-01  6.6081E-03  3.2349E-03 -2.1921E-02
      55-      1
      1            1.9079E-01  1.7486E-01 -3.3183E-01 -4.0417E-03  6.8122E-03 -6.8733E-02
      93-      1
      1            2.2130E-01  1.9664E-01 -4.2665E-01 -1.5095E-03 -2.5026E-03  3.1761E-03
      94-      1
      1            2.1114E-01  2.3736E-01 -4.4892E-01 -2.2075E-03 -2.3661E-02  1.2402E-02
      95-      1
      1            1.6948E-01  2.0943E-01 -3.4057E-01  5.1909E-03 -7.0683E-02 -6.4517E-04



 e l e m e n t   s t r e s s   c a l c u l a t i o n s   f o r   t i m e  s t e p      487   ( at time 5.86624E+01 )

 element  materl
     ipt  stress       sig-xx      sig-yy      sig-zz      sig-xy      sig-yz      sig-zx                       yield
           state                                                                                  effsg      function
      13-      1
       1          -4.1107E+07 -3.4324E+07 -2.8342E+08 -7.4239E+06 -7.4419E+06  1.9715E+06    2.4647E+08    4.0313E-01
      14-      1
       1           3.8244E+07  4.0007E+07 -1.0248E+08 -5.2476E+05 -1.3767E+07 -1.9205E+07    1.4741E+08    2.2940E-01
      15-      1
       1          -6.9318E+07 -8.5553E+07 -2.1266E+08 -6.8237E+06  5.2600E+06 -1.9120E+07    1.4072E+08    1.8216E-01
      21-      1
       1          -1.0296E+08 -1.0308E+08 -3.9022E+08 -1.8459E+07  9.5390E+06  6.3791E+06    2.8966E+08    4.0793E-01
      22-      1
       1           0.0000E+00  0.0000E+00  0.0000E+00  0.0000E+00  0.0000E+00  0.0000E+00    0.0000E+00    1.9409E-01
      23-      1
       1          -3.2858E+07 -2.8153E+07 -1.6442E+08 -5.9975E+06 -1.0394E+07 -1.5679E+07    1.3828E+08    2.3114E-01
      53-      1
       1           2.7134E+07  2.9411E+07 -1.1957E+08  5.4109E+05  7.0466E+05 -1.0337E+07    1.4894E+08    2.7838E-01
      54-      1
       1          -3.6226E+05  1.6235E+07 -1.8122E+08  3.2537E+06 -4.4772E+06 -2.5738E+07    1.9510E+08    2.6245E-01
      55-      1
       1           1.1887E+07  1.5863E+07 -1.1828E+08 -1.8829E+06  4.3994E+06 -3.0606E+07    1.4268E+08    1.7931E-01
      93-      1
       1          -9.1678E+07 -1.1488E+08 -3.4638E+08 -9.7129E+05  2.5247E+06  6.4770E+06    2.4424E+08    4.1783E-01
      94-      1
       1           6.7726E+07  7.5161E+07 -1.2534E+08 -7.1197E+06 -9.3815E+06  7.4337E+06    1.9836E+08    3.0019E-01
      95-      1
       1          -3.6215E+07 -5.1182E+07 -1.8065E+08 -8.3405E+05  1.2479E+07 -3.6496E+06    1.3940E+08    2.2241E-01



 e l e m e n t   s t r a i n   c a l c u l a t i o n s   f o r   t i m e  s t e p      487   ( at time  5.86624E+01 )

 element  strain       eps-xx      eps-yy      eps-zz      eps-xy      eps-yz      eps-zx                            yield
 num/ipt   state
      13-      1
      1            2.2738E-01  2.4170E-01 -4.7850E-01 -1.4493E-02  2.0784E-03 -8.0038E-03
      14-      1
      1            2.2457E-01  2.4994E-01 -4.7273E-01  4.6024E-03 -2.4716E-03 -2.0914E-02
      15-      1
      1            2.1288E-01  1.9156E-01 -3.5174E-01  1.1074E-02 -3.4599E-02 -6.1941E-02
      21-      1
      1            2.2068E-01  2.1890E-01 -4.5050E-01 -1.8213E-02  7.5854E-03  9.3884E-04
      22-      1
      1            2.4002E-01  2.5693E-01 -4.8552E-01 -2.4833E-03  5.6158E-03 -4.6396E-03
      23-      1
      1            1.9823E-01  2.2247E-01 -3.7240E-01  5.3801E-03 -3.9628E-02 -3.3056E-02
      53-      1
      1            2.5719E-01  2.5399E-01 -5.0132E-01  8.5087E-03  1.7172E-03 -6.3966E-03
      54-      1
      1            2.2681E-01  2.2759E-01 -4.6274E-01  7.2516E-03  3.9243E-03 -1.9191E-02
      55-      1
      1            2.0563E-01  1.9187E-01 -3.6362E-01 -4.2142E-03  9.9468E-03 -6.9690E-02
      93-      1
      1            2.4133E-01  2.0893E-01 -4.6128E-01 -1.3431E-03 -1.5333E-03  4.8705E-03
      94-      1
      1            2.3002E-01  2.5635E-01 -4.8824E-01 -4.0540E-03 -2.0909E-02  1.6701E-02
      95-      1
      1            1.8640E-01  2.2908E-01 -3.7382E-01  6.2939E-03 -6.6160E-02  2.8123E-03



 e l e m e n t   s t r e s s   c a l c u l a t i o n s   f o r   t i m e  s t e p      496   ( at time 6.23406E+01 )

 element  materl
     ipt  stress       sig-xx      sig-yy      sig-zz      sig-xy      sig-yz      sig-zx                       yield
           state                                                                                  effsg      function
      13-      1
       1           1.5918E+07  1.4926E+07 -2.7842E+08  4.4587E+06 -7.0439E+05 -8.2208E+06    2.9429E+08    4.2270E-01
      14-      1
       1           6.1911E+07  6.2805E+07 -8.3028E+07 -3.4709E+06 -1.0912E+07 -1.3756E+07    1.4866E+08    2.3804E-01
      15-      1
       1          -1.0706E+08 -1.1677E+08 -2.5293E+08 -5.2185E+06  7.8164E+06 -4.1245E+06    1.4238E+08    1.9059E-01
      21-      1
       1          -9.8259E+06 -7.7260E+06 -2.5592E+08 -2.1950E+06 -2.6881E+05 -8.8484E+05    2.4719E+08    4.2655E-01
      22-      1
       1           0.0000E+00  0.0000E+00  0.0000E+00  0.0000E+00  0.0000E+00  0.0000E+00    0.0000E+00    1.9409E-01
      23-      1
       1          -5.5797E+07 -5.6727E+07 -1.9659E+08 -2.2545E+06 -6.3289E+06 -8.7978E+06    1.4164E+08    2.3965E-01
      53-      1
       1           5.1672E+07  4.3514E+07 -1.0253E+08  9.1313E+05  1.9086E+06 -5.0884E+06    1.5059E+08    2.8774E-01
      54-      1
       1           2.8908E+07  3.3991E+07 -1.6068E+08  3.2947E+06 -5.2880E+06 -2.3359E+07    1.9669E+08    2.7400E-01
      55-      1
       1          -2.4732E+07 -2.6871E+07 -1.5964E+08 -1.8587E+06  4.6204E+06 -2.8477E+07    1.4291E+08    1.8758E-01
      93-      1
       1          -8.1717E+07 -8.2780E+07 -3.2598E+08  1.3499E+05 -1.5717E+07  4.8063E+06    2.4539E+08    4.3591E-01
      94-      1
       1           9.1384E+07  8.8852E+07 -1.5171E+08 -3.4428E+06 -4.7887E+06  3.1822E+06    2.4212E+08    3.1675E-01
      95-      1
       1          -5.8440E+07 -6.1268E+07 -1.9933E+08 -2.3968E+06  1.4362E+07 -3.8214E+06    1.4191E+08    2.3152E-01



 e l e m e n t   s t r a i n   c a l c u l a t i o n s   f o r   t i m e  s t e p      496   ( at time  6.23406E+01 )

 element  strain       eps-xx      eps-yy      eps-zz      eps-xy      eps-yz      eps-zx                            yield
 num/ipt   state
      13-      1
      1            2.4096E-01  2.5502E-01 -5.0542E-01 -1.3547E-02  1.4301E-03 -7.7767E-03
      14-      1
      1            2.3650E-01  2.6165E-01 -4.9687E-01  3.8329E-03 -3.3032E-03 -2.0736E-02
      15-      1
      1            2.2495E-01  2.0261E-01 -3.7615E-01  1.0767E-02 -3.6097E-02 -6.2222E-02
      21-      1
      1            2.3543E-01  2.3419E-01 -4.8014E-01 -1.8372E-02  7.8613E-03  1.0058E-03
      22-      1
      1            2.5196E-01  2.6812E-01 -5.0990E-01 -3.2328E-03  6.1306E-03 -3.5201E-03
      23-      1
      1            2.0977E-01  2.3373E-01 -3.9640E-01  5.8364E-03 -4.0585E-02 -3.1560E-02
      53-      1
      1            2.7066E-01  2.6513E-01 -5.2715E-01  8.9264E-03  1.2097E-03 -7.0796E-03
      54-      1
      1            2.3915E-01  2.3916E-01 -4.8697E-01  7.7834E-03  3.5127E-03 -1.9435E-02
      55-      1
      1            2.1643E-01  2.0185E-01 -3.8771E-01 -4.4992E-03  1.0561E-02 -7.1357E-02
      93-      1
      1            2.5503E-01  2.2333E-01 -4.8951E-01 -6.8272E-04 -1.4640E-03  4.7555E-03
      94-      1
      1            2.4388E-01  2.6973E-01 -5.1502E-01 -4.5759E-03 -1.9903E-02  1.6552E-02
      95-      1
      1            1.9912E-01  2.4172E-01 -4.0069E-01  6.4835E-03 -6.6254E-02  2.9424E-03



 e l e m e n t   s t r e s s   c a l c u l a t i o n s   f o r   t i m e  s t e p      507   ( at time 6.60188E+01 )

 element  materl
     ipt  stress       sig-xx      sig-yy      sig-zz      sig-xy      sig-yz      sig-zx                       yield
           state                                                                                  effsg      function
      13-      1
       1          -2.2997E+07 -2.7677E+07 -3.2155E+08 -1.0078E+07 -3.6004E+05 -2.2067E+06    2.9678E+08    4.4399E-01
      14-      1
       1           7.3109E+07  7.2633E+07 -7.3859E+07 -3.7718E+06 -9.9559E+06 -1.4285E+07    1.4994E+08    2.4845E-01
      15-      1
       1          -6.9407E+07 -7.6704E+07 -2.1399E+08 -6.6142E+06  1.0239E+07 -7.5672E+06    1.4325E+08    2.0073E-01
      21-      1
       1          -2.6785E+07 -3.6986E+07 -3.2627E+08 -1.5793E+07  2.4483E+06  2.7624E+06    2.9585E+08    4.4911E-01
      22-      1
       1           0.0000E+00  0.0000E+00  0.0000E+00  0.0000E+00  0.0000E+00  0.0000E+00    0.0000E+00    1.9409E-01
      23-      1
       1          -9.7949E+07 -9.8729E+07 -2.3987E+08 -4.8344E+06 -4.1004E+06 -1.0813E+07    1.4318E+08    2.4890E-01
      53-      1
       1           7.5762E+07  7.4425E+07 -7.6549E+07  3.6757E+05  1.0604E+05 -6.6952E+06    1.5209E+08    2.9900E-01
      54-      1
       1           2.5213E+07  3.3320E+07 -1.6610E+08  9.7130E+05 -2.8984E+06 -2.0989E+07    1.9892E+08    2.8788E-01
      55-      1
       1          -5.1168E+07 -4.7657E+07 -1.8427E+08 -3.8369E+06  5.6912E+06 -2.8757E+07    1.4429E+08    1.9651E-01
      93-      1
       1          -1.3046E+08 -1.4240E+08 -3.8364E+08 -1.8979E+06 -1.0383E+07  3.1052E+06    2.4816E+08    4.5659E-01
      94-      1
       1           4.1549E+07  3.9558E+07 -1.5282E+08 -3.6612E+06  1.9260E+06  2.8553E+06    1.9358E+08    3.3309E-01
      95-      1
       1          -5.3277E+07 -5.9312E+07 -1.9528E+08 -3.5074E+06  1.5740E+07 -4.8976E+06    1.4212E+08    2.4220E-01



 e l e m e n t   s t r a i n   c a l c u l a t i o n s   f o r   t i m e  s t e p      507   ( at time  6.60188E+01 )

 element  strain       eps-xx      eps-yy      eps-zz      eps-xy      eps-yz      eps-zx                            yield
 num/ipt   state
      13-      1
      1            2.5504E-01  2.6887E-01 -5.3410E-01 -1.4964E-02  2.5451E-03 -7.5096E-03
      14-      1
      1            2.5094E-01  2.7583E-01 -5.2632E-01  3.1296E-03 -1.6760E-03 -1.9490E-02
      15-      1
      1            2.4049E-01  2.1643E-01 -4.0451E-01  1.0556E-02 -3.5435E-02 -5.9788E-02
      21-      1
      1            2.5151E-01  2.4892E-01 -5.1205E-01 -2.0694E-02  7.7538E-03  2.6133E-03
      22-      1
      1            2.6849E-01  2.8423E-01 -5.4204E-01 -3.8564E-03  7.4967E-03  3.5366E-05
      23-      1
      1            2.2429E-01  2.4861E-01 -4.2409E-01  6.3975E-03 -3.8726E-02 -2.6796E-02
      53-      1
      1            2.8565E-01  2.8053E-01 -5.5745E-01  9.1431E-03  1.7234E-03 -6.7032E-03
      54-      1
      1            2.5309E-01  2.5399E-01 -5.1657E-01  8.0232E-03  4.6972E-03 -1.7981E-02
      55-      1
      1            2.2875E-01  2.1433E-01 -4.1423E-01 -5.2122E-03  1.2535E-02 -7.1266E-02
      93-      1
      1            2.7215E-01  2.3710E-01 -5.2256E-01 -6.7603E-04 -9.3162E-04  4.7024E-03
      94-      1
      1            2.6063E-01  2.8535E-01 -5.4724E-01 -5.7941E-03 -1.6740E-02  1.6801E-02
      95-      1
      1            2.1442E-01  2.5798E-01 -4.3236E-01  6.4327E-03 -6.1342E-02  4.1746E-03



 e l e m e n t   s t r e s s   c a l c u l a t i o n s   f o r   t i m e  s t e p      515   ( at time 6.96970E+01 )

 element  materl
     ipt  stress       sig-xx      sig-yy      sig-zz      sig-xy      sig-yz      sig-zx                       yield
           state                                                                                  effsg      function
      13-      1
       1          -2.8423E+07 -3.0798E+07 -3.2893E+08  3.5008E+06  4.0931E+05 -8.3081E+06    2.9973E+08    4.6270E-01
      14-      1
       1           5.0840E+07  5.1609E+07 -9.7235E+07 -3.8536E+06 -8.8278E+06 -1.2491E+07    1.5095E+08    2.5605E-01
      15-      1
       1          -1.3035E+08 -1.3641E+08 -2.7653E+08 -3.9364E+06  9.0978E+06 -5.2217E+06    1.4455E+08    2.0893E-01
      21-      1
       1          -1.7852E+07 -1.7348E+07 -3.1535E+08  3.3659E+06 -1.5946E+06  2.6829E+05    2.9782E+08    4.6822E-01
      22-      1
       1          -3.7481E+07 -3.7481E+07 -3.7481E+07  0.0000E+00  0.0000E+00  0.0000E+00    0.0000E+00    1.9409E-01
      23-      1
       1          -1.3322E+08 -1.3856E+08 -3.2362E+08 -4.5541E+06  4.0145E+06 -5.1271E+06    1.8829E+08    2.5910E-01
      53-      1
       1           3.9207E+07  3.1938E+07 -1.1726E+08  1.1145E+06  1.5586E+06 -4.9709E+06    1.5324E+08    3.0806E-01
      54-      1
       1          -2.9868E+06 -3.7195E+06 -1.8754E+08  1.8511E+05 -2.3953E+06 -1.8818E+07    1.8709E+08    2.9823E-01
      55-      1
       1          -6.3246E+07 -6.3117E+07 -2.3996E+08 -4.5633E+06  5.1784E+06 -2.6776E+07    1.8315E+08    2.0577E-01
      93-      1
       1          -5.6465E+07 -5.5981E+07 -3.0486E+08  9.4204E+04 -1.4803E+07  2.9635E+06    2.5000E+08    4.7439E-01
      94-      1
       1          -1.0355E+07 -1.0944E+07 -1.5598E+08 -2.3361E+06  1.9390E+06  2.1266E+06    1.4547E+08    3.4338E-01
      95-      1
[...]
      54-      1
       1           9.0332E+06  1.0314E+07 -1.7163E+08 -1.1924E+06 -1.9671E+06 -1.9929E+07    1.8461E+08    3.2943E-01
      55-      1
       1          -1.4658E+08 -1.4690E+08 -2.8584E+08 -3.0454E+06  1.3535E+06 -1.3596E+07    1.4120E+08    2.3670E-01
      93-      1
       1           3.2243E+07  2.5731E+07 -2.7154E+08  2.0294E+06 -1.3243E+07 -6.5222E+05    3.0147E+08    5.3918E-01
      94-      1
       1           2.4621E+06 -3.4298E+06 -1.5044E+08 -6.8205E+05 -1.2361E+06  2.4240E+06    1.5012E+08    3.7811E-01
      95-      1
       1          -1.3006E+08 -1.3179E+08 -2.8144E+08 -4.7762E+06  8.4195E+06  4.4067E+05    1.5145E+08    2.8421E-01



 e l e m e n t   s t r a i n   c a l c u l a t i o n s   f o r   t i m e  s t e p      546   ( at time  8.07316E+01 )

 element  strain       eps-xx      eps-yy      eps-zz      eps-xy      eps-yz      eps-zx                            yield
 num/ipt   state
      13-      1
      1            3.0971E-01  3.2105E-01 -6.4294E-01 -1.6922E-02  5.9174E-03 -5.3349E-03
      14-      1
      1            2.9869E-01  3.2266E-01 -6.2459E-01 -4.1183E-04  8.3397E-03 -1.2701E-02
      15-      1
      1            2.9226E-01  2.6373E-01 -5.1452E-01  1.0739E-02 -2.6989E-02 -4.9217E-02
      21-      1
      1            3.0949E-01  3.0477E-01 -6.2742E-01 -2.3892E-02  6.5254E-03  6.6058E-03
      22-      1
      1            3.2510E-01  3.3545E-01 -6.5002E-01 -9.1791E-03  8.9126E-03  8.8475E-03
      23-      1
      1            2.7762E-01  3.0130E-01 -5.3288E-01  5.3821E-03 -3.5909E-02 -9.2485E-03
      53-      1
      1            3.3688E-01  3.3507E-01 -6.7038E-01  9.0554E-03  3.1037E-03 -6.7019E-03
      54-      1
      1            3.0403E-01  3.0720E-01 -6.2151E-01  7.9382E-03  1.0877E-02 -1.3978E-02
      55-      1
      1            2.7361E-01  2.5989E-01 -5.1257E-01 -7.3048E-03  1.9333E-02 -6.9926E-02
      93-      1
      1            3.3615E-01  2.9154E-01 -6.4073E-01 -4.5183E-04  7.7524E-04  4.2082E-03
      94-      1
      1            3.2312E-01  3.4153E-01 -6.6304E-01 -7.8591E-03 -7.8828E-03  1.6246E-02
      95-      1
      1            2.7195E-01  3.1764E-01 -5.6120E-01  5.8102E-03 -4.8730E-02  1.2060E-02



 e l e m e n t   s t r e s s   c a l c u l a t i o n s   f o r   t i m e  s t e p      556   ( at time 8.44098E+01 )

 element  materl
     ipt  stress       sig-xx      sig-yy      sig-zz      sig-xy      sig-yz      sig-zx                       yield
           state                                                                                  effsg      function
      13-      1
       1           6.9274E+07  7.0839E+07 -1.8650E+08 -1.2368E+07 -1.6252E+06 -4.0765E+06    2.5757E+08    5.4342E-01
      14-      1
       1           1.7540E+07  2.2028E+07 -1.3237E+08 -5.8624E+06 -1.1209E+07 -1.3301E+07    1.5548E+08    2.9798E-01
      15-      1
       1          -1.0662E+08 -1.1113E+08 -2.5658E+08 -3.3565E+06  6.3038E+06 -1.1558E+07    1.4962E+08    2.4844E-01
      21-      1
       1           2.2832E+07  9.3408E+06 -2.8514E+08 -1.1918E+07  5.1631E+06  8.6694E+05    3.0229E+08    5.4999E-01
      22-      1
       1          -3.3658E+07 -3.5541E+07 -8.2632E+07 -4.0746E+05  2.6858E+06  2.6913E+05    4.8292E+07    2.0805E-01
      23-      1
       1          -9.8034E+07 -1.0328E+08 -2.9441E+08 -8.1655E+06  1.6954E+07 -7.1134E+05    1.9654E+08    3.1095E-01
      53-      1
       1           2.5468E+07  3.0389E+07 -7.7169E+07 -2.3833E+06 -2.6269E+06 -5.7809E+06    1.0584E+08    3.4790E-01
      54-      1
       1          -5.0479E+07 -4.2783E+07 -1.3940E+08 -1.0865E+06 -1.8183E+06 -1.0761E+07    9.4927E+07    3.3697E-01
      55-      1
       1          -1.2903E+08 -1.2234E+08 -2.6497E+08 -5.0883E+06  2.6263E+06 -1.5623E+07    1.4235E+08    2.4652E-01
      93-      1
       1          -2.0724E+07 -4.9332E+07 -2.9029E+08 -1.7393E+06 -5.4333E+06  4.8964E+05    2.5666E+08    5.5895E-01
      94-      1
       1          -5.5583E+06 -1.1883E+07 -1.0738E+08 -1.5382E+06  3.3061E+06  3.4725E+06    9.9199E+07    3.8583E-01
      95-      1
       1          -1.3222E+08 -1.3370E+08 -2.8435E+08 -5.7070E+06  1.0235E+07  2.1760E+06    1.5279E+08    2.9552E-01



 e l e m e n t   s t r a i n   c a l c u l a t i o n s   f o r   t i m e  s t e p      556   ( at time  8.44098E+01 )

 element  strain       eps-xx      eps-yy      eps-zz      eps-xy      eps-yz      eps-zx                            yield
 num/ipt   state
      13-      1
      1            3.2406E-01  3.3486E-01 -6.7111E-01 -1.9460E-02  7.2101E-03 -5.2577E-03
      14-      1
      1            3.1220E-01  3.3631E-01 -6.5169E-01 -1.8381E-03  1.3292E-02 -9.6144E-03
      15-      1
      1            3.0609E-01  2.7641E-01 -5.4268E-01  1.0451E-02 -2.2707E-02 -4.4208E-02
      21-      1
      1            3.2318E-01  3.1662E-01 -6.5393E-01 -2.6035E-02  7.3210E-03  7.2150E-03
      22-      1
      1            3.4077E-01  3.4872E-01 -6.7858E-01 -1.0295E-02  1.3348E-02  9.9868E-03
      23-      1
      1            2.9313E-01  3.1669E-01 -5.6303E-01  4.6566E-03 -3.0385E-02 -4.5047E-03
      53-      1
      1            3.5033E-01  3.5207E-01 -7.0080E-01  7.4839E-03  4.6191E-03 -5.1065E-03
      54-      1
      1            3.1761E-01  3.2328E-01 -6.5147E-01  6.9014E-03  1.4898E-02 -9.2239E-03
      55-      1
      1            2.8588E-01  2.7393E-01 -5.3995E-01 -7.9879E-03  2.3668E-02 -6.7294E-02
      93-      1
      1            3.5439E-01  3.0291E-01 -6.7113E-01 -1.0586E-03  1.4158E-03  6.0123E-03
      94-      1
      1            3.4071E-01  3.5546E-01 -6.9278E-01 -8.1996E-03 -6.5895E-03  1.9408E-02
      95-      1
      1            2.8802E-01  3.3371E-01 -5.9555E-01  5.4532E-03 -4.4991E-02  1.6867E-02



 e l e m e n t   s t r e s s   c a l c u l a t i o n s   f o r   t i m e  s t e p      568   ( at time 8.80881E+01 )

 element  materl
     ipt  stress       sig-xx      sig-yy      sig-zz      sig-xy      sig-yz      sig-zx                       yield
           state                                                                                  effsg      function
      13-      1
       1          -3.6609E+06 -4.0457E+06 -2.0807E+08 -1.1877E+07 -7.1244E+06 -1.2919E+07    2.0683E+08    5.6092E-01
      14-      1
       1          -1.9292E+07 -1.8680E+07 -2.0956E+08 -8.5316E+06 -1.0019E+07 -2.3758E+07    1.9630E+08    3.1216E-01
      15-      1
       1          -8.5207E+07 -9.1466E+07 -2.3103E+08 -1.6847E+06  9.6002E+05 -2.6091E+07    1.4981E+08    2.5965E-01
      21-      1
       1          -1.2653E+08 -1.3511E+08 -3.8509E+08 -7.5368E+06  5.8272E+06  3.9452E+06    2.5501E+08    5.7016E-01
      22-      1
       1          -1.6565E+07 -2.3756E+07 -1.1736E+08 -4.9607E+05  3.6236E+06 -4.7626E+06    9.7952E+07    2.1585E-01
      23-      1
       1          -1.1849E+08 -1.2374E+08 -3.1699E+08 -8.3974E+06  1.6110E+07 -6.3888E+06    1.9875E+08    3.2602E-01
      53-      1
       1           1.4587E+07  2.3140E+07 -8.6743E+07 -3.0694E+06 -6.0454E+05 -7.4768E+06    1.0679E+08    3.5676E-01
      54-      1
       1          -1.0206E+08 -9.1862E+07 -1.9177E+08 -1.2231E+06 -7.1192E+05 -9.7068E+06    9.6719E+07    3.4559E-01
      55-      1
       1          -1.6438E+08 -1.5814E+08 -2.5019E+08 -3.2954E+06 -6.4115E+05 -2.7622E+07    1.0129E+08    2.5427E-01
      93-      1
       1          -9.0841E+07 -1.0268E+08 -3.0259E+08  1.3273E+05 -7.0461E+06 -8.5549E+05    2.0646E+08    5.8084E-01
      94-      1
       1          -1.6886E+06 -8.9190E+06 -1.0532E+08 -1.5658E+06  2.7857E+06  4.2609E+06    1.0064E+08    3.9562E-01
      95-      1
       1          -7.9517E+07 -9.2822E+07 -2.7622E+08 -7.0483E+06 -1.1097E+07  1.0432E+06    1.9177E+08    3.1262E-01



 e l e m e n t   s t r a i n   c a l c u l a t i o n s   f o r   t i m e  s t e p      568   ( at time  8.80881E+01 )

 element  strain       eps-xx      eps-yy      eps-zz      eps-xy      eps-yz      eps-zx                            yield
 num/ipt   state
      13-      1
      1            3.4134E-01  3.5113E-01 -7.0585E-01 -2.2605E-02  8.9370E-03 -4.8497E-03
      14-      1
      1            3.2657E-01  3.5001E-01 -6.8185E-01 -3.6392E-03  2.1365E-02 -5.3123E-03
      15-      1
      1            3.2071E-01  2.9007E-01 -5.7503E-01  1.1031E-02 -1.3440E-02 -3.7767E-02
      21-      1
      1            3.3847E-01  3.3053E-01 -6.8597E-01 -2.7556E-02  8.0929E-03  9.0461E-03
      22-      1
      1            3.5741E-01  3.6258E-01 -7.0991E-01 -1.2195E-02  2.0948E-02  1.4234E-02
      23-      1
      1            3.0923E-01  3.3322E-01 -5.9813E-01  3.9167E-03 -1.8249E-02  4.8156E-03
      53-      1
      1            3.6390E-01  3.7143E-01 -7.3564E-01  5.2120E-03  4.1946E-03 -3.5433E-03
      54-      1
      1            3.3411E-01  3.4330E-01 -6.8789E-01  5.3268E-03  1.7561E-02 -3.7366E-03
      55-      1
      1            3.0162E-01  2.9158E-01 -5.7383E-01 -9.1719E-03  2.8784E-02 -6.3117E-02
      93-      1
      1            3.7691E-01  3.2011E-01 -7.1249E-01 -1.4767E-03  1.8396E-03  8.8098E-03
      94-      1
      1            3.6235E-01  3.7203E-01 -7.2824E-01 -8.1397E-03 -3.6620E-03  2.6191E-02
      95-      1
      1            3.0737E-01  3.5121E-01 -6.3267E-01  4.8102E-03 -3.5863E-02  2.7217E-02



 e l e m e n t   s t r e s s   c a l c u l a t i o n s   f o r   t i m e  s t e p      575   ( at time 9.17663E+01 )

 element  materl
     ipt  stress       sig-xx      sig-yy      sig-zz      sig-xy      sig-yz      sig-zx                       yield
           state                                                                                  effsg      function
      13-      1
       1          -5.1715E+07 -5.6647E+07 -2.6282E+08  4.0848E+06 -2.9047E+06 -8.0042E+06    2.0932E+08    5.7205E-01
      14-      1
       1          -6.0436E+07 -6.1836E+07 -2.5864E+08 -1.3269E+06 -7.1313E+06 -1.4788E+07    1.9956E+08    3.2271E-01
      15-      1
       1          -2.0185E+08 -2.0512E+08 -3.5354E+08  5.2055E+05  2.8663E+06 -1.6764E+07    1.5295E+08    2.6780E-01
      21-      1
       1          -1.2240E+08 -1.1628E+08 -4.7768E+08  5.8892E+06 -7.8619E+05 -3.7443E+06    3.5858E+08    5.8996E-01
      22-      1
       1          -1.0783E+08 -1.0881E+08 -1.5766E+08  2.3601E+05  1.1428E+06  1.4999E+05    4.9389E+07    2.1863E-01
      23-      1
       1          -2.1236E+08 -2.1776E+08 -4.1549E+08 -2.4035E+06  1.2217E+07 -2.7411E+06    2.0170E+08    3.3687E-01
      53-      1
       1          -8.9473E+07 -9.5964E+07 -1.8620E+08 -8.5126E+04  1.0415E+06 -2.8548E+06    9.3797E+07    3.6236E-01
      54-      1
       1          -2.0458E+08 -2.0857E+08 -3.7972E+08  2.9725E+06 -2.2664E+06 -1.3757E+07    1.7493E+08    3.5535E-01
      55-      1
       1          -1.8520E+08 -1.8969E+08 -3.6404E+08 -2.8672E+06 -4.6131E+06 -2.2940E+07    1.8130E+08    2.6263E-01
      93-      1
       1          -7.3102E+07 -6.2440E+07 -2.7643E+08  2.7544E+06 -8.3707E+06 -1.0234E+06    2.0943E+08    5.9373E-01
      94-      1
       1          -7.5811E+07 -7.6034E+07 -1.7743E+08 -3.0315E+05 -1.3072E+06  2.2117E+06    1.0160E+08    4.0227E-01
      95-      1
       1          -1.9054E+08 -1.9262E+08 -3.8541E+08 -3.1761E+06 -1.2374E+07  2.5621E+06    1.9514E+08    3.2437E-01



 e l e m e n t   s t r a i n   c a l c u l a t i o n s   f o r   t i m e  s t e p      575   ( at time  9.17663E+01 )

 element  strain       eps-xx      eps-yy      eps-zz      eps-xy      eps-yz      eps-zx                            yield
 num/ipt   state
      13-      1
      1            3.5238E-01  3.6144E-01 -7.2936E-01 -2.1429E-02  8.4816E-03 -5.8349E-03
      14-      1
      1            3.3687E-01  3.5984E-01 -7.0347E-01 -3.2511E-03  2.1653E-02 -6.3185E-03
      15-      1
      1            3.3061E-01  2.9919E-01 -5.9960E-01  1.1239E-02 -1.2908E-02 -3.7418E-02
      21-      1
      1            3.4970E-01  3.4273E-01 -7.1014E-01 -2.6722E-02  8.0772E-03  9.7958E-03
      22-      1
      1            3.6805E-01  3.7237E-01 -7.3322E-01 -1.1794E-02  1.9775E-02  1.4569E-02
      23-      1
      1            3.1957E-01  3.4277E-01 -6.2316E-01  4.1030E-03 -2.0065E-02  5.6654E-03
      53-      1
      1            3.7500E-01  3.8037E-01 -7.6108E-01  5.2360E-03  4.4078E-03 -4.5599E-03
      54-      1
      1            3.4398E-01  3.5196E-01 -7.1033E-01  5.5184E-03  1.8221E-02 -5.5524E-03
      55-      1
      1            3.1043E-01  2.9995E-01 -5.9349E-01 -9.0987E-03  2.7663E-02 -6.4786E-02
      93-      1
      1            3.8884E-01  3.3361E-01 -7.3785E-01 -7.8583E-04  1.9443E-03  9.1611E-03
      94-      1
      1            3.7386E-01  3.8370E-01 -7.5517E-01 -7.8470E-03 -6.0048E-03  2.7737E-02
      95-      1
      1            3.1798E-01  3.6189E-01 -6.5827E-01  4.7476E-03 -3.8141E-02  2.9918E-02



 e l e m e n t   s t r e s s   c a l c u l a t i o n s   f o r   t i m e  s t e p      588   ( at time 9.67663E+01 )

 element  materl
     ipt  stress       sig-xx      sig-yy      sig-zz      sig-xy      sig-yz      sig-zx                       yield
           state                                                                                  effsg      function
      13-      1
       1           2.8961E+07  2.3462E+07 -2.2618E+08 -8.3057E+06 -8.9110E+06 -9.6967E+06    2.5387E+08    5.9895E-01
      14-      1
       1          -2.5015E+07 -2.3383E+07 -2.2345E+08 -8.0038E+06 -9.2220E+06 -1.2791E+07    2.0159E+08    3.4134E-01
      15-      1
       1          -1.0273E+08 -1.0892E+08 -2.9595E+08 -2.6581E+06  4.3947E+06 -2.3192E+07    1.9460E+08    2.8714E-01
      21-      1
       1          -8.6051E+07 -9.4120E+07 -4.4148E+08 -7.0109E+06 -8.3678E+05  2.7938E+06    3.5171E+08    6.2376E-01
      22-      1
       1          -7.1833E+07 -7.6455E+07 -1.7358E+08  5.0248E+05  8.5138E+04 -4.4279E+06    9.9819E+07    2.2922E-01
      23-      1
       1          -1.3290E+08 -1.4177E+08 -3.3641E+08 -5.8816E+06  2.2056E+07 -3.6919E+06    2.0321E+08    3.5784E-01
      53-      1
       1          -3.3522E+07 -3.0143E+07 -1.2768E+08 -1.5183E+06 -2.5316E+05 -2.5427E+06    9.6033E+07    3.7361E-01
      54-      1
       1          -3.9258E+07 -2.9312E+07 -2.5265E+08 -1.1213E+06 -1.6055E+06 -1.9909E+07    2.2127E+08    3.8222E-01
      55-      1
       1          -1.6247E+08 -1.4362E+08 -3.2881E+08 -4.6297E+06 -6.9633E+06 -2.5543E+07    1.8256E+08    2.8201E-01
      93-      1
       1          -2.9960E+07 -3.8282E+07 -1.9515E+08  8.7687E+05 -1.0654E+07 -1.3001E+06    1.6226E+08    6.1536E-01
      94-      1
       1          -1.3903E+07 -1.9652E+07 -1.2002E+08  3.4666E+02 -1.0204E+06  2.3973E+06    1.0346E+08    4.1540E-01
      95-      1
       1          -1.0393E+08 -1.1489E+08 -3.0432E+08 -3.7969E+06 -1.3503E+07  1.8085E+06    1.9667E+08    3.4816E-01



 e l e m e n t   s t r a i n   c a l c u l a t i o n s   f o r   t i m e  s t e p      588   ( at time  9.67663E+01 )

 element  strain       eps-xx      eps-yy      eps-zz      eps-xy      eps-yz      eps-zx                            yield
 num/ipt   state
      13-      1
      1            3.7589E-01  3.8241E-01 -7.7242E-01 -2.3887E-02  1.1161E-02 -3.6238E-03
      14-      1
      1            3.5618E-01  3.7846E-01 -7.4166E-01 -5.3381E-03  3.1209E-02  1.6543E-03
      15-      1
      1            3.5072E-01  3.1747E-01 -6.4263E-01  1.0672E-02 -4.8921E-03 -2.8464E-02
      21-      1
      1            3.6926E-01  3.6093E-01 -7.4814E-01 -2.8404E-02  1.0010E-02  1.2028E-02
      22-      1
      1            3.9005E-01  3.9177E-01 -7.7415E-01 -1.3548E-02  3.0664E-02  2.0727E-02
      23-      1
      1            3.4216E-01  3.6412E-01 -6.7043E-01  3.1392E-03 -4.3960E-03  1.8101E-02
      53-      1
      1            3.9668E-01  4.0445E-01 -8.0553E-01  3.9719E-03  2.8882E-03 -3.7189E-03
      54-      1
      1            3.6452E-01  3.7555E-01 -7.5158E-01  4.4443E-03  2.1959E-02  2.0567E-03
      55-      1
      1            3.2646E-01  3.2172E-01 -6.3297E-01 -8.8231E-03  3.0920E-02 -5.6936E-02
      93-      1
      1            4.1944E-01  3.5730E-01 -7.9075E-01 -1.6064E-03  4.5525E-03  1.5276E-02
      94-      1
      1            4.0268E-01  4.0715E-01 -8.0251E-01 -7.2352E-03 -2.1704E-03  4.0238E-02
      95-      1
      1            3.4336E-01  3.8503E-01 -7.0707E-01  4.4552E-03 -3.0310E-02  4.5030E-02



 e l e m e n t   s t r e s s   c a l c u l a t i o n s   f o r   t i m e  s t e p      598   ( at time 1.00000E+02 )

 element  materl
     ipt  stress       sig-xx      sig-yy      sig-zz      sig-xy      sig-yz      sig-zx                       yield
           state                                                                                  effsg      function
      13-      1
       1           5.6168E+07  5.5415E+07 -1.0659E+08 -1.0915E+06 -1.0457E+07 -4.4197E+06    1.6358E+08    6.0836E-01
      14-      1
       1          -6.5664E+07 -6.5954E+07 -2.1554E+08 -5.6628E+06 -5.2994E+06 -5.7487E+06    1.5066E+08    3.5066E-01
      15-      1
       1          -1.4995E+08 -1.5303E+08 -3.0505E+08 -3.2908E+06  1.7938E+06 -1.7847E+07    1.5680E+08    2.9618E-01
      21-      1
       1          -3.4655E+07 -3.6044E+07 -2.9594E+08 -2.9985E+05  8.0495E+06 -1.2844E+06    2.6098E+08    6.4182E-01
      22-      1
       1          -7.4229E+07 -8.0406E+07 -1.6508E+08  8.3729E+05 -3.4832E+06  4.2114E+04    8.8147E+07    2.3497E-01
      23-      1
       1          -1.9176E+08 -2.0443E+08 -4.0071E+08 -3.8189E+06  1.2322E+07 -1.9690E+06    2.0416E+08    3.6876E-01
      53-      1
       1          -2.7920E+07 -2.7243E+07 -1.2439E+08 -8.2011E+05 -2.4028E+05 -3.2784E+06    9.6986E+07    3.8028E-01
      54-      1
       1          -6.0799E+07 -5.3708E+07 -2.3891E+08  1.4749E+05 -6.7824E+05 -1.3037E+07    1.8316E+08    3.9477E-01
      55-      1
       1          -1.7473E+08 -1.6207E+08 -3.4753E+08 -7.9058E+06 -6.3542E+06 -1.7902E+07    1.8297E+08    2.9383E-01
      93-      1
       1           2.4260E+05 -6.5567E+06 -1.6523E+08  1.9030E+06 -1.4214E+07 -2.2636E+06    1.6412E+08    6.2640E-01
      94-      1
       1          -7.1804E+06 -1.1369E+07 -1.1314E+08  6.4667E+05 -5.6876E+06  8.1415E+05    1.0441E+08    4.2281E-01
      95-      1
       1          -9.4625E+07 -1.0724E+08 -2.9877E+08 -2.6716E+06 -1.8941E+07  1.7118E+06    2.0091E+08    3.6193E-01



 e l e m e n t   s t r a i n   c a l c u l a t i o n s   f o r   t i m e  s t e p      598   ( at time  1.00000E+02 )

 element  strain       eps-xx      eps-yy      eps-zz      eps-xy      eps-yz      eps-zx                            yield
 num/ipt   state
      13-      1
      1            3.8949E-01  3.9464E-01 -7.9804E-01 -2.3782E-02  9.4985E-03 -3.0592E-03
      14-      1
      1            3.6805E-01  3.9040E-01 -7.6452E-01 -6.0584E-03  3.3492E-02  5.7253E-03
      15-      1
      1            3.6240E-01  3.2870E-01 -6.6856E-01  1.0138E-02  1.9461E-03 -2.1970E-02
      21-      1
      1            3.8330E-01  3.7549E-01 -7.7620E-01 -2.8361E-02  1.0668E-02  1.2550E-02
      22-      1
      1            4.0361E-01  4.0275E-01 -7.9776E-01 -1.3707E-02  3.3549E-02  2.2636E-02
      23-      1
      1            3.5402E-01  3.7430E-01 -6.9565E-01  2.8941E-03  3.2534E-03  2.6500E-02
      53-      1
      1            4.0926E-01  4.1732E-01 -8.3178E-01  3.3495E-03  3.1264E-03 -3.5548E-03
      54-      1
      1            3.7665E-01  3.8808E-01 -7.7778E-01  3.8483E-03  2.2772E-02  3.0884E-03
      55-      1
      1            3.3581E-01  3.3375E-01 -6.5526E-01 -9.4159E-03  3.0680E-02 -5.5553E-02
      93-      1
      1            4.3512E-01  3.7085E-01 -8.1882E-01 -1.1642E-03  5.6166E-03  1.5670E-02
      94-      1
      1            4.1816E-01  4.2061E-01 -8.3119E-01 -6.8683E-03 -1.2210E-03  4.2928E-02
      95-      1
      1            3.5787E-01  3.9769E-01 -7.3591E-01  3.8983E-03 -2.6250E-02  4.8994E-02
