*KEYWORD
*TITLE
$ TITLE (80 CHARACTER STRING)
Notched Bar Specimen in Compression and Torsion
$ Additional Keyword Files
*INCLUDE
$ FILENAME (80 CHARACTER STRING)
$ GEOM_ArcLine-NotchedCylinder-1.key
SNL5.key
$
*INCLUDE
$ FILENAME (80 CHARACTER STRING)
CONTrol_cards.key
$
*INCLUDE
$ FILENAME (80 CHARACTER STRING)
DATAbase_cards.key
$
$ *CONTACT_ERODING_SINGLE_SURFACE_MPP
$ $   IGNORE      BCKT    LCBCKT    NS2TRK   INITITR    PARMAX              CPARM8
$          1        10                   3         2    1.0005                   0
$ $    SURFA     SURFB  SURFATYP  SURFBTYP   SABOXID   SBBOXID      SAPR      SBPR
$          0         0         5         5                             0         0
$ $       FS        FD        DC        VC       VDC    PENCHK        BT        DT
$       0.61      0.47     10e+3        0.       20.         0        0.      1e+6
$ $     SFSA      SFSB      SAST      SBST     SFSAT     SFSBT       FSF       VSF
$       100.      100.                            1.        1.        1.        1.
$ $     ISYM    EROSOP      IADJ
$          0         1         1
$ $     SOFT    SOFSCL    LCIDAB    MAXPAR     SBOPT     DEPTH     BSORT    FRCFRQ
$          0    100e-3         0                  2.         2                   1
$ $   PENMAX    THKOPT    SHLTHK     SNLOG      ISYM     I2D3D    SLDTHK    SLDSTF
$         0.         0         0         0         0         0        0.        0.
$ $     IGAP    IGNORE    DPRFAC    DTSTIF                        FLANGL   CID_RCF
$          1         0        0.        0.                            0.         0
$ $    Q2TRI    DTPCHK     SFNBR    FNLSCL    DNLSCL      TCSO    TIEDID    SHLEDG
$          0        0.        0.        0.        0.         0         0         0
$ $   SHAREC    CPARM8    IPBACK     SRNDE    FRICSF      ICOR     FTORQ    REGION
$          0         0         0         0        1.         0         0
$ $   PSTIFF   IGNROFF               FSTOL    2DBINR    SSFTYP     SWTPR    TETFAC
$          0         0                  2.         0         0         0        0.
*PART
$ HEADING (70 CHARACTER STRING)
Notched Bar
$      PID     SECID       MID     EOSID      HGID      GRAV    ADPOPT      TMID
         1         1         1         1 
$ General Solid Element
*SECTION_SOLID
$    SECID    ELFORM       AET
         1         3
$
$ Material: 6061-T651 Bar
*MAT_JOHNSON_COOK
$      MID        RO         G         E        PR       DTF        VP    RATEOP
         1  2.713e+3  26.20e+9  68.26e+9  330.0e-3                  1.        0.
$        A         B         N         C         M        TM        TR      EPS0
  250.1e+6  205.1e+6  468.0e-3        0.    10.000    855.37    293.00 100.00e-6
$       CP        PC     SPALL        IT        D1        D2        D3        D4
     896.0 -350.1e+6        2.        0.  77.46e-3  34.48e-3     4.164        0.
$       D5  C2/P/XNP      EROD     EFMIN    NUMINT
        0.                  0.        1.        1.
$ *MAT_SIMPLIFIED_JOHNSON_COOK
$ $#     mid        ro         e        pr        vp
$         1   2.713e+3  68.26e+9  330.0e-3        1.
$ $#       a         b         n         c    psfail    sigmax    sigsat      epso
$   250.1e+6  205.1e+6  468.0e-3        0.         0                     100.00e-6
$ $
$ Time History Variables
$  5. Plastic Strain Rate
$  9. Stress Triaxiality Factor
$ 10. Lode Parameter
$ 11. Plastic Work
$ 14. Temperature
$
$ Equation of State: 6061-T651 Bar
*EOS_LINEAR_POLYNOMIAL
$    EOSID        C0        C1        C2        C3        C4        C5        C6
         1        0.  70.29e+9        0.        0.        0.        0.        0.
$       E0        V0
  790.4e+6        1.
$ $
$ $ Material: Rigid Body
$ *MAT_RIGID
$ $      MID        RO         E        PR         N    COUPLE         M  ALIAS/RE
$          2  2.713e+3  68.26e+9  330.0e-3         0         0         0
$ $      CMO      CON1      CON2
$          0
$ $   LCO/A1        A2        A3        V1        V2        V3
$ $
$ Curve: Constant
*DEFINE_CURVE
$     LCID      SIDR       SFA       SFO      OFFA      OFFO    DATTYP     LCINT
         1         0        1.        1.        0.        0.         0         2
$                 A1                  O1
                  0.                  0.
                100.                  2.
$
$ Boundary Condition: X Symmetry
*BOUNDARY_SPC_SET
$     NSID       CID      DOFX      DOFY      DOFZ     DOFRX     DOFRY     DOFRZ
         2         0         1         0         0         0         1         1
$
$ Boundary Condition: Y Symmetry
*BOUNDARY_SPC_SET
$#    nsid       cid      dofx      dofy      dofz     dofrx     dofry     dofrz
         1         0         0         1         0         1         0         1
$
$ Boundary Condition: Z Symmetry (Gauge Area)
*BOUNDARY_SPC_SET
$#    nsid       cid      dofx      dofy      dofz     dofrx     dofry     dofrz
         4         0         0         0         1         1         1         0
$
$ Boundary Condition: Compression (+Z face moves in -Z direction)
*BOUNDARY_PRESCRIBED_MOTION_SET
$#  typeid       dof       vad      lcid        sf       vid     death     birth
         3         3         2         1    -0.001
$
*END
