 LS-DYNA keyword deck by LS-PrePost                                      
                    ls-dyna smp d R14 R14.1.1s_1_ef50e1 date 06/16/2024

{BEGIN LEGEND}
 Entity #        Title
        1                                                                                     
        2                                                                                     
        3                                                                                     
        4                                                                                     
        5                                                                                     
        6                                                                                     
        7                                                                                     
        8                                                                                     
        9                                                                                     
       10                                                                                     
       11                                                                                     
       12                                                                                     
       13                                                                                     
       14                                                                                     
       15                                                                                     
       16                                                                                     
       17                                                                                     
       18                                                                                     
       19                                                                                     
       26                                                                                     
       27                                                                                     
       54                                                                                     
      127                                                                                     
      165                                                                                     
      220                                                                                     
      221                                                                                     
      222                                                                                     
      223                                                                                     
      248                                                                                     
      249                                                                                     
      286                                                                                     
      287                                                                                     
      288                                                                                     
      301                                                                                     
      314                                                                                     
      363                                                                                     
      364                                                                                     
      365                                                                                     
      366                                                                                     
      379                                                                                     
      404                                                                                     
      405                                                                                     
      418                                                                                     
      438                                                                                     
      439                                                                                     
      440                                                                                     
      441                                                                                     
      442                                                                                     
      443                                                                                     
      444                                                                                     
      591                                                                                     
      592                                                                                     
      595                                                                                     
      596                                                                                     
      599                                                                                     
      600                                                                                     
      603                                                                                     
      604                                                                                     
      638                                                                                     
      639                                                                                     
      641                                                                                     
      642                                                                                     
      644                                                                                     
      645                                                                                     
      647                                                                                     
      648                                                                                     
      674                                                                                     
      676                                                                                     
      678                                                                                     
      680                                                                                     
      821                                                                                     
      822                                                                                     
      823                                                                                     
      824                                                                                     
      850                                                                                     
      852                                                                                     
      854                                                                                     
      856                                                                                     
{END LEGEND}




 n o d a l   p r i n t   o u t   f o r   t i m e  s t e p       1                              ( at time 0.0000000E+00 )

 nodal point  x-disp     y-disp      z-disp      x-vel       y-vel       z-vel      x-accl      y-accl      z-accl      x-coor      y-coor      z-coor
        1  0.00000E+00 0.00000E+00 0.00000E+00 0.00000E+00 0.00000E+00 0.00000E+00 0.00000E+00 0.00000E+00 0.00000E+00 3.17500E-03 0.00000E+00-1.78000E-18
        2  0.00000E+00 0.00000E+00 0.00000E+00 0.00000E+00 0.00000E+00 0.00000E+00 0.00000E+00 0.00000E+00 0.00000E+00 2.38130E-03 0.00000E+00 0.00000E+00
        3  0.00000E+00 0.00000E+00 0.00000E+00 0.00000E+00 0.00000E+00 0.00000E+00 0.00000E+00 0.00000E+00 0.00000E+00 1.58750E-03 0.00000E+00 0.00000E+00
        4  0.00000E+00 0.00000E+00 0.00000E+00 0.00000E+00 0.00000E+00 0.00000E+00 0.00000E+00 0.00000E+00 0.00000E+00 7.93750E-04 0.00000E+00 0.00000E+00
        5  0.00000E+00 0.00000E+00 0.00000E+00 0.00000E+00 0.00000E+00 0.00000E+00 0.00000E+00 0.00000E+00 0.00000E+00 0.00000E+00 0.00000E+00 0.00000E+00
        6  0.00000E+00 0.00000E+00 0.00000E+00 0.00000E+00 0.00000E+00 0.00000E+00 0.00000E+00 0.00000E+00 0.00000E+00 4.86000E-20 7.93750E-04 0.00000E+00
        7  0.00000E+00 0.00000E+00 0.00000E+00 0.00000E+00 0.00000E+00 0.00000E+00 0.00000E+00 0.00000E+00 0.00000E+00 9.72100E-20 1.58750E-03 0.00000E+00
        8  0.00000E+00 0.00000E+00 0.00000E+00 0.00000E+00 0.00000E+00 0.00000E+00 0.00000E+00 0.00000E+00 0.00000E+00 1.45800E-19 2.38130E-03 0.00000E+00
        9  0.00000E+00 0.00000E+00 0.00000E+00 0.00000E+00 0.00000E+00 0.00000E+00 0.00000E+00 0.00000E+00 0.00000E+00 1.94400E-19 3.17500E-03 0.00000E+00
       10  0.00000E+00 0.00000E+00 0.00000E+00 0.00000E+00 0.00000E+00 0.00000E+00 0.00000E+00 0.00000E+00 0.00000E+00 1.21500E-03 2.93330E-03 0.00000E+00
       11  0.00000E+00 0.00000E+00 0.00000E+00 0.00000E+00 0.00000E+00 0.00000E+00 0.00000E+00 0.00000E+00 0.00000E+00 2.24510E-03 2.24510E-03 0.00000E+00
       12  0.00000E+00 0.00000E+00 0.00000E+00 0.00000E+00 0.00000E+00 0.00000E+00 0.00000E+00 0.00000E+00 0.00000E+00 2.93330E-03 1.21500E-03 0.00000E+00
       13  0.00000E+00 0.00000E+00 0.00000E+00 0.00000E+00 0.00000E+00 0.00000E+00 0.00000E+00 0.00000E+00 0.00000E+00 1.30830E-03 1.35190E-03 0.00000E+00
       14  0.00000E+00 0.00000E+00 0.00000E+00 0.00000E+00 0.00000E+00 0.00000E+00 0.00000E+00 0.00000E+00 0.00000E+00 1.48830E-03 7.06977E-04 0.00000E+00
       15  0.00000E+00 0.00000E+00 0.00000E+00 0.00000E+00 0.00000E+00 0.00000E+00 0.00000E+00 0.00000E+00 0.00000E+00 6.69510E-04 1.50700E-03 0.00000E+00
       16  0.00000E+00 0.00000E+00 0.00000E+00 0.00000E+00 0.00000E+00 0.00000E+00 0.00000E+00 0.00000E+00 0.00000E+00 7.53638E-04 7.82337E-04 0.00000E+00
       17  0.00000E+00 0.00000E+00 0.00000E+00 0.00000E+00 0.00000E+00 0.00000E+00 0.00000E+00 0.00000E+00 0.00000E+00 1.73630E-03 1.76750E-03 0.00000E+00
       18  0.00000E+00 0.00000E+00 0.00000E+00 0.00000E+00 0.00000E+00 0.00000E+00 0.00000E+00 0.00000E+00 0.00000E+00 9.20131E-04 2.19110E-03 0.00000E+00
       19  0.00000E+00 0.00000E+00 0.00000E+00 0.00000E+00 0.00000E+00 0.00000E+00 0.00000E+00 0.00000E+00 0.00000E+00 2.16330E-03 9.50859E-04 0.00000E+00
       26  0.00000E+00 0.00000E+00 0.00000E+00 0.00000E+00 0.00000E+00 0.00000E+00 0.00000E+00 0.00000E+00 0.00000E+00 3.15030E-03 1.31160E-03 1.88730E-03
       27  0.00000E+00 0.00000E+00 0.00000E+00 0.00000E+00 0.00000E+00 0.00000E+00 0.00000E+00 0.00000E+00 0.00000E+00 2.42050E-03 2.42360E-03 1.93700E-03
       54  0.00000E+00 0.00000E+00 0.00000E+00 0.00000E+00 0.00000E+00 0.00000E+00 0.00000E+00 0.00000E+00 0.00000E+00 1.30760E-03 3.15480E-03 1.89760E-03
      127  0.00000E+00 0.00000E+00 0.00000E+00 0.00000E+00 0.00000E+00 0.00000E+00 0.00000E+00 0.00000E+00 0.00000E+00 3.38660E-03 0.00000E+00 1.78320E-03
      165  0.00000E+00 0.00000E+00 0.00000E+00 0.00000E+00 0.00000E+00 0.00000E+00 0.00000E+00 0.00000E+00 0.00000E+00 2.39400E-19 3.38670E-03 1.78390E-03
      220  0.00000E+00 0.00000E+00 0.00000E+00 0.00000E+00 0.00000E+00 0.00000E+00 0.00000E+00 0.00000E+00 0.00000E+00 2.13900E-19 3.49250E-03 2.54000E-02
      221  0.00000E+00 0.00000E+00 0.00000E+00 0.00000E+00 0.00000E+00 0.00000E+00 0.00000E+00 0.00000E+00 0.00000E+00 1.47250E-03 3.31440E-03 2.54000E-02
      222  0.00000E+00 0.00000E+00 0.00000E+00 0.00000E+00 0.00000E+00 0.00000E+00 0.00000E+00 0.00000E+00 0.00000E+00 2.02380E-03 4.81920E-03 2.54000E-02
      223  0.00000E+00 0.00000E+00 0.00000E+00 0.00000E+00 0.00000E+00 0.00000E+00 0.00000E+00 0.00000E+00 0.00000E+00 3.20800E-19 5.23880E-03 2.54000E-02
      248  0.00000E+00 0.00000E+00 0.00000E+00 0.00000E+00 0.00000E+00 0.00000E+00 0.00000E+00 0.00000E+00 0.00000E+00 2.67340E-03 6.45320E-03 2.54000E-02
      249  0.00000E+00 0.00000E+00 0.00000E+00 0.00000E+00 0.00000E+00 0.00000E+00 0.00000E+00 0.00000E+00 0.00000E+00 4.27700E-19 6.98500E-03 2.54000E-02
      286  0.00000E+00 0.00000E+00 0.00000E+00 0.00000E+00 0.00000E+00 0.00000E+00 0.00000E+00 0.00000E+00 0.00000E+00 3.27330E-03 1.55480E-03 2.54000E-02
      287  0.00000E+00 0.00000E+00 0.00000E+00 0.00000E+00 0.00000E+00 0.00000E+00 0.00000E+00 0.00000E+00 0.00000E+00 2.87770E-03 2.97340E-03 2.54000E-02
      288  0.00000E+00 0.00000E+00 0.00000E+00 0.00000E+00 0.00000E+00 0.00000E+00 0.00000E+00 0.00000E+00 0.00000E+00 1.65770E-03 1.72080E-03 2.54000E-02
      301  0.00000E+00 0.00000E+00 0.00000E+00 0.00000E+00 0.00000E+00 0.00000E+00 0.00000E+00 0.00000E+00 0.00000E+00 3.81930E-03 3.88770E-03 2.54000E-02
      314  0.00000E+00 0.00000E+00 0.00000E+00 0.00000E+00 0.00000E+00 0.00000E+00 0.00000E+00 0.00000E+00 0.00000E+00 4.93910E-03 4.93910E-03 2.54000E-02
      363  0.00000E+00 0.00000E+00 0.00000E+00 0.00000E+00 0.00000E+00 0.00000E+00 0.00000E+00 0.00000E+00 0.00000E+00 6.45340E-03 2.67290E-03 2.54000E-02
      364  0.00000E+00 0.00000E+00 0.00000E+00 0.00000E+00 0.00000E+00 0.00000E+00 0.00000E+00 0.00000E+00 0.00000E+00 4.75810E-03 2.09120E-03 2.54000E-02
      365  0.00000E+00 0.00000E+00 0.00000E+00 0.00000E+00 0.00000E+00 0.00000E+00 0.00000E+00 0.00000E+00 0.00000E+00 5.23880E-03 0.00000E+00 2.54000E-02
      366  0.00000E+00 0.00000E+00 0.00000E+00 0.00000E+00 0.00000E+00 0.00000E+00 0.00000E+00 0.00000E+00 0.00000E+00 6.98500E-03 0.00000E+00 2.54000E-02
      379  0.00000E+00 0.00000E+00 0.00000E+00 0.00000E+00 0.00000E+00 0.00000E+00 0.00000E+00 0.00000E+00 0.00000E+00 1.06900E-19 1.74630E-03 2.54000E-02
      404  0.00000E+00 0.00000E+00 0.00000E+00 0.00000E+00 0.00000E+00 0.00000E+00 0.00000E+00 0.00000E+00 0.00000E+00 1.74630E-03 0.00000E+00 2.54000E-02
      405  0.00000E+00 0.00000E+00 0.00000E+00 0.00000E+00 0.00000E+00 0.00000E+00 0.00000E+00 0.00000E+00 0.00000E+00 0.00000E+00 0.00000E+00 2.54000E-02
      418  0.00000E+00 0.00000E+00 0.00000E+00 0.00000E+00 0.00000E+00 0.00000E+00 0.00000E+00 0.00000E+00 0.00000E+00 3.49250E-03 0.00000E+00 2.54000E-02
      438  0.00000E+00 0.00000E+00 0.00000E+00 0.00000E+00 0.00000E+00 0.00000E+00 0.00000E+00 0.00000E+00 0.00000E+00 1.27000E-02 0.00000E+00 2.54000E-02
      439  0.00000E+00 0.00000E+00 0.00000E+00 0.00000E+00 0.00000E+00 0.00000E+00 0.00000E+00 0.00000E+00 0.00000E+00 1.18836E-02 0.00000E+00 2.54000E-02
      440  0.00000E+00 0.00000E+00 0.00000E+00 0.00000E+00 0.00000E+00 0.00000E+00 0.00000E+00 0.00000E+00 0.00000E+00 1.10671E-02 0.00000E+00 2.54000E-02
      441  0.00000E+00 0.00000E+00 0.00000E+00 0.00000E+00 0.00000E+00 0.00000E+00 0.00000E+00 0.00000E+00 0.00000E+00 1.02507E-02 0.00000E+00 2.54000E-02
      442  0.00000E+00 0.00000E+00 0.00000E+00 0.00000E+00 0.00000E+00 0.00000E+00 0.00000E+00 0.00000E+00 0.00000E+00 9.43430E-03 0.00000E+00 2.54000E-02
      443  0.00000E+00 0.00000E+00 0.00000E+00 0.00000E+00 0.00000E+00 0.00000E+00 0.00000E+00 0.00000E+00 0.00000E+00 8.61790E-03 0.00000E+00 2.54000E-02
      444  0.00000E+00 0.00000E+00 0.00000E+00 0.00000E+00 0.00000E+00 0.00000E+00 0.00000E+00 0.00000E+00 0.00000E+00 7.80140E-03 0.00000E+00 2.54000E-02
      591  0.00000E+00 0.00000E+00 0.00000E+00 0.00000E+00 0.00000E+00 0.00000E+00 0.00000E+00 0.00000E+00 0.00000E+00 7.97270E-03 3.27150E-03 2.54000E-02
      592  0.00000E+00 0.00000E+00 0.00000E+00 0.00000E+00 0.00000E+00 0.00000E+00 0.00000E+00 0.00000E+00 0.00000E+00 8.73230E-03 3.57080E-03 2.54000E-02
      595  0.00000E+00 0.00000E+00 0.00000E+00 0.00000E+00 0.00000E+00 0.00000E+00 0.00000E+00 0.00000E+00 0.00000E+00 6.09600E-03 6.09150E-03 2.54000E-02
      596  0.00000E+00 0.00000E+00 0.00000E+00 0.00000E+00 0.00000E+00 0.00000E+00 0.00000E+00 0.00000E+00 0.00000E+00 6.67450E-03 6.66760E-03 2.54000E-02
      599  0.00000E+00 0.00000E+00 0.00000E+00 0.00000E+00 0.00000E+00 0.00000E+00 0.00000E+00 0.00000E+00 0.00000E+00 3.27630E-03 7.97070E-03 2.54000E-02
      600  0.00000E+00 0.00000E+00 0.00000E+00 0.00000E+00 0.00000E+00 0.00000E+00 0.00000E+00 0.00000E+00 0.00000E+00 3.57780E-03 8.72950E-03 2.54000E-02
      603  0.00000E+00 0.00000E+00 0.00000E+00 0.00000E+00 0.00000E+00 0.00000E+00 0.00000E+00 0.00000E+00 0.00000E+00 5.27700E-19 8.61790E-03 2.54000E-02
      604  0.00000E+00 0.00000E+00 0.00000E+00 0.00000E+00 0.00000E+00 0.00000E+00 0.00000E+00 0.00000E+00 0.00000E+00 5.77700E-19 9.43430E-03 2.54000E-02
      638  0.00000E+00 0.00000E+00 0.00000E+00 0.00000E+00 0.00000E+00 0.00000E+00 0.00000E+00 0.00000E+00 0.00000E+00 1.02517E-02 4.16940E-03 2.54000E-02
      639  0.00000E+00 0.00000E+00 0.00000E+00 0.00000E+00 0.00000E+00 0.00000E+00 0.00000E+00 0.00000E+00 0.00000E+00 1.10113E-02 4.46870E-03 2.54000E-02
      641  0.00000E+00 0.00000E+00 0.00000E+00 0.00000E+00 0.00000E+00 0.00000E+00 0.00000E+00 0.00000E+00 0.00000E+00 7.83140E-03 7.81990E-03 2.54000E-02
      642  0.00000E+00 0.00000E+00 0.00000E+00 0.00000E+00 0.00000E+00 0.00000E+00 0.00000E+00 0.00000E+00 0.00000E+00 8.40990E-03 8.39600E-03 2.54000E-02
      644  0.00000E+00 0.00000E+00 0.00000E+00 0.00000E+00 0.00000E+00 0.00000E+00 0.00000E+00 0.00000E+00 0.00000E+00 4.18070E-03 1.02471E-02 2.54000E-02
      645  0.00000E+00 0.00000E+00 0.00000E+00 0.00000E+00 0.00000E+00 0.00000E+00 0.00000E+00 0.00000E+00 0.00000E+00 4.48220E-03 1.10058E-02 2.54000E-02
      647  0.00000E+00 0.00000E+00 0.00000E+00 0.00000E+00 0.00000E+00 0.00000E+00 0.00000E+00 0.00000E+00 0.00000E+00 6.77700E-19 1.10671E-02 2.54000E-02
      648  0.00000E+00 0.00000E+00 0.00000E+00 0.00000E+00 0.00000E+00 0.00000E+00 0.00000E+00 0.00000E+00 0.00000E+00 7.27700E-19 1.18836E-02 2.54000E-02
      674  0.00000E+00 0.00000E+00 0.00000E+00 0.00000E+00 0.00000E+00 0.00000E+00 0.00000E+00 0.00000E+00 0.00000E+00 7.21300E-03 2.97220E-03 2.54000E-02
      676  0.00000E+00 0.00000E+00 0.00000E+00 0.00000E+00 0.00000E+00 0.00000E+00 0.00000E+00 0.00000E+00 0.00000E+00 5.51760E-03 5.51530E-03 2.54000E-02
      678  0.00000E+00 0.00000E+00 0.00000E+00 0.00000E+00 0.00000E+00 0.00000E+00 0.00000E+00 0.00000E+00 0.00000E+00 2.97480E-03 7.21200E-03 2.54000E-02
      680  0.00000E+00 0.00000E+00 0.00000E+00 0.00000E+00 0.00000E+00 0.00000E+00 0.00000E+00 0.00000E+00 0.00000E+00 4.77700E-19 7.80140E-03 2.54000E-02
      821  0.00000E+00 0.00000E+00 0.00000E+00 0.00000E+00 0.00000E+00 0.00000E+00 0.00000E+00 0.00000E+00 0.00000E+00 9.49200E-03 3.87010E-03 2.54000E-02
      822  0.00000E+00 0.00000E+00 0.00000E+00 0.00000E+00 0.00000E+00 0.00000E+00 0.00000E+00 0.00000E+00 0.00000E+00 7.25290E-03 7.24380E-03 2.54000E-02
      823  0.00000E+00 0.00000E+00 0.00000E+00 0.00000E+00 0.00000E+00 0.00000E+00 0.00000E+00 0.00000E+00 0.00000E+00 3.87930E-03 9.48830E-03 2.54000E-02
      824  0.00000E+00 0.00000E+00 0.00000E+00 0.00000E+00 0.00000E+00 0.00000E+00 0.00000E+00 0.00000E+00 0.00000E+00 6.27700E-19 1.02507E-02 2.54000E-02
      850  0.00000E+00 0.00000E+00 0.00000E+00 0.00000E+00 0.00000E+00 0.00000E+00 0.00000E+00 0.00000E+00 0.00000E+00 1.17710E-02 4.76810E-03 2.54000E-02
      852  0.00000E+00 0.00000E+00 0.00000E+00 0.00000E+00 0.00000E+00 0.00000E+00 0.00000E+00 0.00000E+00 0.00000E+00 8.98830E-03 8.97220E-03 2.54000E-02
      854  0.00000E+00 0.00000E+00 0.00000E+00 0.00000E+00 0.00000E+00 0.00000E+00 0.00000E+00 0.00000E+00 0.00000E+00 4.78370E-03 1.17646E-02 2.54000E-02
      856  0.00000E+00 0.00000E+00 0.00000E+00 0.00000E+00 0.00000E+00 0.00000E+00 0.00000E+00 0.00000E+00 0.00000E+00 7.77700E-19 1.27000E-02 2.54000E-02



 n o d a l   p r i n t   o u t   f o r   t i m e  s t e p      10                              ( at time 1.2924466E+00 )

 nodal point  x-disp     y-disp      z-disp      x-vel       y-vel       z-vel      x-accl      y-accl      z-accl      x-coor      y-coor      z-coor
        1  3.25876E-06 0.00000E+00 0.00000E+00 0.00000E+00 0.00000E+00 0.00000E+00 0.00000E+00 0.00000E+00 0.00000E+00 3.17826E-03 0.00000E+00-1.78000E-18
        2  2.09847E-06 0.00000E+00 0.00000E+00 0.00000E+00 0.00000E+00 0.00000E+00 0.00000E+00 0.00000E+00 0.00000E+00 2.38340E-03 0.00000E+00 0.00000E+00
        3  1.27746E-06 0.00000E+00 0.00000E+00 0.00000E+00 0.00000E+00 0.00000E+00 0.00000E+00 0.00000E+00 0.00000E+00 1.58878E-03 0.00000E+00 0.00000E+00
        4  6.09659E-07 0.00000E+00 0.00000E+00 0.00000E+00 0.00000E+00 0.00000E+00 0.00000E+00 0.00000E+00 0.00000E+00 7.94360E-04 0.00000E+00 0.00000E+00
        5  0.00000E+00 0.00000E+00 0.00000E+00 0.00000E+00 0.00000E+00 0.00000E+00 0.00000E+00 0.00000E+00 0.00000E+00 0.00000E+00 0.00000E+00 0.00000E+00
        6  0.00000E+00 6.15394E-07 0.00000E+00 0.00000E+00 0.00000E+00 0.00000E+00 0.00000E+00 0.00000E+00 0.00000E+00 4.86000E-20 7.94365E-04 0.00000E+00
        7  0.00000E+00 1.31633E-06 0.00000E+00 0.00000E+00 0.00000E+00 0.00000E+00 0.00000E+00 0.00000E+00 0.00000E+00 9.72100E-20 1.58882E-03 0.00000E+00
        8  0.00000E+00 2.22828E-06 0.00000E+00 0.00000E+00 0.00000E+00 0.00000E+00 0.00000E+00 0.00000E+00 0.00000E+00 1.45800E-19 2.38353E-03 0.00000E+00
        9  0.00000E+00 3.47108E-06 0.00000E+00 0.00000E+00 0.00000E+00 0.00000E+00 0.00000E+00 0.00000E+00 0.00000E+00 1.94400E-19 3.17847E-03 0.00000E+00
       10  1.22417E-06 3.20207E-06 0.00000E+00 0.00000E+00 0.00000E+00 0.00000E+00 0.00000E+00 0.00000E+00 0.00000E+00 1.21622E-03 2.93650E-03 0.00000E+00
       11  2.44233E-06 2.75952E-06 0.00000E+00 0.00000E+00 0.00000E+00 0.00000E+00 0.00000E+00 0.00000E+00 0.00000E+00 2.24754E-03 2.24786E-03 0.00000E+00
       12  3.10702E-06 1.55142E-06 0.00000E+00 0.00000E+00 0.00000E+00 0.00000E+00 0.00000E+00 0.00000E+00 0.00000E+00 2.93641E-03 1.21655E-03 0.00000E+00
       13  1.22656E-06 1.25676E-06 0.00000E+00 0.00000E+00 0.00000E+00 0.00000E+00 0.00000E+00 0.00000E+00 0.00000E+00 1.30953E-03 1.35316E-03 0.00000E+00
       14  1.27635E-06 6.31145E-07 0.00000E+00 0.00000E+00 0.00000E+00 0.00000E+00 0.00000E+00 0.00000E+00 0.00000E+00 1.48958E-03 7.07608E-04 0.00000E+00
       15  5.95037E-07 1.25082E-06 0.00000E+00 0.00000E+00 0.00000E+00 0.00000E+00 0.00000E+00 0.00000E+00 0.00000E+00 6.70105E-04 1.50825E-03 0.00000E+00
       16  6.15232E-07 6.19178E-07 0.00000E+00 0.00000E+00 0.00000E+00 0.00000E+00 0.00000E+00 0.00000E+00 0.00000E+00 7.54253E-04 7.82956E-04 0.00000E+00
       17  1.81472E-06 1.72847E-06 0.00000E+00 0.00000E+00 0.00000E+00 0.00000E+00 0.00000E+00 0.00000E+00 0.00000E+00 1.73811E-03 1.76923E-03 0.00000E+00
       18  9.11765E-07 1.99589E-06 0.00000E+00 0.00000E+00 0.00000E+00 0.00000E+00 0.00000E+00 0.00000E+00 0.00000E+00 9.21043E-04 2.19310E-03 0.00000E+00
       19  2.04300E-06 8.58035E-07 0.00000E+00 0.00000E+00 0.00000E+00 0.00000E+00 0.00000E+00 0.00000E+00 0.00000E+00 2.16534E-03 9.51717E-04 0.00000E+00
       26  2.70750E-06 1.19454E-06-8.15931E-06 0.00000E+00 0.00000E+00 0.00000E+00 0.00000E+00 0.00000E+00 0.00000E+00 3.15301E-03 1.31279E-03 1.87914E-03
       27  2.06872E-06 2.16809E-06-8.05973E-06 0.00000E+00 0.00000E+00 0.00000E+00 0.00000E+00 0.00000E+00 0.00000E+00 2.42257E-03 2.42577E-03 1.92894E-03
       54  1.08407E-06 2.68711E-06-7.71048E-06 0.00000E+00 0.00000E+00 0.00000E+00 0.00000E+00 0.00000E+00 0.00000E+00 1.30868E-03 3.15749E-03 1.88989E-03
      127  2.93002E-06 0.00000E+00-8.02463E-06 0.00000E+00 0.00000E+00 0.00000E+00 0.00000E+00 0.00000E+00 0.00000E+00 3.38953E-03 0.00000E+00 1.77518E-03
      165  0.00000E+00 2.95753E-06-7.28304E-06 0.00000E+00 0.00000E+00 0.00000E+00 0.00000E+00 0.00000E+00 0.00000E+00 2.39400E-19 3.38966E-03 1.77662E-03
      220  0.00000E+00 3.77843E-07-2.58489E-05 0.00000E+00 0.00000E+00 0.00000E+00 0.00000E+00 0.00000E+00 0.00000E+00 2.13900E-19 3.49288E-03 2.53742E-02
      221  1.01689E-07 3.18231E-07-2.58489E-05 0.00000E+00 0.00000E+00 0.00000E+00 0.00000E+00 0.00000E+00 0.00000E+00 1.47260E-03 3.31472E-03 2.53742E-02
      222  1.82316E-07 4.60455E-07-2.58489E-05 0.00000E+00 0.00000E+00 0.00000E+00 0.00000E+00 0.00000E+00 0.00000E+00 2.02398E-03 4.81966E-03 2.53742E-02
      223  0.00000E+00 5.97184E-07-2.58489E-05 0.00000E+00 0.00000E+00 0.00000E+00 0.00000E+00 0.00000E+00 0.00000E+00 3.20800E-19 5.23940E-03 2.53742E-02
      248  2.59451E-07 7.57475E-07-2.58489E-05 0.00000E+00 0.00000E+00 0.00000E+00 0.00000E+00 0.00000E+00 0.00000E+00 2.67366E-03 6.45396E-03 2.53742E-02
      249  0.00000E+00 8.76995E-07-2.58489E-05 0.00000E+00 0.00000E+00 0.00000E+00 0.00000E+00 0.00000E+00 0.00000E+00 4.27700E-19 6.98588E-03 2.53742E-02
      286  2.72628E-07 1.23192E-07-2.58489E-05 0.00000E+00 0.00000E+00 0.00000E+00 0.00000E+00 0.00000E+00 0.00000E+00 3.27357E-03 1.55492E-03 2.53742E-02
      287  2.51980E-07 3.05936E-07-2.58489E-05 0.00000E+00 0.00000E+00 0.00000E+00 0.00000E+00 0.00000E+00 0.00000E+00 2.87795E-03 2.97371E-03 2.53742E-02
      288  1.63894E-07 2.15880E-07-2.58489E-05 0.00000E+00 0.00000E+00 0.00000E+00 0.00000E+00 0.00000E+00 0.00000E+00 1.65786E-03 1.72102E-03 2.53742E-02
      301  3.61701E-07 4.43920E-07-2.58489E-05 0.00000E+00 0.00000E+00 0.00000E+00 0.00000E+00 0.00000E+00 0.00000E+00 3.81966E-03 3.88814E-03 2.53742E-02
      314  4.78517E-07 5.76136E-07-2.58489E-05 0.00000E+00 0.00000E+00 0.00000E+00 0.00000E+00 0.00000E+00 0.00000E+00 4.93958E-03 4.93968E-03 2.53742E-02
      363  6.10329E-07 3.17316E-07-2.58489E-05 0.00000E+00 0.00000E+00 0.00000E+00 0.00000E+00 0.00000E+00 0.00000E+00 6.45401E-03 2.67322E-03 2.53742E-02
      364  3.76504E-07 2.38732E-07-2.58489E-05 0.00000E+00 0.00000E+00 0.00000E+00 0.00000E+00 0.00000E+00 0.00000E+00 4.75848E-03 2.09144E-03 2.53742E-02
      365  4.82963E-07 0.00000E+00-2.58489E-05 0.00000E+00 0.00000E+00 0.00000E+00 0.00000E+00 0.00000E+00 0.00000E+00 5.23928E-03 0.00000E+00 2.53742E-02
      366  6.66778E-07 0.00000E+00-2.58489E-05 0.00000E+00 0.00000E+00 0.00000E+00 0.00000E+00 0.00000E+00 0.00000E+00 6.98567E-03 0.00000E+00 2.53742E-02
      379  0.00000E+00 1.93256E-07-2.58489E-05 0.00000E+00 0.00000E+00 0.00000E+00 0.00000E+00 0.00000E+00 0.00000E+00 1.06900E-19 1.74649E-03 2.53742E-02
      404  1.55616E-07 0.00000E+00-2.58489E-05 0.00000E+00 0.00000E+00 0.00000E+00 0.00000E+00 0.00000E+00 0.00000E+00 1.74646E-03 0.00000E+00 2.53742E-02
      405  0.00000E+00 0.00000E+00-2.58489E-05 0.00000E+00 0.00000E+00 0.00000E+00 0.00000E+00 0.00000E+00 0.00000E+00 0.00000E+00 0.00000E+00 2.53742E-02
      418  3.09467E-07 0.00000E+00-2.58489E-05 0.00000E+00 0.00000E+00 0.00000E+00 0.00000E+00 0.00000E+00 0.00000E+00 3.49281E-03 0.00000E+00 2.53742E-02
      438  9.60733E-07 0.00000E+00-2.58489E-05 0.00000E+00 0.00000E+00 0.00000E+00 0.00000E+00 0.00000E+00 0.00000E+00 1.27010E-02 0.00000E+00 2.53742E-02
      439  9.07265E-07 0.00000E+00-2.58489E-05 0.00000E+00 0.00000E+00 0.00000E+00 0.00000E+00 0.00000E+00 0.00000E+00 1.18845E-02 0.00000E+00 2.53742E-02
      440  8.61437E-07 0.00000E+00-2.58489E-05 0.00000E+00 0.00000E+00 0.00000E+00 0.00000E+00 0.00000E+00 0.00000E+00 1.10680E-02 0.00000E+00 2.53742E-02
      441  8.14964E-07 0.00000E+00-2.58489E-05 0.00000E+00 0.00000E+00 0.00000E+00 0.00000E+00 0.00000E+00 0.00000E+00 1.02515E-02 0.00000E+00 2.53742E-02
      442  7.66924E-07 0.00000E+00-2.58489E-05 0.00000E+00 0.00000E+00 0.00000E+00 0.00000E+00 0.00000E+00 0.00000E+00 9.43507E-03 0.00000E+00 2.53742E-02
      443  7.17519E-07 0.00000E+00-2.58489E-05 0.00000E+00 0.00000E+00 0.00000E+00 0.00000E+00 0.00000E+00 0.00000E+00 8.61862E-03 0.00000E+00 2.53742E-02
      444  6.71010E-07 0.00000E+00-2.58489E-05 0.00000E+00 0.00000E+00 0.00000E+00 0.00000E+00 0.00000E+00 0.00000E+00 7.80207E-03 0.00000E+00 2.53742E-02
      591  6.75547E-07 3.47393E-07-2.58489E-05 0.00000E+00 0.00000E+00 0.00000E+00 0.00000E+00 0.00000E+00 0.00000E+00 7.97338E-03 3.27185E-03 2.53742E-02
      592  7.23250E-07 3.67536E-07-2.58489E-05 0.00000E+00 0.00000E+00 0.00000E+00 0.00000E+00 0.00000E+00 0.00000E+00 8.73302E-03 3.57117E-03 2.53742E-02
      595  5.34259E-07 6.34468E-07-2.58489E-05 0.00000E+00 0.00000E+00 0.00000E+00 0.00000E+00 0.00000E+00 0.00000E+00 6.09653E-03 6.09213E-03 2.53742E-02
      596  5.73430E-07 6.74249E-07-2.58489E-05 0.00000E+00 0.00000E+00 0.00000E+00 0.00000E+00 0.00000E+00 0.00000E+00 6.67507E-03 6.66827E-03 2.53742E-02
      599  2.89061E-07 8.15773E-07-2.58489E-05 0.00000E+00 0.00000E+00 0.00000E+00 0.00000E+00 0.00000E+00 0.00000E+00 3.27659E-03 7.97152E-03 2.53742E-02
      600  3.11201E-07 8.63756E-07-2.58489E-05 0.00000E+00 0.00000E+00 0.00000E+00 0.00000E+00 0.00000E+00 0.00000E+00 3.57811E-03 8.73036E-03 2.53742E-02
      603  0.00000E+00 8.82348E-07-2.58489E-05 0.00000E+00 0.00000E+00 0.00000E+00 0.00000E+00 0.00000E+00 0.00000E+00 5.27700E-19 8.61878E-03 2.53742E-02
      604  0.00000E+00 9.28063E-07-2.58489E-05 0.00000E+00 0.00000E+00 0.00000E+00 0.00000E+00 0.00000E+00 0.00000E+00 5.77700E-19 9.43523E-03 2.53742E-02
      638  8.18670E-07 4.04688E-07-2.58489E-05 0.00000E+00 0.00000E+00 0.00000E+00 0.00000E+00 0.00000E+00 0.00000E+00 1.02525E-02 4.16980E-03 2.53742E-02
      639  8.65105E-07 4.21511E-07-2.58489E-05 0.00000E+00 0.00000E+00 0.00000E+00 0.00000E+00 0.00000E+00 0.00000E+00 1.10122E-02 4.46912E-03 2.53742E-02
      641  6.54548E-07 7.54893E-07-2.58489E-05 0.00000E+00 0.00000E+00 0.00000E+00 0.00000E+00 0.00000E+00 0.00000E+00 7.83205E-03 7.82065E-03 2.53742E-02
      642  6.94883E-07 7.94372E-07-2.58489E-05 0.00000E+00 0.00000E+00 0.00000E+00 0.00000E+00 0.00000E+00 0.00000E+00 8.41059E-03 8.39679E-03 2.53742E-02
      644  3.56730E-07 9.64626E-07-2.58489E-05 0.00000E+00 0.00000E+00 0.00000E+00 0.00000E+00 0.00000E+00 0.00000E+00 4.18106E-03 1.02481E-02 2.53742E-02
      645  3.79617E-07 1.01901E-06-2.58489E-05 0.00000E+00 0.00000E+00 0.00000E+00 0.00000E+00 0.00000E+00 0.00000E+00 4.48258E-03 1.10068E-02 2.53742E-02
      647  0.00000E+00 1.02930E-06-2.58489E-05 0.00000E+00 0.00000E+00 0.00000E+00 0.00000E+00 0.00000E+00 0.00000E+00 6.77700E-19 1.10681E-02 2.53742E-02
      648  0.00000E+00 1.09044E-06-2.58489E-05 0.00000E+00 0.00000E+00 0.00000E+00 0.00000E+00 0.00000E+00 0.00000E+00 7.27700E-19 1.18847E-02 2.53742E-02
      674  6.30311E-07 3.30435E-07-2.58489E-05 0.00000E+00 0.00000E+00 0.00000E+00 0.00000E+00 0.00000E+00 0.00000E+00 7.21363E-03 2.97253E-03 2.53742E-02
      676  4.96099E-07 6.00738E-07-2.58489E-05 0.00000E+00 0.00000E+00 0.00000E+00 0.00000E+00 0.00000E+00 0.00000E+00 5.51810E-03 5.51590E-03 2.53742E-02
      678  2.67784E-07 7.78295E-07-2.58489E-05 0.00000E+00 0.00000E+00 0.00000E+00 0.00000E+00 0.00000E+00 0.00000E+00 2.97507E-03 7.21278E-03 2.53742E-02
      680  0.00000E+00 8.57026E-07-2.58489E-05 0.00000E+00 0.00000E+00 0.00000E+00 0.00000E+00 0.00000E+00 0.00000E+00 4.77700E-19 7.80226E-03 2.53742E-02
      821  7.71017E-07 3.86831E-07-2.58489E-05 0.00000E+00 0.00000E+00 0.00000E+00 0.00000E+00 0.00000E+00 0.00000E+00 9.49277E-03 3.87049E-03 2.53742E-02
      822  6.13591E-07 7.14652E-07-2.58489E-05 0.00000E+00 0.00000E+00 0.00000E+00 0.00000E+00 0.00000E+00 0.00000E+00 7.25351E-03 7.24451E-03 2.53742E-02
      823  3.33993E-07 9.13952E-07-2.58489E-05 0.00000E+00 0.00000E+00 0.00000E+00 0.00000E+00 0.00000E+00 0.00000E+00 3.87963E-03 9.48921E-03 2.53742E-02
      824  0.00000E+00 9.78374E-07-2.58489E-05 0.00000E+00 0.00000E+00 0.00000E+00 0.00000E+00 0.00000E+00 0.00000E+00 6.27700E-19 1.02517E-02 2.53742E-02
      850  8.90752E-07 4.37354E-07-2.58489E-05 0.00000E+00 0.00000E+00 0.00000E+00 0.00000E+00 0.00000E+00 0.00000E+00 1.17719E-02 4.76854E-03 2.53742E-02
      852  6.94625E-07 8.18939E-07-2.58489E-05 0.00000E+00 0.00000E+00 0.00000E+00 0.00000E+00 0.00000E+00 0.00000E+00 8.98899E-03 8.97302E-03 2.53742E-02
      854  3.95624E-07 1.11567E-06-2.58489E-05 0.00000E+00 0.00000E+00 0.00000E+00 0.00000E+00 0.00000E+00 0.00000E+00 4.78410E-03 1.17657E-02 2.53742E-02
      856  0.00000E+00 1.23321E-06-2.58489E-05 0.00000E+00 0.00000E+00 0.00000E+00 0.00000E+00 0.00000E+00 0.00000E+00 7.77700E-19 1.27012E-02 2.53742E-02



 n o d a l   p r i n t   o u t   f o r   t i m e  s t e p     297                              ( at time 2.4583610E+00 )

 nodal point  x-disp     y-disp      z-disp      x-vel       y-vel       z-vel      x-accl      y-accl      z-accl      x-coor      y-coor      z-coor
        1  1.32812E-05 0.00000E+00 0.00000E+00 0.00000E+00 0.00000E+00 0.00000E+00 0.00000E+00 0.00000E+00 0.00000E+00 3.18828E-03 0.00000E+00-1.78000E-18
        2  8.84251E-06 0.00000E+00 0.00000E+00 0.00000E+00 0.00000E+00 0.00000E+00 0.00000E+00 0.00000E+00 0.00000E+00 2.39014E-03 0.00000E+00 0.00000E+00
        3  5.87666E-06 0.00000E+00 0.00000E+00 0.00000E+00 0.00000E+00 0.00000E+00 0.00000E+00 0.00000E+00 0.00000E+00 1.59338E-03 0.00000E+00 0.00000E+00
        4  3.11250E-06 0.00000E+00 0.00000E+00 0.00000E+00 0.00000E+00 0.00000E+00 0.00000E+00 0.00000E+00 0.00000E+00 7.96862E-04 0.00000E+00 0.00000E+00
        5  0.00000E+00 0.00000E+00 0.00000E+00 0.00000E+00 0.00000E+00 0.00000E+00 0.00000E+00 0.00000E+00 0.00000E+00 0.00000E+00 0.00000E+00 0.00000E+00
        6  0.00000E+00 2.54106E-06 0.00000E+00 0.00000E+00 0.00000E+00 0.00000E+00 0.00000E+00 0.00000E+00 0.00000E+00 4.86000E-20 7.96291E-04 0.00000E+00
        7  0.00000E+00 5.82593E-06 0.00000E+00 0.00000E+00 0.00000E+00 0.00000E+00 0.00000E+00 0.00000E+00 0.00000E+00 9.72100E-20 1.59333E-03 0.00000E+00
        8  0.00000E+00 1.04348E-05 0.00000E+00 0.00000E+00 0.00000E+00 0.00000E+00 0.00000E+00 0.00000E+00 0.00000E+00 1.45800E-19 2.39173E-03 0.00000E+00
        9  0.00000E+00 1.56953E-05 0.00000E+00 0.00000E+00 0.00000E+00 0.00000E+00 0.00000E+00 0.00000E+00 0.00000E+00 1.94400E-19 3.19070E-03 0.00000E+00
       10  7.01022E-06 1.51180E-05 0.00000E+00 0.00000E+00 0.00000E+00 0.00000E+00 0.00000E+00 0.00000E+00 0.00000E+00 1.22201E-03 2.94842E-03 0.00000E+00
       11  1.43515E-05 1.47002E-05 0.00000E+00 0.00000E+00 0.00000E+00 0.00000E+00 0.00000E+00 0.00000E+00 0.00000E+00 2.25945E-03 2.25980E-03 0.00000E+00
       12  1.69232E-05 8.42360E-06 0.00000E+00 0.00000E+00 0.00000E+00 0.00000E+00 0.00000E+00 0.00000E+00 0.00000E+00 2.95022E-03 1.22342E-03 0.00000E+00
       13  8.66167E-06 8.46470E-06 0.00000E+00 0.00000E+00 0.00000E+00 0.00000E+00 0.00000E+00 0.00000E+00 0.00000E+00 1.31696E-03 1.36036E-03 0.00000E+00
       14  8.80998E-06 4.49418E-06 0.00000E+00 0.00000E+00 0.00000E+00 0.00000E+00 0.00000E+00 0.00000E+00 0.00000E+00 1.49711E-03 7.11471E-04 0.00000E+00
       15  4.10054E-06 6.16041E-06 0.00000E+00 0.00000E+00 0.00000E+00 0.00000E+00 0.00000E+00 0.00000E+00 0.00000E+00 6.73611E-04 1.51316E-03 0.00000E+00
       16  4.31034E-06 2.91839E-06 0.00000E+00 0.00000E+00 0.00000E+00 0.00000E+00 0.00000E+00 0.00000E+00 0.00000E+00 7.57948E-04 7.85256E-04 0.00000E+00
       17  1.20519E-05 1.07331E-05 0.00000E+00 0.00000E+00 0.00000E+00 0.00000E+00 0.00000E+00 0.00000E+00 0.00000E+00 1.74835E-03 1.77823E-03 0.00000E+00
       18  5.65897E-06 1.00897E-05 0.00000E+00 0.00000E+00 0.00000E+00 0.00000E+00 0.00000E+00 0.00000E+00 0.00000E+00 9.25790E-04 2.20119E-03 0.00000E+00
       19  1.29868E-05 5.58512E-06 0.00000E+00 0.00000E+00 0.00000E+00 0.00000E+00 0.00000E+00 0.00000E+00 0.00000E+00 2.17629E-03 9.56444E-04 0.00000E+00
       26  1.15866E-05 4.65400E-06-2.28221E-05 0.00000E+00 0.00000E+00 0.00000E+00 0.00000E+00 0.00000E+00 0.00000E+00 3.16189E-03 1.31625E-03 1.86448E-03
       27  8.20129E-06 7.86741E-06-2.18723E-05 0.00000E+00 0.00000E+00 0.00000E+00 0.00000E+00 0.00000E+00 0.00000E+00 2.42870E-03 2.43147E-03 1.91513E-03
       54  3.98876E-06 9.03263E-06-2.15298E-05 0.00000E+00 0.00000E+00 0.00000E+00 0.00000E+00 0.00000E+00 0.00000E+00 1.31159E-03 3.16383E-03 1.87607E-03
      127  1.10856E-05 0.00000E+00-2.42508E-05 0.00000E+00 0.00000E+00 0.00000E+00 0.00000E+00 0.00000E+00 0.00000E+00 3.39769E-03 0.00000E+00 1.75895E-03
      165  0.00000E+00 1.00501E-05-2.04056E-05 0.00000E+00 0.00000E+00 0.00000E+00 0.00000E+00 0.00000E+00 0.00000E+00 2.39400E-19 3.39675E-03 1.76349E-03
      220  0.00000E+00 1.52335E-06-4.91672E-05 0.00000E+00 0.00000E+00 0.00000E+00 0.00000E+00 0.00000E+00 0.00000E+00 2.13900E-19 3.49402E-03 2.53508E-02
      221  1.31072E-07 1.00815E-06-4.91672E-05 0.00000E+00 0.00000E+00 0.00000E+00 0.00000E+00 0.00000E+00 0.00000E+00 1.47263E-03 3.31541E-03 2.53508E-02
      222  4.62960E-08 1.08330E-06-4.91672E-05 0.00000E+00 0.00000E+00 0.00000E+00 0.00000E+00 0.00000E+00 0.00000E+00 2.02385E-03 4.82028E-03 2.53508E-02
      223  0.00000E+00 2.24128E-06-4.91672E-05 0.00000E+00 0.00000E+00 0.00000E+00 0.00000E+00 0.00000E+00 0.00000E+00 3.20800E-19 5.24104E-03 2.53508E-02
      248  1.85527E-07 1.32998E-06-4.91672E-05 0.00000E+00 0.00000E+00 0.00000E+00 0.00000E+00 0.00000E+00 0.00000E+00 2.67359E-03 6.45453E-03 2.53508E-02
      249  0.00000E+00 2.74385E-06-4.91672E-05 0.00000E+00 0.00000E+00 0.00000E+00 0.00000E+00 0.00000E+00 0.00000E+00 4.27700E-19 6.98774E-03 2.53508E-02
      286 -2.52701E-08 1.00139E-06-4.91672E-05 0.00000E+00 0.00000E+00 0.00000E+00 0.00000E+00 0.00000E+00 0.00000E+00 3.27327E-03 1.55580E-03 2.53508E-02
      287  3.06876E-07 8.38232E-07-4.91672E-05 0.00000E+00 0.00000E+00 0.00000E+00 0.00000E+00 0.00000E+00 0.00000E+00 2.87801E-03 2.97424E-03 2.53508E-02
      288 -5.81406E-08 1.01691E-06-4.91672E-05 0.00000E+00 0.00000E+00 0.00000E+00 0.00000E+00 0.00000E+00 0.00000E+00 1.65764E-03 1.72182E-03 2.53508E-02
      301  1.76215E-07 1.32054E-06-4.91672E-05 0.00000E+00 0.00000E+00 0.00000E+00 0.00000E+00 0.00000E+00 0.00000E+00 3.81948E-03 3.88902E-03 2.53508E-02
      314  5.26347E-07 1.46302E-06-4.91672E-05 0.00000E+00 0.00000E+00 0.00000E+00 0.00000E+00 0.00000E+00 0.00000E+00 4.93963E-03 4.94056E-03 2.53508E-02
      363  2.18580E-07 1.32609E-06-4.91672E-05 0.00000E+00 0.00000E+00 0.00000E+00 0.00000E+00 0.00000E+00 0.00000E+00 6.45362E-03 2.67423E-03 2.53508E-02
      364 -1.25451E-07 1.46143E-06-4.91672E-05 0.00000E+00 0.00000E+00 0.00000E+00 0.00000E+00 0.00000E+00 0.00000E+00 4.75797E-03 2.09266E-03 2.53508E-02
      365  1.44404E-06 0.00000E+00-4.91672E-05 0.00000E+00 0.00000E+00 0.00000E+00 0.00000E+00 0.00000E+00 0.00000E+00 5.24024E-03 0.00000E+00 2.53508E-02
      366  1.15443E-06 0.00000E+00-4.91672E-05 0.00000E+00 0.00000E+00 0.00000E+00 0.00000E+00 0.00000E+00 0.00000E+00 6.98615E-03 0.00000E+00 2.53508E-02
      379  0.00000E+00 1.14061E-06-4.91672E-05 0.00000E+00 0.00000E+00 0.00000E+00 0.00000E+00 0.00000E+00 0.00000E+00 1.06900E-19 1.74744E-03 2.53508E-02
      404  1.40438E-06 0.00000E+00-4.91672E-05 0.00000E+00 0.00000E+00 0.00000E+00 0.00000E+00 0.00000E+00 0.00000E+00 1.74770E-03 0.00000E+00 2.53508E-02
      405  0.00000E+00 0.00000E+00-4.91672E-05 0.00000E+00 0.00000E+00 0.00000E+00 0.00000E+00 0.00000E+00 0.00000E+00 0.00000E+00 0.00000E+00 2.53508E-02
      418  1.81398E-06 0.00000E+00-4.91672E-05 0.00000E+00 0.00000E+00 0.00000E+00 0.00000E+00 0.00000E+00 0.00000E+00 3.49431E-03 0.00000E+00 2.53508E-02
      438  2.21508E-07 0.00000E+00-4.91672E-05 0.00000E+00 0.00000E+00 0.00000E+00 0.00000E+00 0.00000E+00 0.00000E+00 1.27002E-02 0.00000E+00 2.53508E-02
      439  3.82640E-07 0.00000E+00-4.91672E-05 0.00000E+00 0.00000E+00 0.00000E+00 0.00000E+00 0.00000E+00 0.00000E+00 1.18840E-02 0.00000E+00 2.53508E-02
      440  4.11375E-07 0.00000E+00-4.91672E-05 0.00000E+00 0.00000E+00 0.00000E+00 0.00000E+00 0.00000E+00 0.00000E+00 1.10675E-02 0.00000E+00 2.53508E-02
      441  4.40746E-07 0.00000E+00-4.91672E-05 0.00000E+00 0.00000E+00 0.00000E+00 0.00000E+00 0.00000E+00 0.00000E+00 1.02511E-02 0.00000E+00 2.53508E-02
      442  4.72578E-07 0.00000E+00-4.91672E-05 0.00000E+00 0.00000E+00 0.00000E+00 0.00000E+00 0.00000E+00 0.00000E+00 9.43477E-03 0.00000E+00 2.53508E-02
      443  5.34721E-07 0.00000E+00-4.91672E-05 0.00000E+00 0.00000E+00 0.00000E+00 0.00000E+00 0.00000E+00 0.00000E+00 8.61843E-03 0.00000E+00 2.53508E-02
      444  6.75618E-07 0.00000E+00-4.91672E-05 0.00000E+00 0.00000E+00 0.00000E+00 0.00000E+00 0.00000E+00 0.00000E+00 7.80208E-03 0.00000E+00 2.53508E-02
      591  4.97100E-07 1.44861E-06-4.91672E-05 0.00000E+00 0.00000E+00 0.00000E+00 0.00000E+00 0.00000E+00 0.00000E+00 7.97320E-03 3.27295E-03 2.53508E-02
      592  5.44593E-07 1.45565E-06-4.91672E-05 0.00000E+00 0.00000E+00 0.00000E+00 0.00000E+00 0.00000E+00 0.00000E+00 8.73284E-03 3.57226E-03 2.53508E-02
      595  5.04758E-07 1.31252E-06-4.91672E-05 0.00000E+00 0.00000E+00 0.00000E+00 0.00000E+00 0.00000E+00 0.00000E+00 6.09650E-03 6.09281E-03 2.53508E-02
      596  5.77594E-07 1.28969E-06-4.91672E-05 0.00000E+00 0.00000E+00 0.00000E+00 0.00000E+00 0.00000E+00 0.00000E+00 6.67508E-03 6.66889E-03 2.53508E-02
      599  3.45230E-07 1.44219E-06-4.91672E-05 0.00000E+00 0.00000E+00 0.00000E+00 0.00000E+00 0.00000E+00 0.00000E+00 3.27665E-03 7.97214E-03 2.53508E-02
      600  3.99113E-07 1.43059E-06-4.91672E-05 0.00000E+00 0.00000E+00 0.00000E+00 0.00000E+00 0.00000E+00 0.00000E+00 3.57820E-03 8.73093E-03 2.53508E-02
      603  0.00000E+00 2.18045E-06-4.91672E-05 0.00000E+00 0.00000E+00 0.00000E+00 0.00000E+00 0.00000E+00 0.00000E+00 5.27700E-19 8.62008E-03 2.53508E-02
      604  0.00000E+00 2.04892E-06-4.91672E-05 0.00000E+00 0.00000E+00 0.00000E+00 0.00000E+00 0.00000E+00 0.00000E+00 5.77700E-19 9.43635E-03 2.53508E-02
      638  6.71846E-07 1.45569E-06-4.91672E-05 0.00000E+00 0.00000E+00 0.00000E+00 0.00000E+00 0.00000E+00 0.00000E+00 1.02524E-02 4.17086E-03 2.53508E-02
      639  6.59012E-07 1.40179E-06-4.91672E-05 0.00000E+00 0.00000E+00 0.00000E+00 0.00000E+00 0.00000E+00 0.00000E+00 1.10120E-02 4.47010E-03 2.53508E-02
      641  6.87823E-07 1.23441E-06-4.91672E-05 0.00000E+00 0.00000E+00 0.00000E+00 0.00000E+00 0.00000E+00 0.00000E+00 7.83209E-03 7.82113E-03 2.53508E-02
      642  8.53743E-07 1.32486E-06-4.91672E-05 0.00000E+00 0.00000E+00 0.00000E+00 0.00000E+00 0.00000E+00 0.00000E+00 8.41075E-03 8.39732E-03 2.53508E-02
      644  4.52056E-07 1.40621E-06-4.91672E-05 0.00000E+00 0.00000E+00 0.00000E+00 0.00000E+00 0.00000E+00 0.00000E+00 4.18115E-03 1.02485E-02 2.53508E-02
      645  2.98666E-07 1.16644E-06-4.91672E-05 0.00000E+00 0.00000E+00 0.00000E+00 0.00000E+00 0.00000E+00 0.00000E+00 4.48250E-03 1.10070E-02 2.53508E-02
      647  0.00000E+00 1.98636E-06-4.91672E-05 0.00000E+00 0.00000E+00 0.00000E+00 0.00000E+00 0.00000E+00 0.00000E+00 6.77700E-19 1.10691E-02 2.53508E-02
      648  0.00000E+00 2.49376E-06-4.91672E-05 0.00000E+00 0.00000E+00 0.00000E+00 0.00000E+00 0.00000E+00 0.00000E+00 7.27700E-19 1.18861E-02 2.53508E-02
      674  4.42230E-07 1.44411E-06-4.91672E-05 0.00000E+00 0.00000E+00 0.00000E+00 0.00000E+00 0.00000E+00 0.00000E+00 7.21344E-03 2.97364E-03 2.53508E-02
      676  4.30037E-07 1.33109E-06-4.91672E-05 0.00000E+00 0.00000E+00 0.00000E+00 0.00000E+00 0.00000E+00 0.00000E+00 5.51803E-03 5.51663E-03 2.53508E-02
      678  2.72680E-07 1.43224E-06-4.91672E-05 0.00000E+00 0.00000E+00 0.00000E+00 0.00000E+00 0.00000E+00 0.00000E+00 2.97507E-03 7.21343E-03 2.53508E-02
      680  0.00000E+00 2.41489E-06-4.91672E-05 0.00000E+00 0.00000E+00 0.00000E+00 0.00000E+00 0.00000E+00 0.00000E+00 4.77700E-19 7.80381E-03 2.53508E-02
      821  6.05702E-07 1.46044E-06-4.91672E-05 0.00000E+00 0.00000E+00 0.00000E+00 0.00000E+00 0.00000E+00 0.00000E+00 9.49261E-03 3.87156E-03 2.53508E-02
      822  6.35312E-07 1.25773E-06-4.91672E-05 0.00000E+00 0.00000E+00 0.00000E+00 0.00000E+00 0.00000E+00 0.00000E+00 7.25354E-03 7.24506E-03 2.53508E-02
      823  4.48478E-07 1.43019E-06-4.91672E-05 0.00000E+00 0.00000E+00 0.00000E+00 0.00000E+00 0.00000E+00 0.00000E+00 3.87975E-03 9.48973E-03 2.53508E-02
      824  0.00000E+00 1.94344E-06-4.91672E-05 0.00000E+00 0.00000E+00 0.00000E+00 0.00000E+00 0.00000E+00 0.00000E+00 6.27700E-19 1.02526E-02 2.53508E-02
      850  3.73336E-07 1.26417E-06-4.91672E-05 0.00000E+00 0.00000E+00 0.00000E+00 0.00000E+00 0.00000E+00 0.00000E+00 1.17714E-02 4.76936E-03 2.53508E-02
      852  5.27419E-07 1.25136E-06-4.91672E-05 0.00000E+00 0.00000E+00 0.00000E+00 0.00000E+00 0.00000E+00 0.00000E+00 8.98883E-03 8.97345E-03 2.53508E-02
      854  5.08901E-08 1.43443E-06-4.91672E-05 0.00000E+00 0.00000E+00 0.00000E+00 0.00000E+00 0.00000E+00 0.00000E+00 4.78375E-03 1.17660E-02 2.53508E-02
      856  0.00000E+00 3.59514E-06-4.91672E-05 0.00000E+00 0.00000E+00 0.00000E+00 0.00000E+00 0.00000E+00 0.00000E+00 7.77700E-19 1.27036E-02 2.53508E-02



 n o d a l   p r i n t   o u t   f o r   t i m e  s t e p     303                              ( at time 3.3822859E+00 )

 nodal point  x-disp     y-disp      z-disp      x-vel       y-vel       z-vel      x-accl      y-accl      z-accl      x-coor      y-coor      z-coor
        1  2.49431E-05 0.00000E+00 0.00000E+00 0.00000E+00 0.00000E+00 0.00000E+00 0.00000E+00 0.00000E+00 0.00000E+00 3.19994E-03 0.00000E+00-1.78000E-18
        2  1.73111E-05 0.00000E+00 0.00000E+00 0.00000E+00 0.00000E+00 0.00000E+00 0.00000E+00 0.00000E+00 0.00000E+00 2.39861E-03 0.00000E+00 0.00000E+00
        3  1.16111E-05 0.00000E+00 0.00000E+00 0.00000E+00 0.00000E+00 0.00000E+00 0.00000E+00 0.00000E+00 0.00000E+00 1.59911E-03 0.00000E+00 0.00000E+00
        4  6.02133E-06 0.00000E+00 0.00000E+00 0.00000E+00 0.00000E+00 0.00000E+00 0.00000E+00 0.00000E+00 0.00000E+00 7.99771E-04 0.00000E+00 0.00000E+00
        5  0.00000E+00 0.00000E+00 0.00000E+00 0.00000E+00 0.00000E+00 0.00000E+00 0.00000E+00 0.00000E+00 0.00000E+00 0.00000E+00 0.00000E+00 0.00000E+00
        6  0.00000E+00 5.50117E-06 0.00000E+00 0.00000E+00 0.00000E+00 0.00000E+00 0.00000E+00 0.00000E+00 0.00000E+00 4.86000E-20 7.99251E-04 0.00000E+00
        7  0.00000E+00 1.17410E-05 0.00000E+00 0.00000E+00 0.00000E+00 0.00000E+00 0.00000E+00 0.00000E+00 0.00000E+00 9.72100E-20 1.59924E-03 0.00000E+00
        8  0.00000E+00 1.93482E-05 0.00000E+00 0.00000E+00 0.00000E+00 0.00000E+00 0.00000E+00 0.00000E+00 0.00000E+00 1.45800E-19 2.40065E-03 0.00000E+00
        9  0.00000E+00 2.75455E-05 0.00000E+00 0.00000E+00 0.00000E+00 0.00000E+00 0.00000E+00 0.00000E+00 0.00000E+00 1.94400E-19 3.20255E-03 0.00000E+00
       10  1.20850E-05 2.65013E-05 0.00000E+00 0.00000E+00 0.00000E+00 0.00000E+00 0.00000E+00 0.00000E+00 0.00000E+00 1.22708E-03 2.95980E-03 0.00000E+00
       11  2.36625E-05 2.40467E-05 0.00000E+00 0.00000E+00 0.00000E+00 0.00000E+00 0.00000E+00 0.00000E+00 0.00000E+00 2.26876E-03 2.26915E-03 0.00000E+00
       12  2.87892E-05 1.38571E-05 0.00000E+00 0.00000E+00 0.00000E+00 0.00000E+00 0.00000E+00 0.00000E+00 0.00000E+00 2.96209E-03 1.22886E-03 0.00000E+00
       13  1.48525E-05 1.45217E-05 0.00000E+00 0.00000E+00 0.00000E+00 0.00000E+00 0.00000E+00 0.00000E+00 0.00000E+00 1.32315E-03 1.36642E-03 0.00000E+00
       14  1.54968E-05 7.93598E-06 0.00000E+00 0.00000E+00 0.00000E+00 0.00000E+00 0.00000E+00 0.00000E+00 0.00000E+00 1.50380E-03 7.14913E-04 0.00000E+00
       15  7.27289E-06 1.21330E-05 0.00000E+00 0.00000E+00 0.00000E+00 0.00000E+00 0.00000E+00 0.00000E+00 0.00000E+00 6.76783E-04 1.51913E-03 0.00000E+00
       16  7.63810E-06 6.12551E-06 0.00000E+00 0.00000E+00 0.00000E+00 0.00000E+00 0.00000E+00 0.00000E+00 0.00000E+00 7.61276E-04 7.88463E-04 0.00000E+00
       17  2.00096E-05 1.83086E-05 0.00000E+00 0.00000E+00 0.00000E+00 0.00000E+00 0.00000E+00 0.00000E+00 0.00000E+00 1.75631E-03 1.78581E-03 0.00000E+00
       18  9.80670E-06 1.86837E-05 0.00000E+00 0.00000E+00 0.00000E+00 0.00000E+00 0.00000E+00 0.00000E+00 0.00000E+00 9.29937E-04 2.20978E-03 0.00000E+00
       19  2.24549E-05 9.77295E-06 0.00000E+00 0.00000E+00 0.00000E+00 0.00000E+00 0.00000E+00 0.00000E+00 0.00000E+00 2.18575E-03 9.60632E-04 0.00000E+00
       26  1.98831E-05 7.76600E-06-3.51826E-05 0.00000E+00 0.00000E+00 0.00000E+00 0.00000E+00 0.00000E+00 0.00000E+00 3.17018E-03 1.31937E-03 1.85212E-03
       27  1.42952E-05 1.36859E-05-3.38214E-05 0.00000E+00 0.00000E+00 0.00000E+00 0.00000E+00 0.00000E+00 0.00000E+00 2.43480E-03 2.43729E-03 1.90318E-03
       54  7.20705E-06 1.62430E-05-3.37715E-05 0.00000E+00 0.00000E+00 0.00000E+00 0.00000E+00 0.00000E+00 0.00000E+00 1.31481E-03 3.17104E-03 1.86383E-03
      127  2.04021E-05 0.00000E+00-3.74948E-05 0.00000E+00 0.00000E+00 0.00000E+00 0.00000E+00 0.00000E+00 0.00000E+00 3.40700E-03 0.00000E+00 1.74571E-03
      165  0.00000E+00 1.82604E-05-3.21994E-05 0.00000E+00 0.00000E+00 0.00000E+00 0.00000E+00 0.00000E+00 0.00000E+00 2.39400E-19 3.40496E-03 1.75170E-03
      220  0.00000E+00 1.61801E-06-6.76457E-05 0.00000E+00 0.00000E+00 0.00000E+00 0.00000E+00 0.00000E+00 0.00000E+00 2.13900E-19 3.49412E-03 2.53324E-02
      221  1.18310E-07 1.07762E-06-6.76457E-05 0.00000E+00 0.00000E+00 0.00000E+00 0.00000E+00 0.00000E+00 0.00000E+00 1.47262E-03 3.31548E-03 2.53324E-02
      222  3.03074E-08 1.13989E-06-6.76457E-05 0.00000E+00 0.00000E+00 0.00000E+00 0.00000E+00 0.00000E+00 0.00000E+00 2.02383E-03 4.82034E-03 2.53324E-02
      223  0.00000E+00 2.40994E-06-6.76457E-05 0.00000E+00 0.00000E+00 0.00000E+00 0.00000E+00 0.00000E+00 0.00000E+00 3.20800E-19 5.24121E-03 2.53324E-02
      248  1.67002E-07 1.41158E-06-6.76457E-05 0.00000E+00 0.00000E+00 0.00000E+00 0.00000E+00 0.00000E+00 0.00000E+00 2.67357E-03 6.45461E-03 2.53324E-02
      249  0.00000E+00 2.93701E-06-6.76457E-05 0.00000E+00 0.00000E+00 0.00000E+00 0.00000E+00 0.00000E+00 0.00000E+00 4.27700E-19 6.98794E-03 2.53324E-02
      286 -1.12505E-07 1.02440E-06-6.76457E-05 0.00000E+00 0.00000E+00 0.00000E+00 0.00000E+00 0.00000E+00 0.00000E+00 3.27319E-03 1.55582E-03 2.53324E-02
      287  2.75525E-07 8.71837E-07-6.76457E-05 0.00000E+00 0.00000E+00 0.00000E+00 0.00000E+00 0.00000E+00 0.00000E+00 2.87798E-03 2.97427E-03 2.53324E-02
      288 -9.73941E-08 9.97262E-07-6.76457E-05 0.00000E+00 0.00000E+00 0.00000E+00 0.00000E+00 0.00000E+00 0.00000E+00 1.65760E-03 1.72180E-03 2.53324E-02
      301  1.60916E-07 1.44348E-06-6.76457E-05 0.00000E+00 0.00000E+00 0.00000E+00 0.00000E+00 0.00000E+00 0.00000E+00 3.81946E-03 3.88914E-03 2.53324E-02
      314  5.19586E-07 1.59817E-06-6.76457E-05 0.00000E+00 0.00000E+00 0.00000E+00 0.00000E+00 0.00000E+00 0.00000E+00 4.93962E-03 4.94070E-03 2.53324E-02
      363  1.75241E-07 1.45409E-06-6.76457E-05 0.00000E+00 0.00000E+00 0.00000E+00 0.00000E+00 0.00000E+00 0.00000E+00 6.45358E-03 2.67435E-03 2.53324E-02
      364 -2.00263E-07 1.51900E-06-6.76457E-05 0.00000E+00 0.00000E+00 0.00000E+00 0.00000E+00 0.00000E+00 0.00000E+00 4.75790E-03 2.09272E-03 2.53324E-02
      365  1.53153E-06 0.00000E+00-6.76457E-05 0.00000E+00 0.00000E+00 0.00000E+00 0.00000E+00 0.00000E+00 0.00000E+00 5.24033E-03 0.00000E+00 2.53324E-02
      366  1.23346E-06 0.00000E+00-6.76457E-05 0.00000E+00 0.00000E+00 0.00000E+00 0.00000E+00 0.00000E+00 0.00000E+00 6.98623E-03 0.00000E+00 2.53324E-02
      379  0.00000E+00 1.12325E-06-6.76457E-05 0.00000E+00 0.00000E+00 0.00000E+00 0.00000E+00 0.00000E+00 0.00000E+00 1.06900E-19 1.74742E-03 2.53324E-02
      404  1.40113E-06 0.00000E+00-6.76457E-05 0.00000E+00 0.00000E+00 0.00000E+00 0.00000E+00 0.00000E+00 0.00000E+00 1.74770E-03 0.00000E+00 2.53324E-02
      405  0.00000E+00 0.00000E+00-6.76457E-05 0.00000E+00 0.00000E+00 0.00000E+00 0.00000E+00 0.00000E+00 0.00000E+00 0.00000E+00 0.00000E+00 2.53324E-02
      418  1.92793E-06 0.00000E+00-6.76457E-05 0.00000E+00 0.00000E+00 0.00000E+00 0.00000E+00 0.00000E+00 0.00000E+00 3.49443E-03 0.00000E+00 2.53324E-02
      438  1.86160E-07 0.00000E+00-6.76457E-05 0.00000E+00 0.00000E+00 0.00000E+00 0.00000E+00 0.00000E+00 0.00000E+00 1.27002E-02 0.00000E+00 2.53324E-02
      439  3.57024E-07 0.00000E+00-6.76457E-05 0.00000E+00 0.00000E+00 0.00000E+00 0.00000E+00 0.00000E+00 0.00000E+00 1.18840E-02 0.00000E+00 2.53324E-02
      440  3.85889E-07 0.00000E+00-6.76457E-05 0.00000E+00 0.00000E+00 0.00000E+00 0.00000E+00 0.00000E+00 0.00000E+00 1.10675E-02 0.00000E+00 2.53324E-02
      441  4.22421E-07 0.00000E+00-6.76457E-05 0.00000E+00 0.00000E+00 0.00000E+00 0.00000E+00 0.00000E+00 0.00000E+00 1.02511E-02 0.00000E+00 2.53324E-02
      442  4.64415E-07 0.00000E+00-6.76457E-05 0.00000E+00 0.00000E+00 0.00000E+00 0.00000E+00 0.00000E+00 0.00000E+00 9.43476E-03 0.00000E+00 2.53324E-02
      443  5.36122E-07 0.00000E+00-6.76457E-05 0.00000E+00 0.00000E+00 0.00000E+00 0.00000E+00 0.00000E+00 0.00000E+00 8.61844E-03 0.00000E+00 2.53324E-02
      444  6.83768E-07 0.00000E+00-6.76457E-05 0.00000E+00 0.00000E+00 0.00000E+00 0.00000E+00 0.00000E+00 0.00000E+00 7.80208E-03 0.00000E+00 2.53324E-02
      591  4.80581E-07 1.57951E-06-6.76457E-05 0.00000E+00 0.00000E+00 0.00000E+00 0.00000E+00 0.00000E+00 0.00000E+00 7.97318E-03 3.27308E-03 2.53324E-02
      592  5.25891E-07 1.57379E-06-6.76457E-05 0.00000E+00 0.00000E+00 0.00000E+00 0.00000E+00 0.00000E+00 0.00000E+00 8.73283E-03 3.57237E-03 2.53324E-02
      595  4.98784E-07 1.41878E-06-6.76457E-05 0.00000E+00 0.00000E+00 0.00000E+00 0.00000E+00 0.00000E+00 0.00000E+00 6.09650E-03 6.09292E-03 2.53324E-02
      596  5.73491E-07 1.38756E-06-6.76457E-05 0.00000E+00 0.00000E+00 0.00000E+00 0.00000E+00 0.00000E+00 0.00000E+00 6.67507E-03 6.66899E-03 2.53324E-02
      599  3.49781E-07 1.53302E-06-6.76457E-05 0.00000E+00 0.00000E+00 0.00000E+00 0.00000E+00 0.00000E+00 0.00000E+00 3.27665E-03 7.97223E-03 2.53324E-02
      600  4.05082E-07 1.51914E-06-6.76457E-05 0.00000E+00 0.00000E+00 0.00000E+00 0.00000E+00 0.00000E+00 0.00000E+00 3.57821E-03 8.73102E-03 2.53324E-02
      603  0.00000E+00 2.30190E-06-6.76457E-05 0.00000E+00 0.00000E+00 0.00000E+00 0.00000E+00 0.00000E+00 0.00000E+00 5.27700E-19 8.62020E-03 2.53324E-02
      604  0.00000E+00 2.15800E-06-6.76457E-05 0.00000E+00 0.00000E+00 0.00000E+00 0.00000E+00 0.00000E+00 0.00000E+00 5.77700E-19 9.43646E-03 2.53324E-02
      638  6.48303E-07 1.57005E-06-6.76457E-05 0.00000E+00 0.00000E+00 0.00000E+00 0.00000E+00 0.00000E+00 0.00000E+00 1.02523E-02 4.17097E-03 2.53324E-02
      639  6.33520E-07 1.51125E-06-6.76457E-05 0.00000E+00 0.00000E+00 0.00000E+00 0.00000E+00 0.00000E+00 0.00000E+00 1.10119E-02 4.47021E-03 2.53324E-02
      641  6.97144E-07 1.32264E-06-6.76457E-05 0.00000E+00 0.00000E+00 0.00000E+00 0.00000E+00 0.00000E+00 0.00000E+00 7.83210E-03 7.82122E-03 2.53324E-02
      642  8.62998E-07 1.41018E-06-6.76457E-05 0.00000E+00 0.00000E+00 0.00000E+00 0.00000E+00 0.00000E+00 0.00000E+00 8.41076E-03 8.39741E-03 2.53324E-02
      644  4.55334E-07 1.47861E-06-6.76457E-05 0.00000E+00 0.00000E+00 0.00000E+00 0.00000E+00 0.00000E+00 0.00000E+00 4.18116E-03 1.02486E-02 2.53324E-02
      645  2.97848E-07 1.25482E-06-6.76457E-05 0.00000E+00 0.00000E+00 0.00000E+00 0.00000E+00 0.00000E+00 0.00000E+00 4.48250E-03 1.10071E-02 2.53324E-02
      647  0.00000E+00 2.12108E-06-6.76457E-05 0.00000E+00 0.00000E+00 0.00000E+00 0.00000E+00 0.00000E+00 0.00000E+00 6.77700E-19 1.10692E-02 2.53324E-02
      648  0.00000E+00 2.63630E-06-6.76457E-05 0.00000E+00 0.00000E+00 0.00000E+00 0.00000E+00 0.00000E+00 0.00000E+00 7.27700E-19 1.18862E-02 2.53324E-02
      674  4.26712E-07 1.57450E-06-6.76457E-05 0.00000E+00 0.00000E+00 0.00000E+00 0.00000E+00 0.00000E+00 0.00000E+00 7.21343E-03 2.97377E-03 2.53324E-02
      676  4.22690E-07 1.45422E-06-6.76457E-05 0.00000E+00 0.00000E+00 0.00000E+00 0.00000E+00 0.00000E+00 0.00000E+00 5.51802E-03 5.51675E-03 2.53324E-02
      678  2.70142E-07 1.52576E-06-6.76457E-05 0.00000E+00 0.00000E+00 0.00000E+00 0.00000E+00 0.00000E+00 0.00000E+00 2.97507E-03 7.21353E-03 2.53324E-02
      680  0.00000E+00 2.56277E-06-6.76457E-05 0.00000E+00 0.00000E+00 0.00000E+00 0.00000E+00 0.00000E+00 0.00000E+00 4.77700E-19 7.80396E-03 2.53324E-02
      821  5.81414E-07 1.57596E-06-6.76457E-05 0.00000E+00 0.00000E+00 0.00000E+00 0.00000E+00 0.00000E+00 0.00000E+00 9.49258E-03 3.87168E-03 2.53324E-02
      822  6.41551E-07 1.35337E-06-6.76457E-05 0.00000E+00 0.00000E+00 0.00000E+00 0.00000E+00 0.00000E+00 0.00000E+00 7.25354E-03 7.24515E-03 2.53324E-02
      823  4.55982E-07 1.50862E-06-6.76457E-05 0.00000E+00 0.00000E+00 0.00000E+00 0.00000E+00 0.00000E+00 0.00000E+00 3.87976E-03 9.48981E-03 2.53324E-02
      824  0.00000E+00 2.05591E-06-6.76457E-05 0.00000E+00 0.00000E+00 0.00000E+00 0.00000E+00 0.00000E+00 0.00000E+00 6.27700E-19 1.02528E-02 2.53324E-02
      850  3.39364E-07 1.35900E-06-6.76457E-05 0.00000E+00 0.00000E+00 0.00000E+00 0.00000E+00 0.00000E+00 0.00000E+00 1.17713E-02 4.76946E-03 2.53324E-02
      852  4.86685E-07 1.30127E-06-6.76457E-05 0.00000E+00 0.00000E+00 0.00000E+00 0.00000E+00 0.00000E+00 0.00000E+00 8.98879E-03 8.97350E-03 2.53324E-02
      854  7.97892E-08 1.59062E-06-6.76457E-05 0.00000E+00 0.00000E+00 0.00000E+00 0.00000E+00 0.00000E+00 0.00000E+00 4.78378E-03 1.17662E-02 2.53324E-02
      856  0.00000E+00 3.72601E-06-6.76457E-05 0.00000E+00 0.00000E+00 0.00000E+00 0.00000E+00 0.00000E+00 0.00000E+00 7.77700E-19 1.27037E-02 2.53324E-02



 n o d a l   p r i n t   o u t   f o r   t i m e  s t e p     309                              ( at time 4.8466082E+00 )

 nodal point  x-disp     y-disp      z-disp      x-vel       y-vel       z-vel      x-accl      y-accl      z-accl      x-coor      y-coor      z-coor
        1  4.23271E-05 0.00000E+00 0.00000E+00 0.00000E+00 0.00000E+00 0.00000E+00 0.00000E+00 0.00000E+00 0.00000E+00 3.21733E-03 0.00000E+00-1.78000E-18
        2  2.96436E-05 0.00000E+00 0.00000E+00 0.00000E+00 0.00000E+00 0.00000E+00 0.00000E+00 0.00000E+00 0.00000E+00 2.41094E-03 0.00000E+00 0.00000E+00
        3  1.98814E-05 0.00000E+00 0.00000E+00 0.00000E+00 0.00000E+00 0.00000E+00 0.00000E+00 0.00000E+00 0.00000E+00 1.60738E-03 0.00000E+00 0.00000E+00
        4  1.02950E-05 0.00000E+00 0.00000E+00 0.00000E+00 0.00000E+00 0.00000E+00 0.00000E+00 0.00000E+00 0.00000E+00 8.04045E-04 0.00000E+00 0.00000E+00
        5  0.00000E+00 0.00000E+00 0.00000E+00 0.00000E+00 0.00000E+00 0.00000E+00 0.00000E+00 0.00000E+00 0.00000E+00 0.00000E+00 0.00000E+00 0.00000E+00
        6  0.00000E+00 9.87940E-06 0.00000E+00 0.00000E+00 0.00000E+00 0.00000E+00 0.00000E+00 0.00000E+00 0.00000E+00 4.86000E-20 8.03629E-04 0.00000E+00
        7  0.00000E+00 2.04735E-05 0.00000E+00 0.00000E+00 0.00000E+00 0.00000E+00 0.00000E+00 0.00000E+00 0.00000E+00 9.72100E-20 1.60797E-03 0.00000E+00
        8  0.00000E+00 3.26145E-05 0.00000E+00 0.00000E+00 0.00000E+00 0.00000E+00 0.00000E+00 0.00000E+00 0.00000E+00 1.45800E-19 2.41391E-03 0.00000E+00
        9  0.00000E+00 4.55275E-05 0.00000E+00 0.00000E+00 0.00000E+00 0.00000E+00 0.00000E+00 0.00000E+00 0.00000E+00 1.94400E-19 3.22053E-03 0.00000E+00
       10  1.99041E-05 4.36248E-05 0.00000E+00 0.00000E+00 0.00000E+00 0.00000E+00 0.00000E+00 0.00000E+00 0.00000E+00 1.23490E-03 2.97692E-03 0.00000E+00
       11  3.75300E-05 3.76048E-05 0.00000E+00 0.00000E+00 0.00000E+00 0.00000E+00 0.00000E+00 0.00000E+00 0.00000E+00 2.28263E-03 2.28270E-03 0.00000E+00
       12  4.62763E-05 2.15713E-05 0.00000E+00 0.00000E+00 0.00000E+00 0.00000E+00 0.00000E+00 0.00000E+00 0.00000E+00 2.97958E-03 1.23657E-03 0.00000E+00
       13  2.39023E-05 2.31507E-05 0.00000E+00 0.00000E+00 0.00000E+00 0.00000E+00 0.00000E+00 0.00000E+00 0.00000E+00 1.33220E-03 1.37505E-03 0.00000E+00
       14  2.51710E-05 1.27311E-05 0.00000E+00 0.00000E+00 0.00000E+00 0.00000E+00 0.00000E+00 0.00000E+00 0.00000E+00 1.51347E-03 7.19708E-04 0.00000E+00
       15  1.20017E-05 2.09975E-05 0.00000E+00 0.00000E+00 0.00000E+00 0.00000E+00 0.00000E+00 0.00000E+00 0.00000E+00 6.81512E-04 1.52800E-03 0.00000E+00
       16  1.25591E-05 1.08310E-05 0.00000E+00 0.00000E+00 0.00000E+00 0.00000E+00 0.00000E+00 0.00000E+00 0.00000E+00 7.66197E-04 7.93168E-04 0.00000E+00
       17  3.16096E-05 2.92510E-05 0.00000E+00 0.00000E+00 0.00000E+00 0.00000E+00 0.00000E+00 0.00000E+00 0.00000E+00 1.76791E-03 1.79675E-03 0.00000E+00
       18  1.60118E-05 3.15134E-05 0.00000E+00 0.00000E+00 0.00000E+00 0.00000E+00 0.00000E+00 0.00000E+00 0.00000E+00 9.36143E-04 2.22261E-03 0.00000E+00
       19  3.61203E-05 1.57317E-05 0.00000E+00 0.00000E+00 0.00000E+00 0.00000E+00 0.00000E+00 0.00000E+00 0.00000E+00 2.19942E-03 9.66590E-04 0.00000E+00
       26  3.31867E-05 1.27787E-05-5.43870E-05 0.00000E+00 0.00000E+00 0.00000E+00 0.00000E+00 0.00000E+00 0.00000E+00 3.18349E-03 1.32438E-03 1.83291E-03
       27  2.42620E-05 2.31145E-05-5.27382E-05 0.00000E+00 0.00000E+00 0.00000E+00 0.00000E+00 0.00000E+00 0.00000E+00 2.44476E-03 2.44671E-03 1.88426E-03
       54  1.24716E-05 2.80962E-05-5.32409E-05 0.00000E+00 0.00000E+00 0.00000E+00 0.00000E+00 0.00000E+00 0.00000E+00 1.32007E-03 3.18290E-03 1.84436E-03
      127  3.50974E-05 0.00000E+00-5.77761E-05 0.00000E+00 0.00000E+00 0.00000E+00 0.00000E+00 0.00000E+00 0.00000E+00 3.42170E-03 0.00000E+00 1.72542E-03
      165  0.00000E+00 3.16418E-05-5.10894E-05 0.00000E+00 0.00000E+00 0.00000E+00 0.00000E+00 0.00000E+00 0.00000E+00 2.39400E-19 3.41834E-03 1.73281E-03
      220  0.00000E+00 1.73514E-06-9.69322E-05 0.00000E+00 0.00000E+00 0.00000E+00 0.00000E+00 0.00000E+00 0.00000E+00 2.13900E-19 3.49424E-03 2.53031E-02
      221  1.33535E-07 1.22203E-06-9.69322E-05 0.00000E+00 0.00000E+00 0.00000E+00 0.00000E+00 0.00000E+00 0.00000E+00 1.47263E-03 3.31562E-03 2.53031E-02
      222  3.55231E-08 1.23187E-06-9.69322E-05 0.00000E+00 0.00000E+00 0.00000E+00 0.00000E+00 0.00000E+00 0.00000E+00 2.02384E-03 4.82043E-03 2.53031E-02
      223  0.00000E+00 2.61577E-06-9.69322E-05 0.00000E+00 0.00000E+00 0.00000E+00 0.00000E+00 0.00000E+00 0.00000E+00 3.20800E-19 5.24142E-03 2.53031E-02
      248  1.75532E-07 1.52756E-06-9.69322E-05 0.00000E+00 0.00000E+00 0.00000E+00 0.00000E+00 0.00000E+00 0.00000E+00 2.67358E-03 6.45473E-03 2.53031E-02
      249  0.00000E+00 3.17132E-06-9.69322E-05 0.00000E+00 0.00000E+00 0.00000E+00 0.00000E+00 0.00000E+00 0.00000E+00 4.27700E-19 6.98817E-03 2.53031E-02
      286 -1.75064E-07 1.12368E-06-9.69322E-05 0.00000E+00 0.00000E+00 0.00000E+00 0.00000E+00 0.00000E+00 0.00000E+00 3.27312E-03 1.55592E-03 2.53031E-02
      287  3.12879E-07 8.73400E-07-9.69322E-05 0.00000E+00 0.00000E+00 0.00000E+00 0.00000E+00 0.00000E+00 0.00000E+00 2.87801E-03 2.97427E-03 2.53031E-02
      288 -5.64795E-08 1.16781E-06-9.69322E-05 0.00000E+00 0.00000E+00 0.00000E+00 0.00000E+00 0.00000E+00 0.00000E+00 1.65764E-03 1.72197E-03 2.53031E-02
      301  1.74733E-07 1.57628E-06-9.69322E-05 0.00000E+00 0.00000E+00 0.00000E+00 0.00000E+00 0.00000E+00 0.00000E+00 3.81947E-03 3.88928E-03 2.53031E-02
      314  5.66804E-07 1.73917E-06-9.69322E-05 0.00000E+00 0.00000E+00 0.00000E+00 0.00000E+00 0.00000E+00 0.00000E+00 4.93967E-03 4.94084E-03 2.53031E-02
      363  1.54989E-07 1.57683E-06-9.69322E-05 0.00000E+00 0.00000E+00 0.00000E+00 0.00000E+00 0.00000E+00 0.00000E+00 6.45355E-03 2.67448E-03 2.53031E-02
      364 -3.12636E-07 1.59103E-06-9.69322E-05 0.00000E+00 0.00000E+00 0.00000E+00 0.00000E+00 0.00000E+00 0.00000E+00 4.75779E-03 2.09279E-03 2.53031E-02
      365  1.83049E-06 0.00000E+00-9.69322E-05 0.00000E+00 0.00000E+00 0.00000E+00 0.00000E+00 0.00000E+00 0.00000E+00 5.24063E-03 0.00000E+00 2.53031E-02
      366  1.45159E-06 0.00000E+00-9.69322E-05 0.00000E+00 0.00000E+00 0.00000E+00 0.00000E+00 0.00000E+00 0.00000E+00 6.98645E-03 0.00000E+00 2.53031E-02
      379  0.00000E+00 1.25337E-06-9.69322E-05 0.00000E+00 0.00000E+00 0.00000E+00 0.00000E+00 0.00000E+00 0.00000E+00 1.06900E-19 1.74755E-03 2.53031E-02
      404  1.72891E-06 0.00000E+00-9.69322E-05 0.00000E+00 0.00000E+00 0.00000E+00 0.00000E+00 0.00000E+00 0.00000E+00 1.74803E-03 0.00000E+00 2.53031E-02
      405  0.00000E+00 0.00000E+00-9.69322E-05 0.00000E+00 0.00000E+00 0.00000E+00 0.00000E+00 0.00000E+00 0.00000E+00 0.00000E+00 0.00000E+00 2.53031E-02
      418  2.38027E-06 0.00000E+00-9.69322E-05 0.00000E+00 0.00000E+00 0.00000E+00 0.00000E+00 0.00000E+00 0.00000E+00 3.49488E-03 0.00000E+00 2.53031E-02
      438  2.09381E-07 0.00000E+00-9.69322E-05 0.00000E+00 0.00000E+00 0.00000E+00 0.00000E+00 0.00000E+00 0.00000E+00 1.27002E-02 0.00000E+00 2.53031E-02
      439  3.90554E-07 0.00000E+00-9.69322E-05 0.00000E+00 0.00000E+00 0.00000E+00 0.00000E+00 0.00000E+00 0.00000E+00 1.18840E-02 0.00000E+00 2.53031E-02
      440  4.24242E-07 0.00000E+00-9.69322E-05 0.00000E+00 0.00000E+00 0.00000E+00 0.00000E+00 0.00000E+00 0.00000E+00 1.10675E-02 0.00000E+00 2.53031E-02
      441  4.69948E-07 0.00000E+00-9.69322E-05 0.00000E+00 0.00000E+00 0.00000E+00 0.00000E+00 0.00000E+00 0.00000E+00 1.02512E-02 0.00000E+00 2.53031E-02
      442  5.26857E-07 0.00000E+00-9.69322E-05 0.00000E+00 0.00000E+00 0.00000E+00 0.00000E+00 0.00000E+00 0.00000E+00 9.43483E-03 0.00000E+00 2.53031E-02
      443  6.16022E-07 0.00000E+00-9.69322E-05 0.00000E+00 0.00000E+00 0.00000E+00 0.00000E+00 0.00000E+00 0.00000E+00 8.61852E-03 0.00000E+00 2.53031E-02
      444  8.01050E-07 0.00000E+00-9.69322E-05 0.00000E+00 0.00000E+00 0.00000E+00 0.00000E+00 0.00000E+00 0.00000E+00 7.80220E-03 0.00000E+00 2.53031E-02
      591  5.27260E-07 1.73483E-06-9.69322E-05 0.00000E+00 0.00000E+00 0.00000E+00 0.00000E+00 0.00000E+00 0.00000E+00 7.97323E-03 3.27323E-03 2.53031E-02
      592  5.64030E-07 1.72310E-06-9.69322E-05 0.00000E+00 0.00000E+00 0.00000E+00 0.00000E+00 0.00000E+00 0.00000E+00 8.73286E-03 3.57252E-03 2.53031E-02
      595  5.21557E-07 1.53768E-06-9.69322E-05 0.00000E+00 0.00000E+00 0.00000E+00 0.00000E+00 0.00000E+00 0.00000E+00 6.09652E-03 6.09304E-03 2.53031E-02
      596  6.03916E-07 1.50799E-06-9.69322E-05 0.00000E+00 0.00000E+00 0.00000E+00 0.00000E+00 0.00000E+00 0.00000E+00 6.67510E-03 6.66911E-03 2.53031E-02
      599  3.72477E-07 1.68791E-06-9.69322E-05 0.00000E+00 0.00000E+00 0.00000E+00 0.00000E+00 0.00000E+00 0.00000E+00 3.27667E-03 7.97239E-03 2.53031E-02
      600  4.32067E-07 1.67181E-06-9.69322E-05 0.00000E+00 0.00000E+00 0.00000E+00 0.00000E+00 0.00000E+00 0.00000E+00 3.57823E-03 8.73117E-03 2.53031E-02
      603  0.00000E+00 2.50689E-06-9.69322E-05 0.00000E+00 0.00000E+00 0.00000E+00 0.00000E+00 0.00000E+00 0.00000E+00 5.27700E-19 8.62041E-03 2.53031E-02
      604  0.00000E+00 2.36197E-06-9.69322E-05 0.00000E+00 0.00000E+00 0.00000E+00 0.00000E+00 0.00000E+00 0.00000E+00 5.77700E-19 9.43666E-03 2.53031E-02
      638  6.87020E-07 1.71221E-06-9.69322E-05 0.00000E+00 0.00000E+00 0.00000E+00 0.00000E+00 0.00000E+00 0.00000E+00 1.02524E-02 4.17111E-03 2.53031E-02
      639  6.71738E-07 1.64756E-06-9.69322E-05 0.00000E+00 0.00000E+00 0.00000E+00 0.00000E+00 0.00000E+00 0.00000E+00 1.10120E-02 4.47035E-03 2.53031E-02
      641  7.49231E-07 1.43803E-06-9.69322E-05 0.00000E+00 0.00000E+00 0.00000E+00 0.00000E+00 0.00000E+00 0.00000E+00 7.83215E-03 7.82134E-03 2.53031E-02
      642  9.18918E-07 1.52509E-06-9.69322E-05 0.00000E+00 0.00000E+00 0.00000E+00 0.00000E+00 0.00000E+00 0.00000E+00 8.41082E-03 8.39753E-03 2.53031E-02
      644  4.75529E-07 1.59680E-06-9.69322E-05 0.00000E+00 0.00000E+00 0.00000E+00 0.00000E+00 0.00000E+00 0.00000E+00 4.18118E-03 1.02487E-02 2.53031E-02
      645  3.02661E-07 1.38801E-06-9.69322E-05 0.00000E+00 0.00000E+00 0.00000E+00 0.00000E+00 0.00000E+00 0.00000E+00 4.48250E-03 1.10072E-02 2.53031E-02
      647  0.00000E+00 2.31064E-06-9.69322E-05 0.00000E+00 0.00000E+00 0.00000E+00 0.00000E+00 0.00000E+00 0.00000E+00 6.77700E-19 1.10694E-02 2.53031E-02
      648  0.00000E+00 2.82217E-06-9.69322E-05 0.00000E+00 0.00000E+00 0.00000E+00 0.00000E+00 0.00000E+00 0.00000E+00 7.27700E-19 1.18864E-02 2.53031E-02
      674  4.66277E-07 1.73314E-06-9.69322E-05 0.00000E+00 0.00000E+00 0.00000E+00 0.00000E+00 0.00000E+00 0.00000E+00 7.21347E-03 2.97393E-03 2.53031E-02
      676  4.35754E-07 1.57445E-06-9.69322E-05 0.00000E+00 0.00000E+00 0.00000E+00 0.00000E+00 0.00000E+00 0.00000E+00 5.51804E-03 5.51687E-03 2.53031E-02
      678  2.93840E-07 1.68286E-06-9.69322E-05 0.00000E+00 0.00000E+00 0.00000E+00 0.00000E+00 0.00000E+00 0.00000E+00 2.97509E-03 7.21368E-03 2.53031E-02
      680  0.00000E+00 2.76346E-06-9.69322E-05 0.00000E+00 0.00000E+00 0.00000E+00 0.00000E+00 0.00000E+00 0.00000E+00 4.77700E-19 7.80416E-03 2.53031E-02
      821  6.21132E-07 1.71746E-06-9.69322E-05 0.00000E+00 0.00000E+00 0.00000E+00 0.00000E+00 0.00000E+00 0.00000E+00 9.49262E-03 3.87182E-03 2.53031E-02
      822  6.82571E-07 1.46742E-06-9.69322E-05 0.00000E+00 0.00000E+00 0.00000E+00 0.00000E+00 0.00000E+00 0.00000E+00 7.25358E-03 7.24527E-03 2.53031E-02
      823  4.87045E-07 1.64694E-06-9.69322E-05 0.00000E+00 0.00000E+00 0.00000E+00 0.00000E+00 0.00000E+00 0.00000E+00 3.87979E-03 9.48995E-03 2.53031E-02
      824  0.00000E+00 2.25009E-06-9.69322E-05 0.00000E+00 0.00000E+00 0.00000E+00 0.00000E+00 0.00000E+00 0.00000E+00 6.27700E-19 1.02530E-02 2.53031E-02
      850  3.68848E-07 1.48143E-06-9.69322E-05 0.00000E+00 0.00000E+00 0.00000E+00 0.00000E+00 0.00000E+00 0.00000E+00 1.17714E-02 4.76958E-03 2.53031E-02
      852  5.00966E-07 1.39280E-06-9.69322E-05 0.00000E+00 0.00000E+00 0.00000E+00 0.00000E+00 0.00000E+00 0.00000E+00 8.98880E-03 8.97359E-03 2.53031E-02
      854  1.22342E-07 1.77582E-06-9.69322E-05 0.00000E+00 0.00000E+00 0.00000E+00 0.00000E+00 0.00000E+00 0.00000E+00 4.78382E-03 1.17664E-02 2.53031E-02
      856  0.00000E+00 3.87424E-06-9.69322E-05 0.00000E+00 0.00000E+00 0.00000E+00 0.00000E+00 0.00000E+00 0.00000E+00 7.77700E-19 1.27039E-02 2.53031E-02



 n o d a l   p r i n t   o u t   f o r   t i m e  s t e p     315                              ( at time 7.1674026E+00 )

 nodal point  x-disp     y-disp      z-disp      x-vel       y-vel       z-vel      x-accl      y-accl      z-accl      x-coor      y-coor      z-coor
        1  6.91052E-05 0.00000E+00 0.00000E+00 0.00000E+00 0.00000E+00 0.00000E+00 0.00000E+00 0.00000E+00 0.00000E+00 3.24411E-03 0.00000E+00-1.78000E-18
        2  4.85554E-05 0.00000E+00 0.00000E+00 0.00000E+00 0.00000E+00 0.00000E+00 0.00000E+00 0.00000E+00 0.00000E+00 2.42986E-03 0.00000E+00 0.00000E+00
        3  3.24446E-05 0.00000E+00 0.00000E+00 0.00000E+00 0.00000E+00 0.00000E+00 0.00000E+00 0.00000E+00 0.00000E+00 1.61994E-03 0.00000E+00 0.00000E+00
        4  1.67510E-05 0.00000E+00 0.00000E+00 0.00000E+00 0.00000E+00 0.00000E+00 0.00000E+00 0.00000E+00 0.00000E+00 8.10501E-04 0.00000E+00 0.00000E+00
        5  0.00000E+00 0.00000E+00 0.00000E+00 0.00000E+00 0.00000E+00 0.00000E+00 0.00000E+00 0.00000E+00 0.00000E+00 0.00000E+00 0.00000E+00 0.00000E+00
        6  0.00000E+00 1.64818E-05 0.00000E+00 0.00000E+00 0.00000E+00 0.00000E+00 0.00000E+00 0.00000E+00 0.00000E+00 4.86000E-20 8.10232E-04 0.00000E+00
        7  0.00000E+00 3.36737E-05 0.00000E+00 0.00000E+00 0.00000E+00 0.00000E+00 0.00000E+00 0.00000E+00 0.00000E+00 9.72100E-20 1.62117E-03 0.00000E+00
        8  0.00000E+00 5.27972E-05 0.00000E+00 0.00000E+00 0.00000E+00 0.00000E+00 0.00000E+00 0.00000E+00 0.00000E+00 1.45800E-19 2.43410E-03 0.00000E+00
        9  0.00000E+00 7.32117E-05 0.00000E+00 0.00000E+00 0.00000E+00 0.00000E+00 0.00000E+00 0.00000E+00 0.00000E+00 1.94400E-19 3.24821E-03 0.00000E+00
       10  3.18615E-05 6.98774E-05 0.00000E+00 0.00000E+00 0.00000E+00 0.00000E+00 0.00000E+00 0.00000E+00 0.00000E+00 1.24686E-03 3.00318E-03 0.00000E+00
       11  5.85406E-05 5.77367E-05 0.00000E+00 0.00000E+00 0.00000E+00 0.00000E+00 0.00000E+00 0.00000E+00 0.00000E+00 2.30364E-03 2.30284E-03 0.00000E+00
       12  7.25741E-05 3.27054E-05 0.00000E+00 0.00000E+00 0.00000E+00 0.00000E+00 0.00000E+00 0.00000E+00 0.00000E+00 3.00587E-03 1.24771E-03 0.00000E+00
       13  3.73698E-05 3.57694E-05 0.00000E+00 0.00000E+00 0.00000E+00 0.00000E+00 0.00000E+00 0.00000E+00 0.00000E+00 1.34567E-03 1.38767E-03 0.00000E+00
       14  3.95468E-05 1.96474E-05 0.00000E+00 0.00000E+00 0.00000E+00 0.00000E+00 0.00000E+00 0.00000E+00 0.00000E+00 1.52785E-03 7.26624E-04 0.00000E+00
       15  1.91505E-05 3.44504E-05 0.00000E+00 0.00000E+00 0.00000E+00 0.00000E+00 0.00000E+00 0.00000E+00 0.00000E+00 6.88661E-04 1.54145E-03 0.00000E+00
       16  1.98808E-05 1.78727E-05 0.00000E+00 0.00000E+00 0.00000E+00 0.00000E+00 0.00000E+00 0.00000E+00 0.00000E+00 7.73518E-04 8.00210E-04 0.00000E+00
       17  4.89151E-05 4.55528E-05 0.00000E+00 0.00000E+00 0.00000E+00 0.00000E+00 0.00000E+00 0.00000E+00 0.00000E+00 1.78522E-03 1.81305E-03 0.00000E+00
       18  2.54191E-05 5.10961E-05 0.00000E+00 0.00000E+00 0.00000E+00 0.00000E+00 0.00000E+00 0.00000E+00 0.00000E+00 9.45550E-04 2.24220E-03 0.00000E+00
       19  5.64144E-05 2.45275E-05 0.00000E+00 0.00000E+00 0.00000E+00 0.00000E+00 0.00000E+00 0.00000E+00 0.00000E+00 2.21971E-03 9.75386E-04 0.00000E+00
       26  5.47924E-05 2.17371E-05-8.47272E-05 0.00000E+00 0.00000E+00 0.00000E+00 0.00000E+00 0.00000E+00 0.00000E+00 3.20509E-03 1.33334E-03 1.80257E-03
       27  4.04182E-05 3.82763E-05-8.23963E-05 0.00000E+00 0.00000E+00 0.00000E+00 0.00000E+00 0.00000E+00 0.00000E+00 2.46092E-03 2.46188E-03 1.85460E-03
       54  2.10569E-05 4.75120E-05-8.37919E-05 0.00000E+00 0.00000E+00 0.00000E+00 0.00000E+00 0.00000E+00 0.00000E+00 1.32866E-03 3.20231E-03 1.81381E-03
      127  5.87576E-05 0.00000E+00-8.86155E-05 0.00000E+00 0.00000E+00 0.00000E+00 0.00000E+00 0.00000E+00 0.00000E+00 3.44536E-03 0.00000E+00 1.69458E-03
      165  0.00000E+00 5.34500E-05-8.08910E-05 0.00000E+00 0.00000E+00 0.00000E+00 0.00000E+00 0.00000E+00 0.00000E+00 2.39400E-19 3.44015E-03 1.70301E-03
      220  0.00000E+00 1.91628E-06-1.43348E-04 0.00000E+00 0.00000E+00 0.00000E+00 0.00000E+00 0.00000E+00 0.00000E+00 2.13900E-19 3.49442E-03 2.52567E-02
      221  1.66740E-07 1.35803E-06-1.43348E-04 0.00000E+00 0.00000E+00 0.00000E+00 0.00000E+00 0.00000E+00 0.00000E+00 1.47267E-03 3.31576E-03 2.52567E-02
      222  5.67704E-08 1.33612E-06-1.43348E-04 0.00000E+00 0.00000E+00 0.00000E+00 0.00000E+00 0.00000E+00 0.00000E+00 2.02386E-03 4.82054E-03 2.52567E-02
      223  0.00000E+00 2.86965E-06-1.43348E-04 0.00000E+00 0.00000E+00 0.00000E+00 0.00000E+00 0.00000E+00 0.00000E+00 3.20800E-19 5.24167E-03 2.52567E-02
      248  2.06016E-07 1.68080E-06-1.43348E-04 0.00000E+00 0.00000E+00 0.00000E+00 0.00000E+00 0.00000E+00 0.00000E+00 2.67361E-03 6.45488E-03 2.52567E-02
      249  0.00000E+00 3.42956E-06-1.43348E-04 0.00000E+00 0.00000E+00 0.00000E+00 0.00000E+00 0.00000E+00 0.00000E+00 4.27700E-19 6.98843E-03 2.52567E-02
      286 -3.71549E-07 1.36472E-06-1.43348E-04 0.00000E+00 0.00000E+00 0.00000E+00 0.00000E+00 0.00000E+00 0.00000E+00 3.27293E-03 1.55616E-03 2.52567E-02
      287  3.73522E-07 8.18988E-07-1.43348E-04 0.00000E+00 0.00000E+00 0.00000E+00 0.00000E+00 0.00000E+00 0.00000E+00 2.87807E-03 2.97422E-03 2.52567E-02
      288 -1.32662E-07 1.28875E-06-1.43348E-04 0.00000E+00 0.00000E+00 0.00000E+00 0.00000E+00 0.00000E+00 0.00000E+00 1.65757E-03 1.72209E-03 2.52567E-02
      301  2.14691E-07 1.70502E-06-1.43348E-04 0.00000E+00 0.00000E+00 0.00000E+00 0.00000E+00 0.00000E+00 0.00000E+00 3.81951E-03 3.88941E-03 2.52567E-02
      314  6.43703E-07 1.91376E-06-1.43348E-04 0.00000E+00 0.00000E+00 0.00000E+00 0.00000E+00 0.00000E+00 0.00000E+00 4.93974E-03 4.94101E-03 2.52567E-02
      363  2.05538E-07 1.67449E-06-1.43348E-04 0.00000E+00 0.00000E+00 0.00000E+00 0.00000E+00 0.00000E+00 0.00000E+00 6.45361E-03 2.67457E-03 2.52567E-02
      364 -2.55863E-07 1.68422E-06-1.43348E-04 0.00000E+00 0.00000E+00 0.00000E+00 0.00000E+00 0.00000E+00 0.00000E+00 4.75784E-03 2.09288E-03 2.52567E-02
      365  2.18605E-06 0.00000E+00-1.43348E-04 0.00000E+00 0.00000E+00 0.00000E+00 0.00000E+00 0.00000E+00 0.00000E+00 5.24099E-03 0.00000E+00 2.52567E-02
      366  1.69220E-06 0.00000E+00-1.43348E-04 0.00000E+00 0.00000E+00 0.00000E+00 0.00000E+00 0.00000E+00 0.00000E+00 6.98669E-03 0.00000E+00 2.52567E-02
      379  0.00000E+00 1.40022E-06-1.43348E-04 0.00000E+00 0.00000E+00 0.00000E+00 0.00000E+00 0.00000E+00 0.00000E+00 1.06900E-19 1.74770E-03 2.52567E-02
      404  2.17841E-06 0.00000E+00-1.43348E-04 0.00000E+00 0.00000E+00 0.00000E+00 0.00000E+00 0.00000E+00 0.00000E+00 1.74848E-03 0.00000E+00 2.52567E-02
      405  0.00000E+00 0.00000E+00-1.43348E-04 0.00000E+00 0.00000E+00 0.00000E+00 0.00000E+00 0.00000E+00 0.00000E+00 0.00000E+00 0.00000E+00 2.52567E-02
      418  3.23360E-06 0.00000E+00-1.43348E-04 0.00000E+00 0.00000E+00 0.00000E+00 0.00000E+00 0.00000E+00 0.00000E+00 3.49573E-03 0.00000E+00 2.52567E-02
      438  2.68653E-07 0.00000E+00-1.43348E-04 0.00000E+00 0.00000E+00 0.00000E+00 0.00000E+00 0.00000E+00 0.00000E+00 1.27003E-02 0.00000E+00 2.52567E-02
      439  4.61165E-07 0.00000E+00-1.43348E-04 0.00000E+00 0.00000E+00 0.00000E+00 0.00000E+00 0.00000E+00 0.00000E+00 1.18841E-02 0.00000E+00 2.52567E-02
      440  5.01683E-07 0.00000E+00-1.43348E-04 0.00000E+00 0.00000E+00 0.00000E+00 0.00000E+00 0.00000E+00 0.00000E+00 1.10676E-02 0.00000E+00 2.52567E-02
      441  5.62002E-07 0.00000E+00-1.43348E-04 0.00000E+00 0.00000E+00 0.00000E+00 0.00000E+00 0.00000E+00 0.00000E+00 1.02513E-02 0.00000E+00 2.52567E-02
      442  6.32078E-07 0.00000E+00-1.43348E-04 0.00000E+00 0.00000E+00 0.00000E+00 0.00000E+00 0.00000E+00 0.00000E+00 9.43493E-03 0.00000E+00 2.52567E-02
      443  7.43283E-07 0.00000E+00-1.43348E-04 0.00000E+00 0.00000E+00 0.00000E+00 0.00000E+00 0.00000E+00 0.00000E+00 8.61864E-03 0.00000E+00 2.52567E-02
      444  9.50616E-07 0.00000E+00-1.43348E-04 0.00000E+00 0.00000E+00 0.00000E+00 0.00000E+00 0.00000E+00 0.00000E+00 7.80235E-03 0.00000E+00 2.52567E-02
      591  6.03898E-07 1.88106E-06-1.43348E-04 0.00000E+00 0.00000E+00 0.00000E+00 0.00000E+00 0.00000E+00 0.00000E+00 7.97330E-03 3.27338E-03 2.52567E-02
      592  6.34248E-07 1.87316E-06-1.43348E-04 0.00000E+00 0.00000E+00 0.00000E+00 0.00000E+00 0.00000E+00 0.00000E+00 8.73293E-03 3.57267E-03 2.52567E-02
      595  5.72332E-07 1.68344E-06-1.43348E-04 0.00000E+00 0.00000E+00 0.00000E+00 0.00000E+00 0.00000E+00 0.00000E+00 6.09657E-03 6.09318E-03 2.52567E-02
      596  6.61516E-07 1.65905E-06-1.43348E-04 0.00000E+00 0.00000E+00 0.00000E+00 0.00000E+00 0.00000E+00 0.00000E+00 6.67516E-03 6.66926E-03 2.52567E-02
      599  4.08010E-07 1.84563E-06-1.43348E-04 0.00000E+00 0.00000E+00 0.00000E+00 0.00000E+00 0.00000E+00 0.00000E+00 3.27671E-03 7.97255E-03 2.52567E-02
      600  4.62166E-07 1.83792E-06-1.43348E-04 0.00000E+00 0.00000E+00 0.00000E+00 0.00000E+00 0.00000E+00 0.00000E+00 3.57826E-03 8.73134E-03 2.52567E-02
      603  0.00000E+00 2.77273E-06-1.43348E-04 0.00000E+00 0.00000E+00 0.00000E+00 0.00000E+00 0.00000E+00 0.00000E+00 5.27700E-19 8.62067E-03 2.52567E-02
      604  0.00000E+00 2.62026E-06-1.43348E-04 0.00000E+00 0.00000E+00 0.00000E+00 0.00000E+00 0.00000E+00 0.00000E+00 5.77700E-19 9.43692E-03 2.52567E-02
      638  7.60789E-07 1.85055E-06-1.43348E-04 0.00000E+00 0.00000E+00 0.00000E+00 0.00000E+00 0.00000E+00 0.00000E+00 1.02525E-02 4.17125E-03 2.52567E-02
      639  7.44784E-07 1.78312E-06-1.43348E-04 0.00000E+00 0.00000E+00 0.00000E+00 0.00000E+00 0.00000E+00 0.00000E+00 1.10120E-02 4.47048E-03 2.52567E-02
      641  8.26098E-07 1.57964E-06-1.43348E-04 0.00000E+00 0.00000E+00 0.00000E+00 0.00000E+00 0.00000E+00 0.00000E+00 7.83223E-03 7.82148E-03 2.52567E-02
      642  9.97496E-07 1.66670E-06-1.43348E-04 0.00000E+00 0.00000E+00 0.00000E+00 0.00000E+00 0.00000E+00 0.00000E+00 8.41090E-03 8.39767E-03 2.52567E-02
      644  5.06261E-07 1.76720E-06-1.43348E-04 0.00000E+00 0.00000E+00 0.00000E+00 0.00000E+00 0.00000E+00 0.00000E+00 4.18121E-03 1.02489E-02 2.52567E-02
      645  3.17625E-07 1.57036E-06-1.43348E-04 0.00000E+00 0.00000E+00 0.00000E+00 0.00000E+00 0.00000E+00 0.00000E+00 4.48252E-03 1.10074E-02 2.52567E-02
      647  0.00000E+00 2.52481E-06-1.43348E-04 0.00000E+00 0.00000E+00 0.00000E+00 0.00000E+00 0.00000E+00 0.00000E+00 6.77700E-19 1.10696E-02 2.52567E-02
      648  0.00000E+00 3.02908E-06-1.43348E-04 0.00000E+00 0.00000E+00 0.00000E+00 0.00000E+00 0.00000E+00 0.00000E+00 7.27700E-19 1.18866E-02 2.52567E-02
[...]
      249  0.00000E+00 3.88977E-06-1.93533E-03 0.00000E+00 0.00000E+00 0.00000E+00 0.00000E+00 0.00000E+00 0.00000E+00 4.27700E-19 6.98889E-03 2.34647E-02
      286  1.11156E-07 7.69998E-07-1.93533E-03 0.00000E+00 0.00000E+00 0.00000E+00 0.00000E+00 0.00000E+00 0.00000E+00 3.27341E-03 1.55557E-03 2.34647E-02
      287  6.53518E-07 3.71350E-07-1.93533E-03 0.00000E+00 0.00000E+00 0.00000E+00 0.00000E+00 0.00000E+00 0.00000E+00 2.87835E-03 2.97377E-03 2.34647E-02
      288  2.02583E-07 4.04671E-07-1.93533E-03 0.00000E+00 0.00000E+00 0.00000E+00 0.00000E+00 0.00000E+00 0.00000E+00 1.65790E-03 1.72120E-03 2.34647E-02
      301  4.74846E-07 1.49993E-06-1.93533E-03 0.00000E+00 0.00000E+00 0.00000E+00 0.00000E+00 0.00000E+00 0.00000E+00 3.81977E-03 3.88920E-03 2.34647E-02
      314  7.34084E-07 1.77120E-06-1.93533E-03 0.00000E+00 0.00000E+00 0.00000E+00 0.00000E+00 0.00000E+00 0.00000E+00 4.93983E-03 4.94087E-03 2.34647E-02
      363  8.16399E-07 1.37374E-06-1.93533E-03 0.00000E+00 0.00000E+00 0.00000E+00 0.00000E+00 0.00000E+00 0.00000E+00 6.45422E-03 2.67427E-03 2.34647E-02
      364  4.45760E-08 1.11597E-06-1.93533E-03 0.00000E+00 0.00000E+00 0.00000E+00 0.00000E+00 0.00000E+00 0.00000E+00 4.75814E-03 2.09232E-03 2.34647E-02
      365  2.60755E-06 0.00000E+00-1.93533E-03 0.00000E+00 0.00000E+00 0.00000E+00 0.00000E+00 0.00000E+00 0.00000E+00 5.24141E-03 0.00000E+00 2.34647E-02
      366  1.50090E-06 0.00000E+00-1.93533E-03 0.00000E+00 0.00000E+00 0.00000E+00 0.00000E+00 0.00000E+00 0.00000E+00 6.98650E-03 0.00000E+00 2.34647E-02
      379  0.00000E+00 1.54045E-06-1.93533E-03 0.00000E+00 0.00000E+00 0.00000E+00 0.00000E+00 0.00000E+00 0.00000E+00 1.06900E-19 1.74784E-03 2.34647E-02
      404  2.76125E-06 0.00000E+00-1.93533E-03 0.00000E+00 0.00000E+00 0.00000E+00 0.00000E+00 0.00000E+00 0.00000E+00 1.74906E-03 0.00000E+00 2.34647E-02
      405  0.00000E+00 0.00000E+00-1.93533E-03 0.00000E+00 0.00000E+00 0.00000E+00 0.00000E+00 0.00000E+00 0.00000E+00 0.00000E+00 0.00000E+00 2.34647E-02
      418  4.10641E-06 0.00000E+00-1.93533E-03 0.00000E+00 0.00000E+00 0.00000E+00 0.00000E+00 0.00000E+00 0.00000E+00 3.49661E-03 0.00000E+00 2.34647E-02
      438  7.47062E-07 0.00000E+00-1.93533E-03 0.00000E+00 0.00000E+00 0.00000E+00 0.00000E+00 0.00000E+00 0.00000E+00 1.27007E-02 0.00000E+00 2.34647E-02
      439  7.47637E-07 0.00000E+00-1.93533E-03 0.00000E+00 0.00000E+00 0.00000E+00 0.00000E+00 0.00000E+00 0.00000E+00 1.18843E-02 0.00000E+00 2.34647E-02
      440  8.08587E-07 0.00000E+00-1.93533E-03 0.00000E+00 0.00000E+00 0.00000E+00 0.00000E+00 0.00000E+00 0.00000E+00 1.10679E-02 0.00000E+00 2.34647E-02
      441  8.77396E-07 0.00000E+00-1.93533E-03 0.00000E+00 0.00000E+00 0.00000E+00 0.00000E+00 0.00000E+00 0.00000E+00 1.02516E-02 0.00000E+00 2.34647E-02
      442  8.67275E-07 0.00000E+00-1.93533E-03 0.00000E+00 0.00000E+00 0.00000E+00 0.00000E+00 0.00000E+00 0.00000E+00 9.43517E-03 0.00000E+00 2.34647E-02
      443  9.11046E-07 0.00000E+00-1.93533E-03 0.00000E+00 0.00000E+00 0.00000E+00 0.00000E+00 0.00000E+00 0.00000E+00 8.61881E-03 0.00000E+00 2.34647E-02
      444  1.05995E-06 0.00000E+00-1.93533E-03 0.00000E+00 0.00000E+00 0.00000E+00 0.00000E+00 0.00000E+00 0.00000E+00 7.80246E-03 0.00000E+00 2.34647E-02
      591  9.58754E-07 1.32141E-06-1.93533E-03 0.00000E+00 0.00000E+00 0.00000E+00 0.00000E+00 0.00000E+00 0.00000E+00 7.97366E-03 3.27282E-03 2.34647E-02
      592  1.00548E-06 1.23893E-06-1.93533E-03 0.00000E+00 0.00000E+00 0.00000E+00 0.00000E+00 0.00000E+00 0.00000E+00 8.73331E-03 3.57204E-03 2.34647E-02
      595  7.74890E-07 1.68522E-06-1.93533E-03 0.00000E+00 0.00000E+00 0.00000E+00 0.00000E+00 0.00000E+00 0.00000E+00 6.09677E-03 6.09319E-03 2.34647E-02
      596  7.80325E-07 1.63804E-06-1.93533E-03 0.00000E+00 0.00000E+00 0.00000E+00 0.00000E+00 0.00000E+00 0.00000E+00 6.67528E-03 6.66924E-03 2.34647E-02
      599  3.69212E-07 1.82339E-06-1.93533E-03 0.00000E+00 0.00000E+00 0.00000E+00 0.00000E+00 0.00000E+00 0.00000E+00 3.27667E-03 7.97252E-03 2.34647E-02
      600  4.28370E-07 1.83608E-06-1.93533E-03 0.00000E+00 0.00000E+00 0.00000E+00 0.00000E+00 0.00000E+00 0.00000E+00 3.57823E-03 8.73134E-03 2.34647E-02
      603  0.00000E+00 3.28556E-06-1.93533E-03 0.00000E+00 0.00000E+00 0.00000E+00 0.00000E+00 0.00000E+00 0.00000E+00 5.27700E-19 8.62119E-03 2.34647E-02
      604  0.00000E+00 2.99213E-06-1.93533E-03 0.00000E+00 0.00000E+00 0.00000E+00 0.00000E+00 0.00000E+00 0.00000E+00 5.77700E-19 9.43729E-03 2.34647E-02
      638  1.13723E-06 1.11306E-06-1.93533E-03 0.00000E+00 0.00000E+00 0.00000E+00 0.00000E+00 0.00000E+00 0.00000E+00 1.02528E-02 4.17051E-03 2.34647E-02
      639  1.12973E-06 1.01295E-06-1.93533E-03 0.00000E+00 0.00000E+00 0.00000E+00 0.00000E+00 0.00000E+00 0.00000E+00 1.10124E-02 4.46971E-03 2.34647E-02
      641  9.32710E-07 1.47504E-06-1.93533E-03 0.00000E+00 0.00000E+00 0.00000E+00 0.00000E+00 0.00000E+00 0.00000E+00 7.83233E-03 7.82138E-03 2.34647E-02
      642  9.81248E-07 1.53480E-06-1.93533E-03 0.00000E+00 0.00000E+00 0.00000E+00 0.00000E+00 0.00000E+00 0.00000E+00 8.41088E-03 8.39753E-03 2.34647E-02
      644  4.79851E-07 1.79025E-06-1.93533E-03 0.00000E+00 0.00000E+00 0.00000E+00 0.00000E+00 0.00000E+00 0.00000E+00 4.18118E-03 1.02489E-02 2.34647E-02
      645  3.96303E-07 1.85762E-06-1.93533E-03 0.00000E+00 0.00000E+00 0.00000E+00 0.00000E+00 0.00000E+00 0.00000E+00 4.48260E-03 1.10077E-02 2.34647E-02
      647  0.00000E+00 2.88111E-06-1.93533E-03 0.00000E+00 0.00000E+00 0.00000E+00 0.00000E+00 0.00000E+00 0.00000E+00 6.77700E-19 1.10700E-02 2.34647E-02
      648  0.00000E+00 3.23688E-06-1.93533E-03 0.00000E+00 0.00000E+00 0.00000E+00 0.00000E+00 0.00000E+00 0.00000E+00 7.27700E-19 1.18868E-02 2.34647E-02
      674  9.28384E-07 1.37815E-06-1.93533E-03 0.00000E+00 0.00000E+00 0.00000E+00 0.00000E+00 0.00000E+00 0.00000E+00 7.21393E-03 2.97358E-03 2.34647E-02
      676  6.67302E-07 1.78068E-06-1.93533E-03 0.00000E+00 0.00000E+00 0.00000E+00 0.00000E+00 0.00000E+00 0.00000E+00 5.51827E-03 5.51708E-03 2.34647E-02
      678  3.17538E-07 1.93468E-06-1.93533E-03 0.00000E+00 0.00000E+00 0.00000E+00 0.00000E+00 0.00000E+00 0.00000E+00 2.97512E-03 7.21393E-03 2.34647E-02
      680  0.00000E+00 3.59879E-06-1.93533E-03 0.00000E+00 0.00000E+00 0.00000E+00 0.00000E+00 0.00000E+00 0.00000E+00 4.77700E-19 7.80500E-03 2.34647E-02
      821  1.04465E-06 1.17307E-06-1.93533E-03 0.00000E+00 0.00000E+00 0.00000E+00 0.00000E+00 0.00000E+00 0.00000E+00 9.49304E-03 3.87127E-03 2.34647E-02
      822  9.58491E-07 1.58342E-06-1.93533E-03 0.00000E+00 0.00000E+00 0.00000E+00 0.00000E+00 0.00000E+00 0.00000E+00 7.25386E-03 7.24538E-03 2.34647E-02
      823  4.55496E-07 1.68385E-06-1.93533E-03 0.00000E+00 0.00000E+00 0.00000E+00 0.00000E+00 0.00000E+00 0.00000E+00 3.87976E-03 9.48998E-03 2.34647E-02
      824  0.00000E+00 2.85421E-06-1.93533E-03 0.00000E+00 0.00000E+00 0.00000E+00 0.00000E+00 0.00000E+00 0.00000E+00 6.27700E-19 1.02536E-02 2.34647E-02
      850  6.27603E-07 8.46621E-07-1.93533E-03 0.00000E+00 0.00000E+00 0.00000E+00 0.00000E+00 0.00000E+00 0.00000E+00 1.17716E-02 4.76895E-03 2.34647E-02
      852  7.51482E-07 1.77520E-06-1.93533E-03 0.00000E+00 0.00000E+00 0.00000E+00 0.00000E+00 0.00000E+00 0.00000E+00 8.98905E-03 8.97398E-03 2.34647E-02
      854  3.13115E-07 1.85654E-06-1.93533E-03 0.00000E+00 0.00000E+00 0.00000E+00 0.00000E+00 0.00000E+00 0.00000E+00 4.78401E-03 1.17665E-02 2.34647E-02
      856  0.00000E+00 4.03701E-06-1.93533E-03 0.00000E+00 0.00000E+00 0.00000E+00 0.00000E+00 0.00000E+00 0.00000E+00 7.77700E-19 1.27040E-02 2.34647E-02



 n o d a l   p r i n t   o u t   f o r   t i m e  s t e p     598                              ( at time 1.0000000E+02 )

 nodal point  x-disp     y-disp      z-disp      x-vel       y-vel       z-vel      x-accl      y-accl      z-accl      x-coor      y-coor      z-coor
        1  1.78079E-03 0.00000E+00 0.00000E+00 0.00000E+00 0.00000E+00 0.00000E+00 0.00000E+00 0.00000E+00 0.00000E+00 4.95579E-03 0.00000E+00-1.78000E-18
        2  1.34999E-03 0.00000E+00 0.00000E+00 0.00000E+00 0.00000E+00 0.00000E+00 0.00000E+00 0.00000E+00 0.00000E+00 3.73129E-03 0.00000E+00 0.00000E+00
        3  8.87595E-04 0.00000E+00 0.00000E+00 0.00000E+00 0.00000E+00 0.00000E+00 0.00000E+00 0.00000E+00 0.00000E+00 2.47510E-03 0.00000E+00 0.00000E+00
        4  4.41499E-04 0.00000E+00 0.00000E+00 0.00000E+00 0.00000E+00 0.00000E+00 0.00000E+00 0.00000E+00 0.00000E+00 1.23525E-03 0.00000E+00 0.00000E+00
        5  0.00000E+00 0.00000E+00 0.00000E+00 0.00000E+00 0.00000E+00 0.00000E+00 0.00000E+00 0.00000E+00 0.00000E+00 0.00000E+00 0.00000E+00 0.00000E+00
        6  0.00000E+00 4.04600E-04 0.00000E+00 0.00000E+00 0.00000E+00 0.00000E+00 0.00000E+00 0.00000E+00 0.00000E+00 4.86000E-20 1.19835E-03 0.00000E+00
        7  0.00000E+00 8.22804E-04 0.00000E+00 0.00000E+00 0.00000E+00 0.00000E+00 0.00000E+00 0.00000E+00 0.00000E+00 9.72100E-20 2.41030E-03 0.00000E+00
        8  0.00000E+00 1.16695E-03 0.00000E+00 0.00000E+00 0.00000E+00 0.00000E+00 0.00000E+00 0.00000E+00 0.00000E+00 1.45800E-19 3.54825E-03 0.00000E+00
        9  0.00000E+00 1.54624E-03 0.00000E+00 0.00000E+00 0.00000E+00 0.00000E+00 0.00000E+00 0.00000E+00 0.00000E+00 1.94400E-19 4.72124E-03 0.00000E+00
       10  6.70837E-04 1.43672E-03 0.00000E+00 0.00000E+00 0.00000E+00 0.00000E+00 0.00000E+00 0.00000E+00 0.00000E+00 1.88584E-03 4.37002E-03 0.00000E+00
       11  1.14857E-03 1.13578E-03 0.00000E+00 0.00000E+00 0.00000E+00 0.00000E+00 0.00000E+00 0.00000E+00 0.00000E+00 3.39367E-03 3.38088E-03 0.00000E+00
       12  1.61566E-03 7.12914E-04 0.00000E+00 0.00000E+00 0.00000E+00 0.00000E+00 0.00000E+00 0.00000E+00 0.00000E+00 4.54896E-03 1.92791E-03 0.00000E+00
       13  8.05220E-04 7.53295E-04 0.00000E+00 0.00000E+00 0.00000E+00 0.00000E+00 0.00000E+00 0.00000E+00 0.00000E+00 2.11352E-03 2.10519E-03 0.00000E+00
       14  8.94414E-04 4.24188E-04 0.00000E+00 0.00000E+00 0.00000E+00 0.00000E+00 0.00000E+00 0.00000E+00 0.00000E+00 2.38271E-03 1.13116E-03 0.00000E+00
       15  4.23457E-04 8.37644E-04 0.00000E+00 0.00000E+00 0.00000E+00 0.00000E+00 0.00000E+00 0.00000E+00 0.00000E+00 1.09297E-03 2.34464E-03 0.00000E+00
       16  4.85214E-04 4.45117E-04 0.00000E+00 0.00000E+00 0.00000E+00 0.00000E+00 0.00000E+00 0.00000E+00 0.00000E+00 1.23885E-03 1.22745E-03 0.00000E+00
       17  9.86729E-04 9.27441E-04 0.00000E+00 0.00000E+00 0.00000E+00 0.00000E+00 0.00000E+00 0.00000E+00 0.00000E+00 2.72303E-03 2.69494E-03 0.00000E+00
       18  5.37581E-04 1.14785E-03 0.00000E+00 0.00000E+00 0.00000E+00 0.00000E+00 0.00000E+00 0.00000E+00 0.00000E+00 1.45771E-03 3.33895E-03 0.00000E+00
       19  1.24775E-03 5.11682E-04 0.00000E+00 0.00000E+00 0.00000E+00 0.00000E+00 0.00000E+00 0.00000E+00 0.00000E+00 3.41105E-03 1.46254E-03 0.00000E+00
       26  1.57933E-03 6.08405E-04-1.02931E-03 0.00000E+00 0.00000E+00 0.00000E+00 0.00000E+00 0.00000E+00 0.00000E+00 4.72963E-03 1.92000E-03 8.57986E-04
       27  1.22243E-03 1.07945E-03-9.98892E-04 0.00000E+00 0.00000E+00 0.00000E+00 0.00000E+00 0.00000E+00 0.00000E+00 3.64293E-03 3.50305E-03 9.38108E-04
       54  6.47055E-04 1.41206E-03-1.01867E-03 0.00000E+00 0.00000E+00 0.00000E+00 0.00000E+00 0.00000E+00 0.00000E+00 1.95466E-03 4.56686E-03 8.78927E-04
      127  1.75405E-03 0.00000E+00-1.03886E-03 0.00000E+00 0.00000E+00 0.00000E+00 0.00000E+00 0.00000E+00 0.00000E+00 5.14065E-03 0.00000E+00 7.44338E-04
      165  0.00000E+00 1.60690E-03-1.02010E-03 0.00000E+00 0.00000E+00 0.00000E+00 0.00000E+00 0.00000E+00 0.00000E+00 2.39400E-19 4.99360E-03 7.63800E-04
      220  0.00000E+00 3.02011E-06-2.00000E-03 0.00000E+00 0.00000E+00 0.00000E+00 0.00000E+00 0.00000E+00 0.00000E+00 2.13900E-19 3.49552E-03 2.34000E-02
      221  4.02309E-07 1.42495E-06-2.00000E-03 0.00000E+00 0.00000E+00 0.00000E+00 0.00000E+00 0.00000E+00 0.00000E+00 1.47290E-03 3.31582E-03 2.34000E-02
      222  1.98360E-07 1.38698E-06-2.00000E-03 0.00000E+00 0.00000E+00 0.00000E+00 0.00000E+00 0.00000E+00 0.00000E+00 2.02400E-03 4.82059E-03 2.34000E-02
      223  0.00000E+00 3.66769E-06-2.00000E-03 0.00000E+00 0.00000E+00 0.00000E+00 0.00000E+00 0.00000E+00 0.00000E+00 3.20800E-19 5.24247E-03 2.34000E-02
      248  4.24622E-07 1.83044E-06-2.00000E-03 0.00000E+00 0.00000E+00 0.00000E+00 0.00000E+00 0.00000E+00 0.00000E+00 2.67382E-03 6.45503E-03 2.34000E-02
      249  0.00000E+00 4.11475E-06-2.00000E-03 0.00000E+00 0.00000E+00 0.00000E+00 0.00000E+00 0.00000E+00 0.00000E+00 4.27700E-19 6.98911E-03 2.34000E-02
      286 -1.98396E-07 1.37740E-06-2.00000E-03 0.00000E+00 0.00000E+00 0.00000E+00 0.00000E+00 0.00000E+00 0.00000E+00 3.27310E-03 1.55618E-03 2.34000E-02
      287  6.44940E-07 3.74876E-07-2.00000E-03 0.00000E+00 0.00000E+00 0.00000E+00 0.00000E+00 0.00000E+00 0.00000E+00 2.87834E-03 2.97377E-03 2.34000E-02
      288  3.37482E-08 1.11456E-06-2.00000E-03 0.00000E+00 0.00000E+00 0.00000E+00 0.00000E+00 0.00000E+00 0.00000E+00 1.65773E-03 1.72191E-03 2.34000E-02
      301  3.77865E-07 1.74011E-06-2.00000E-03 0.00000E+00 0.00000E+00 0.00000E+00 0.00000E+00 0.00000E+00 0.00000E+00 3.81968E-03 3.88944E-03 2.34000E-02
      314  8.57979E-07 2.07276E-06-2.00000E-03 0.00000E+00 0.00000E+00 0.00000E+00 0.00000E+00 0.00000E+00 0.00000E+00 4.93996E-03 4.94117E-03 2.34000E-02
      363  4.17610E-07 2.02298E-06-2.00000E-03 0.00000E+00 0.00000E+00 0.00000E+00 0.00000E+00 0.00000E+00 0.00000E+00 6.45382E-03 2.67492E-03 2.34000E-02
      364 -2.33146E-07 1.80478E-06-2.00000E-03 0.00000E+00 0.00000E+00 0.00000E+00 0.00000E+00 0.00000E+00 0.00000E+00 4.75787E-03 2.09300E-03 2.34000E-02
      365  2.46032E-06 0.00000E+00-2.00000E-03 0.00000E+00 0.00000E+00 0.00000E+00 0.00000E+00 0.00000E+00 0.00000E+00 5.24126E-03 0.00000E+00 2.34000E-02
      366  1.65976E-06 0.00000E+00-2.00000E-03 0.00000E+00 0.00000E+00 0.00000E+00 0.00000E+00 0.00000E+00 0.00000E+00 6.98666E-03 0.00000E+00 2.34000E-02
      379  0.00000E+00 1.96532E-06-2.00000E-03 0.00000E+00 0.00000E+00 0.00000E+00 0.00000E+00 0.00000E+00 0.00000E+00 1.06900E-19 1.74827E-03 2.34000E-02
      404  2.43614E-06 0.00000E+00-2.00000E-03 0.00000E+00 0.00000E+00 0.00000E+00 0.00000E+00 0.00000E+00 0.00000E+00 1.74874E-03 0.00000E+00 2.34000E-02
      405  0.00000E+00 0.00000E+00-2.00000E-03 0.00000E+00 0.00000E+00 0.00000E+00 0.00000E+00 0.00000E+00 0.00000E+00 0.00000E+00 0.00000E+00 2.34000E-02
      418  3.81156E-06 0.00000E+00-2.00000E-03 0.00000E+00 0.00000E+00 0.00000E+00 0.00000E+00 0.00000E+00 0.00000E+00 3.49631E-03 0.00000E+00 2.34000E-02
      438  1.25025E-07 0.00000E+00-2.00000E-03 0.00000E+00 0.00000E+00 0.00000E+00 0.00000E+00 0.00000E+00 0.00000E+00 1.27001E-02 0.00000E+00 2.34000E-02
      439  4.03063E-07 0.00000E+00-2.00000E-03 0.00000E+00 0.00000E+00 0.00000E+00 0.00000E+00 0.00000E+00 0.00000E+00 1.18840E-02 0.00000E+00 2.34000E-02
      440  5.26610E-07 0.00000E+00-2.00000E-03 0.00000E+00 0.00000E+00 0.00000E+00 0.00000E+00 0.00000E+00 0.00000E+00 1.10676E-02 0.00000E+00 2.34000E-02
      441  5.68834E-07 0.00000E+00-2.00000E-03 0.00000E+00 0.00000E+00 0.00000E+00 0.00000E+00 0.00000E+00 0.00000E+00 1.02513E-02 0.00000E+00 2.34000E-02
      442  5.79671E-07 0.00000E+00-2.00000E-03 0.00000E+00 0.00000E+00 0.00000E+00 0.00000E+00 0.00000E+00 0.00000E+00 9.43488E-03 0.00000E+00 2.34000E-02
      443  6.05938E-07 0.00000E+00-2.00000E-03 0.00000E+00 0.00000E+00 0.00000E+00 0.00000E+00 0.00000E+00 0.00000E+00 8.61851E-03 0.00000E+00 2.34000E-02
      444  8.42443E-07 0.00000E+00-2.00000E-03 0.00000E+00 0.00000E+00 0.00000E+00 0.00000E+00 0.00000E+00 0.00000E+00 7.80224E-03 0.00000E+00 2.34000E-02
      591  8.08994E-07 2.27737E-06-2.00000E-03 0.00000E+00 0.00000E+00 0.00000E+00 0.00000E+00 0.00000E+00 0.00000E+00 7.97351E-03 3.27378E-03 2.34000E-02
      592  8.72314E-07 2.32951E-06-2.00000E-03 0.00000E+00 0.00000E+00 0.00000E+00 0.00000E+00 0.00000E+00 0.00000E+00 8.73317E-03 3.57313E-03 2.34000E-02
      595  7.51035E-07 1.90190E-06-2.00000E-03 0.00000E+00 0.00000E+00 0.00000E+00 0.00000E+00 0.00000E+00 0.00000E+00 6.09675E-03 6.09340E-03 2.34000E-02
      596  8.35815E-07 1.88263E-06-2.00000E-03 0.00000E+00 0.00000E+00 0.00000E+00 0.00000E+00 0.00000E+00 0.00000E+00 6.67534E-03 6.66948E-03 2.34000E-02
      599  4.47472E-07 2.02928E-06-2.00000E-03 0.00000E+00 0.00000E+00 0.00000E+00 0.00000E+00 0.00000E+00 0.00000E+00 3.27675E-03 7.97273E-03 2.34000E-02
      600  5.00657E-07 2.05709E-06-2.00000E-03 0.00000E+00 0.00000E+00 0.00000E+00 0.00000E+00 0.00000E+00 0.00000E+00 3.57830E-03 8.73156E-03 2.34000E-02
      603  0.00000E+00 3.88602E-06-2.00000E-03 0.00000E+00 0.00000E+00 0.00000E+00 0.00000E+00 0.00000E+00 0.00000E+00 5.27700E-19 8.62179E-03 2.34000E-02
      604  0.00000E+00 3.63469E-06-2.00000E-03 0.00000E+00 0.00000E+00 0.00000E+00 0.00000E+00 0.00000E+00 0.00000E+00 5.77700E-19 9.43793E-03 2.34000E-02
      638  9.86797E-07 2.24638E-06-2.00000E-03 0.00000E+00 0.00000E+00 0.00000E+00 0.00000E+00 0.00000E+00 0.00000E+00 1.02527E-02 4.17165E-03 2.34000E-02
      639  1.02990E-06 2.13440E-06-2.00000E-03 0.00000E+00 0.00000E+00 0.00000E+00 0.00000E+00 0.00000E+00 0.00000E+00 1.10123E-02 4.47083E-03 2.34000E-02
      641  1.09434E-06 1.85181E-06-2.00000E-03 0.00000E+00 0.00000E+00 0.00000E+00 0.00000E+00 0.00000E+00 0.00000E+00 7.83249E-03 7.82175E-03 2.34000E-02
      642  1.11463E-06 1.77817E-06-2.00000E-03 0.00000E+00 0.00000E+00 0.00000E+00 0.00000E+00 0.00000E+00 0.00000E+00 8.41101E-03 8.39778E-03 2.34000E-02
      644  4.99078E-07 1.96041E-06-2.00000E-03 0.00000E+00 0.00000E+00 0.00000E+00 0.00000E+00 0.00000E+00 0.00000E+00 4.18120E-03 1.02491E-02 2.34000E-02
      645  3.61543E-07 2.05967E-06-2.00000E-03 0.00000E+00 0.00000E+00 0.00000E+00 0.00000E+00 0.00000E+00 0.00000E+00 4.48256E-03 1.10079E-02 2.34000E-02
      647  0.00000E+00 3.49656E-06-2.00000E-03 0.00000E+00 0.00000E+00 0.00000E+00 0.00000E+00 0.00000E+00 0.00000E+00 6.77700E-19 1.10706E-02 2.34000E-02
      648  0.00000E+00 3.74418E-06-2.00000E-03 0.00000E+00 0.00000E+00 0.00000E+00 0.00000E+00 0.00000E+00 0.00000E+00 7.27700E-19 1.18873E-02 2.34000E-02
      674  7.56460E-07 2.23233E-06-2.00000E-03 0.00000E+00 0.00000E+00 0.00000E+00 0.00000E+00 0.00000E+00 0.00000E+00 7.21376E-03 2.97443E-03 2.34000E-02
      676  5.97324E-07 1.88794E-06-2.00000E-03 0.00000E+00 0.00000E+00 0.00000E+00 0.00000E+00 0.00000E+00 0.00000E+00 5.51820E-03 5.51719E-03 2.34000E-02
      678  4.03857E-07 2.11222E-06-2.00000E-03 0.00000E+00 0.00000E+00 0.00000E+00 0.00000E+00 0.00000E+00 0.00000E+00 2.97520E-03 7.21411E-03 2.34000E-02
      680  0.00000E+00 3.99884E-06-2.00000E-03 0.00000E+00 0.00000E+00 0.00000E+00 0.00000E+00 0.00000E+00 0.00000E+00 4.77700E-19 7.80540E-03 2.34000E-02
      821  9.16603E-07 2.31154E-06-2.00000E-03 0.00000E+00 0.00000E+00 0.00000E+00 0.00000E+00 0.00000E+00 0.00000E+00 9.49292E-03 3.87241E-03 2.34000E-02
      822  1.00544E-06 1.90648E-06-2.00000E-03 0.00000E+00 0.00000E+00 0.00000E+00 0.00000E+00 0.00000E+00 0.00000E+00 7.25391E-03 7.24571E-03 2.34000E-02
      823  5.28258E-07 1.96822E-06-2.00000E-03 0.00000E+00 0.00000E+00 0.00000E+00 0.00000E+00 0.00000E+00 0.00000E+00 3.87983E-03 9.49027E-03 2.34000E-02
      824  0.00000E+00 3.49517E-06-2.00000E-03 0.00000E+00 0.00000E+00 0.00000E+00 0.00000E+00 0.00000E+00 0.00000E+00 6.27700E-19 1.02542E-02 2.34000E-02
      850  7.00415E-07 1.90137E-06-2.00000E-03 0.00000E+00 0.00000E+00 0.00000E+00 0.00000E+00 0.00000E+00 0.00000E+00 1.17717E-02 4.77000E-03 2.34000E-02
      852  5.54056E-07 1.79439E-06-2.00000E-03 0.00000E+00 0.00000E+00 0.00000E+00 0.00000E+00 0.00000E+00 0.00000E+00 8.98885E-03 8.97399E-03 2.34000E-02
      854  2.54292E-07 2.33772E-06-2.00000E-03 0.00000E+00 0.00000E+00 0.00000E+00 0.00000E+00 0.00000E+00 0.00000E+00 4.78395E-03 1.17669E-02 2.34000E-02
      856  0.00000E+00 4.68331E-06-2.00000E-03 0.00000E+00 0.00000E+00 0.00000E+00 0.00000E+00 0.00000E+00 0.00000E+00 7.77700E-19 1.27047E-02 2.34000E-02
