 LS-DYNA keyword deck by LS-PrePost                                      
                    ls-dyna smp d R14 R14.1.1s_1_ef50e1 date 06/16/2024

 n o d a l   f o r c e/e n e r g y    o u t p u t  t=   0.00000E+00

 velocity boundary condition forces/rigid body moments 

 nd#     167  xforce=   0.0000E+00   yforce=   0.0000E+00  zforce=   0.0000E+00   energy=   0.0000E+00   setid =     167 xmoment=   0.0000E+00 ymoment=   0.0000E+00 zmoment=   0.0000E+00
 nd#     168  xforce=   0.0000E+00   yforce=   0.0000E+00  zforce=   0.0000E+00   energy=   0.0000E+00   setid =     168 xmoment=   0.0000E+00 ymoment=   0.0000E+00 zmoment=   0.0000E+00
 nd#     169  xforce=   0.0000E+00   yforce=   0.0000E+00  zforce=   0.0000E+00   energy=   0.0000E+00   setid =     169 xmoment=   0.0000E+00 ymoment=   0.0000E+00 zmoment=   0.0000E+00
 nd#     170  xforce=   0.0000E+00   yforce=   0.0000E+00  zforce=   0.0000E+00   energy=   0.0000E+00   setid =     170 xmoment=   0.0000E+00 ymoment=   0.0000E+00 zmoment=   0.0000E+00
 nd#     197  xforce=   0.0000E+00   yforce=   0.0000E+00  zforce=   0.0000E+00   energy=   0.0000E+00   setid =     197 xmoment=   0.0000E+00 ymoment=   0.0000E+00 zmoment=   0.0000E+00
 nd#     198  xforce=   0.0000E+00   yforce=   0.0000E+00  zforce=   0.0000E+00   energy=   0.0000E+00   setid =     198 xmoment=   0.0000E+00 ymoment=   0.0000E+00 zmoment=   0.0000E+00
 nd#     280  xforce=   0.0000E+00   yforce=   0.0000E+00  zforce=   0.0000E+00   energy=   0.0000E+00   setid =     280 xmoment=   0.0000E+00 ymoment=   0.0000E+00 zmoment=   0.0000E+00
 nd#     323  xforce=   0.0000E+00   yforce=   0.0000E+00  zforce=   0.0000E+00   energy=   0.0000E+00   setid =     323 xmoment=   0.0000E+00 ymoment=   0.0000E+00 zmoment=   0.0000E+00
 nd#     324  xforce=   0.0000E+00   yforce=   0.0000E+00  zforce=   0.0000E+00   energy=   0.0000E+00   setid =     324 xmoment=   0.0000E+00 ymoment=   0.0000E+00 zmoment=   0.0000E+00
 nd#     338  xforce=   0.0000E+00   yforce=   0.0000E+00  zforce=   0.0000E+00   energy=   0.0000E+00   setid =     338 xmoment=   0.0000E+00 ymoment=   0.0000E+00 zmoment=   0.0000E+00
 nd#     804  xforce=   0.0000E+00   yforce=   0.0000E+00  zforce=   0.0000E+00   energy=   0.0000E+00   setid =     804 xmoment=   0.0000E+00 ymoment=   0.0000E+00 zmoment=   0.0000E+00
 nd#     806  xforce=   0.0000E+00   yforce=   0.0000E+00  zforce=   0.0000E+00   energy=   0.0000E+00   setid =     806 xmoment=   0.0000E+00 ymoment=   0.0000E+00 zmoment=   0.0000E+00
 nd#     808  xforce=   0.0000E+00   yforce=   0.0000E+00  zforce=   0.0000E+00   energy=   0.0000E+00   setid =     808 xmoment=   0.0000E+00 ymoment=   0.0000E+00 zmoment=   0.0000E+00
 nd#     852  xforce=   0.0000E+00   yforce=   0.0000E+00  zforce=   0.0000E+00   energy=   0.0000E+00   setid =     852 xmoment=   0.0000E+00 ymoment=   0.0000E+00 zmoment=   0.0000E+00
 nd#     854  xforce=   0.0000E+00   yforce=   0.0000E+00  zforce=   0.0000E+00   energy=   0.0000E+00   setid =     854 xmoment=   0.0000E+00 ymoment=   0.0000E+00 zmoment=   0.0000E+00
 nd#     856  xforce=   0.0000E+00   yforce=   0.0000E+00  zforce=   0.0000E+00   energy=   0.0000E+00   setid =     856 xmoment=   0.0000E+00 ymoment=   0.0000E+00 zmoment=   0.0000E+00
 nd#     864  xforce=   0.0000E+00   yforce=   0.0000E+00  zforce=   0.0000E+00   energy=   0.0000E+00   setid =     864 xmoment=   0.0000E+00 ymoment=   0.0000E+00 zmoment=   0.0000E+00
 nd#     866  xforce=   0.0000E+00   yforce=   0.0000E+00  zforce=   0.0000E+00   energy=   0.0000E+00   setid =     866 xmoment=   0.0000E+00 ymoment=   0.0000E+00 zmoment=   0.0000E+00
 nd#     868  xforce=   0.0000E+00   yforce=   0.0000E+00  zforce=   0.0000E+00   energy=   0.0000E+00   setid =     868 xmoment=   0.0000E+00 ymoment=   0.0000E+00 zmoment=   0.0000E+00
 nd#     880  xforce=   0.0000E+00   yforce=   0.0000E+00  zforce=   0.0000E+00   energy=   0.0000E+00   setid =     880 xmoment=   0.0000E+00 ymoment=   0.0000E+00 zmoment=   0.0000E+00
 nd#     882  xforce=   0.0000E+00   yforce=   0.0000E+00  zforce=   0.0000E+00   energy=   0.0000E+00   setid =     882 xmoment=   0.0000E+00 ymoment=   0.0000E+00 zmoment=   0.0000E+00
 nd#     884  xforce=   0.0000E+00   yforce=   0.0000E+00  zforce=   0.0000E+00   energy=   0.0000E+00   setid =     884 xmoment=   0.0000E+00 ymoment=   0.0000E+00 zmoment=   0.0000E+00
              xtotal=   0.0000E+00   ytotal=   0.0000E+00  ztotal=   0.0000E+00   etotal=   0.0000E+00

 n o d a l   f o r c e/e n e r g y    o u t p u t  t=   1.29245E+00

 velocity boundary condition forces/rigid body moments 

 nd#     167  xforce=   0.0000E+00   yforce=   0.0000E+00  zforce=  -6.3481E+01   energy=   8.2459E-04   setid =     167 xmoment=   0.0000E+00 ymoment=   0.0000E+00 zmoment=   0.0000E+00
 nd#     168  xforce=   0.0000E+00   yforce=   0.0000E+00  zforce=  -3.4968E+01   energy=   4.5625E-04   setid =     168 xmoment=   0.0000E+00 ymoment=   0.0000E+00 zmoment=   0.0000E+00
 nd#     169  xforce=   0.0000E+00   yforce=   0.0000E+00  zforce=  -7.7839E+01   energy=   9.9910E-04   setid =     169 xmoment=   0.0000E+00 ymoment=   0.0000E+00 zmoment=   0.0000E+00
 nd#     170  xforce=   0.0000E+00   yforce=   0.0000E+00  zforce=  -8.8390E+01   energy=   1.1333E-03   setid =     170 xmoment=   0.0000E+00 ymoment=   0.0000E+00 zmoment=   0.0000E+00
 nd#     197  xforce=   0.0000E+00   yforce=   0.0000E+00  zforce=  -6.2111E+01   energy=   8.1557E-04   setid =     197 xmoment=   0.0000E+00 ymoment=   0.0000E+00 zmoment=   0.0000E+00
 nd#     198  xforce=   0.0000E+00   yforce=   0.0000E+00  zforce=  -8.1707E+01   energy=   1.0545E-03   setid =     198 xmoment=   0.0000E+00 ymoment=   0.0000E+00 zmoment=   0.0000E+00
 nd#     280  xforce=   0.0000E+00   yforce=   0.0000E+00  zforce=  -8.0913E+01   energy=   1.0335E-03   setid =     280 xmoment=   0.0000E+00 ymoment=   0.0000E+00 zmoment=   0.0000E+00
 nd#     323  xforce=   0.0000E+00   yforce=   0.0000E+00  zforce=  -9.8455E+01   energy=   1.2750E-03   setid =     323 xmoment=   0.0000E+00 ymoment=   0.0000E+00 zmoment=   0.0000E+00
 nd#     324  xforce=   0.0000E+00   yforce=   0.0000E+00  zforce=  -1.0888E+02   energy=   1.4122E-03   setid =     324 xmoment=   0.0000E+00 ymoment=   0.0000E+00 zmoment=   0.0000E+00
 nd#     338  xforce=   0.0000E+00   yforce=   0.0000E+00  zforce=  -1.2180E+02   energy=   1.5619E-03   setid =     338 xmoment=   0.0000E+00 ymoment=   0.0000E+00 zmoment=   0.0000E+00
 nd#     804  xforce=   0.0000E+00   yforce=   0.0000E+00  zforce=  -1.4103E+02   energy=   1.8211E-03   setid =     804 xmoment=   0.0000E+00 ymoment=   0.0000E+00 zmoment=   0.0000E+00
 nd#     806  xforce=   0.0000E+00   yforce=   0.0000E+00  zforce=  -1.2224E+02   energy=   1.5875E-03   setid =     806 xmoment=   0.0000E+00 ymoment=   0.0000E+00 zmoment=   0.0000E+00
 nd#     808  xforce=   0.0000E+00   yforce=   0.0000E+00  zforce=  -1.3518E+02   energy=   1.7545E-03   setid =     808 xmoment=   0.0000E+00 ymoment=   0.0000E+00 zmoment=   0.0000E+00
 nd#     852  xforce=   0.0000E+00   yforce=   0.0000E+00  zforce=  -1.5152E+02   energy=   1.9659E-03   setid =     852 xmoment=   0.0000E+00 ymoment=   0.0000E+00 zmoment=   0.0000E+00
 nd#     854  xforce=   0.0000E+00   yforce=   0.0000E+00  zforce=  -1.3329E+02   energy=   1.7368E-03   setid =     854 xmoment=   0.0000E+00 ymoment=   0.0000E+00 zmoment=   0.0000E+00
 nd#     856  xforce=   0.0000E+00   yforce=   0.0000E+00  zforce=  -1.4945E+02   energy=   1.9441E-03   setid =     856 xmoment=   0.0000E+00 ymoment=   0.0000E+00 zmoment=   0.0000E+00
 nd#     864  xforce=   0.0000E+00   yforce=   0.0000E+00  zforce=  -1.4664E+02   energy=   1.9069E-03   setid =     864 xmoment=   0.0000E+00 ymoment=   0.0000E+00 zmoment=   0.0000E+00
 nd#     866  xforce=   0.0000E+00   yforce=   0.0000E+00  zforce=  -1.2839E+02   energy=   1.6738E-03   setid =     866 xmoment=   0.0000E+00 ymoment=   0.0000E+00 zmoment=   0.0000E+00
 nd#     868  xforce=   0.0000E+00   yforce=   0.0000E+00  zforce=  -1.3888E+02   energy=   1.8175E-03   setid =     868 xmoment=   0.0000E+00 ymoment=   0.0000E+00 zmoment=   0.0000E+00
 nd#     880  xforce=   0.0000E+00   yforce=   0.0000E+00  zforce=  -4.6123E+01   energy=   6.0974E-04   setid =     880 xmoment=   0.0000E+00 ymoment=   0.0000E+00 zmoment=   0.0000E+00
 nd#     882  xforce=   0.0000E+00   yforce=   0.0000E+00  zforce=  -3.5444E+01   energy=   4.7965E-04   setid =     882 xmoment=   0.0000E+00 ymoment=   0.0000E+00 zmoment=   0.0000E+00
 nd#     884  xforce=   0.0000E+00   yforce=   0.0000E+00  zforce=  -2.1035E+01   energy=   3.1401E-04   setid =     884 xmoment=   0.0000E+00 ymoment=   0.0000E+00 zmoment=   0.0000E+00
              xtotal=   0.0000E+00   ytotal=   0.0000E+00  ztotal=  -2.1678E+03   etotal=   2.8177E-02

 n o d a l   f o r c e/e n e r g y    o u t p u t  t=   2.54839E+00

 velocity boundary condition forces/rigid body moments 

 nd#     167  xforce=   0.0000E+00   yforce=   0.0000E+00  zforce=  -8.7300E+01   energy=   2.7183E-03   setid =     167 xmoment=   0.0000E+00 ymoment=   0.0000E+00 zmoment=   0.0000E+00
 nd#     168  xforce=   0.0000E+00   yforce=   0.0000E+00  zforce=  -4.3035E+01   energy=   1.4359E-03   setid =     168 xmoment=   0.0000E+00 ymoment=   0.0000E+00 zmoment=   0.0000E+00
 nd#     169  xforce=   0.0000E+00   yforce=   0.0000E+00  zforce=  -8.1324E+01   energy=   2.9981E-03   setid =     169 xmoment=   0.0000E+00 ymoment=   0.0000E+00 zmoment=   0.0000E+00
 nd#     170  xforce=   0.0000E+00   yforce=   0.0000E+00  zforce=  -1.2038E+02   energy=   3.7553E-03   setid =     170 xmoment=   0.0000E+00 ymoment=   0.0000E+00 zmoment=   0.0000E+00
 nd#     197  xforce=   0.0000E+00   yforce=   0.0000E+00  zforce=  -6.4623E+01   energy=   2.4073E-03   setid =     197 xmoment=   0.0000E+00 ymoment=   0.0000E+00 zmoment=   0.0000E+00
 nd#     198  xforce=   0.0000E+00   yforce=   0.0000E+00  zforce=  -1.1099E+02   energy=   3.4747E-03   setid =     198 xmoment=   0.0000E+00 ymoment=   0.0000E+00 zmoment=   0.0000E+00
 nd#     280  xforce=   0.0000E+00   yforce=   0.0000E+00  zforce=  -1.2080E+02   energy=   3.5669E-03   setid =     280 xmoment=   0.0000E+00 ymoment=   0.0000E+00 zmoment=   0.0000E+00
 nd#     323  xforce=   0.0000E+00   yforce=   0.0000E+00  zforce=  -1.3828E+02   energy=   4.2483E-03   setid =     323 xmoment=   0.0000E+00 ymoment=   0.0000E+00 zmoment=   0.0000E+00
 nd#     324  xforce=   0.0000E+00   yforce=   0.0000E+00  zforce=  -1.4139E+02   energy=   4.5555E-03   setid =     324 xmoment=   0.0000E+00 ymoment=   0.0000E+00 zmoment=   0.0000E+00
 nd#     338  xforce=   0.0000E+00   yforce=   0.0000E+00  zforce=  -1.6490E+02   energy=   5.1627E-03   setid =     338 xmoment=   0.0000E+00 ymoment=   0.0000E+00 zmoment=   0.0000E+00
 nd#     804  xforce=   0.0000E+00   yforce=   0.0000E+00  zforce=  -1.6838E+02   energy=   5.7072E-03   setid =     804 xmoment=   0.0000E+00 ymoment=   0.0000E+00 zmoment=   0.0000E+00
 nd#     806  xforce=   0.0000E+00   yforce=   0.0000E+00  zforce=  -1.5418E+02   energy=   5.0592E-03   setid =     806 xmoment=   0.0000E+00 ymoment=   0.0000E+00 zmoment=   0.0000E+00
 nd#     808  xforce=   0.0000E+00   yforce=   0.0000E+00  zforce=  -1.6067E+02   energy=   5.4702E-03   setid =     808 xmoment=   0.0000E+00 ymoment=   0.0000E+00 zmoment=   0.0000E+00
 nd#     852  xforce=   0.0000E+00   yforce=   0.0000E+00  zforce=  -1.7538E+02   energy=   6.0715E-03   setid =     852 xmoment=   0.0000E+00 ymoment=   0.0000E+00 zmoment=   0.0000E+00
 nd#     854  xforce=   0.0000E+00   yforce=   0.0000E+00  zforce=  -1.6154E+02   energy=   5.4396E-03   setid =     854 xmoment=   0.0000E+00 ymoment=   0.0000E+00 zmoment=   0.0000E+00
 nd#     856  xforce=   0.0000E+00   yforce=   0.0000E+00  zforce=  -1.7430E+02   energy=   6.0103E-03   setid =     856 xmoment=   0.0000E+00 ymoment=   0.0000E+00 zmoment=   0.0000E+00
 nd#     864  xforce=   0.0000E+00   yforce=   0.0000E+00  zforce=  -1.7036E+02   energy=   5.8882E-03   setid =     864 xmoment=   0.0000E+00 ymoment=   0.0000E+00 zmoment=   0.0000E+00
 nd#     866  xforce=   0.0000E+00   yforce=   0.0000E+00  zforce=  -1.6242E+02   energy=   5.3262E-03   setid =     866 xmoment=   0.0000E+00 ymoment=   0.0000E+00 zmoment=   0.0000E+00
 nd#     868  xforce=   0.0000E+00   yforce=   0.0000E+00  zforce=  -1.4022E+02   energy=   5.3228E-03   setid =     868 xmoment=   0.0000E+00 ymoment=   0.0000E+00 zmoment=   0.0000E+00
 nd#     880  xforce=   0.0000E+00   yforce=   0.0000E+00  zforce=  -3.4801E+01   energy=   1.6261E-03   setid =     880 xmoment=   0.0000E+00 ymoment=   0.0000E+00 zmoment=   0.0000E+00
 nd#     882  xforce=   0.0000E+00   yforce=   0.0000E+00  zforce=  -2.1085E+01   energy=   1.1896E-03   setid =     882 xmoment=   0.0000E+00 ymoment=   0.0000E+00 zmoment=   0.0000E+00
 nd#     884  xforce=   0.0000E+00   yforce=   0.0000E+00  zforce=   4.2408E+01   energy=   4.5577E-05   setid =     884 xmoment=   0.0000E+00 ymoment=   0.0000E+00 zmoment=   0.0000E+00
              xtotal=   0.0000E+00   ytotal=   0.0000E+00  ztotal=  -2.5539E+03   etotal=   8.7479E-02

 n o d a l   f o r c e/e n e r g y    o u t p u t  t=   4.53893E+00

 velocity boundary condition forces/rigid body moments 

 nd#     167  xforce=   0.0000E+00   yforce=   0.0000E+00  zforce=  -2.0377E+02   energy=   8.5121E-03   setid =     167 xmoment=   0.0000E+00 ymoment=   0.0000E+00 zmoment=   0.0000E+00
 nd#     168  xforce=   0.0000E+00   yforce=   0.0000E+00  zforce=  -6.8687E+01   energy=   3.6598E-03   setid =     168 xmoment=   0.0000E+00 ymoment=   0.0000E+00 zmoment=   0.0000E+00
 nd#     169  xforce=   0.0000E+00   yforce=   0.0000E+00  zforce=   1.1008E+02   energy=   2.4258E-03   setid =     169 xmoment=   0.0000E+00 ymoment=   0.0000E+00 zmoment=   0.0000E+00
 nd#     170  xforce=   0.0000E+00   yforce=   0.0000E+00  zforce=  -1.0525E+02   energy=   8.2464E-03   setid =     170 xmoment=   0.0000E+00 ymoment=   0.0000E+00 zmoment=   0.0000E+00
 nd#     197  xforce=   0.0000E+00   yforce=   0.0000E+00  zforce=  -1.1132E+02   energy=   5.9096E-03   setid =     197 xmoment=   0.0000E+00 ymoment=   0.0000E+00 zmoment=   0.0000E+00
 nd#     198  xforce=   0.0000E+00   yforce=   0.0000E+00  zforce=  -1.1696E+02   energy=   8.0122E-03   setid =     198 xmoment=   0.0000E+00 ymoment=   0.0000E+00 zmoment=   0.0000E+00
 nd#     280  xforce=   0.0000E+00   yforce=   0.0000E+00  zforce=  -5.3166E+01   energy=   7.0297E-03   setid =     280 xmoment=   0.0000E+00 ymoment=   0.0000E+00 zmoment=   0.0000E+00
 nd#     323  xforce=   0.0000E+00   yforce=   0.0000E+00  zforce=  -2.3107E+02   energy=   1.1600E-02   setid =     323 xmoment=   0.0000E+00 ymoment=   0.0000E+00 zmoment=   0.0000E+00
 nd#     324  xforce=   0.0000E+00   yforce=   0.0000E+00  zforce=  -1.7265E+02   energy=   1.0807E-02   setid =     324 xmoment=   0.0000E+00 ymoment=   0.0000E+00 zmoment=   0.0000E+00
 nd#     338  xforce=   0.0000E+00   yforce=   0.0000E+00  zforce=  -1.5838E+02   energy=   1.1598E-02   setid =     338 xmoment=   0.0000E+00 ymoment=   0.0000E+00 zmoment=   0.0000E+00
 nd#     804  xforce=   0.0000E+00   yforce=   0.0000E+00  zforce=  -1.6973E+02   energy=   1.2437E-02   setid =     804 xmoment=   0.0000E+00 ymoment=   0.0000E+00 zmoment=   0.0000E+00
 nd#     806  xforce=   0.0000E+00   yforce=   0.0000E+00  zforce=  -2.3310E+02   energy=   1.2768E-02   setid =     806 xmoment=   0.0000E+00 ymoment=   0.0000E+00 zmoment=   0.0000E+00
 nd#     808  xforce=   0.0000E+00   yforce=   0.0000E+00  zforce=  -2.0581E+02   energy=   1.2765E-02   setid =     808 xmoment=   0.0000E+00 ymoment=   0.0000E+00 zmoment=   0.0000E+00
 nd#     852  xforce=   0.0000E+00   yforce=   0.0000E+00  zforce=  -1.9585E+02   energy=   1.3461E-02   setid =     852 xmoment=   0.0000E+00 ymoment=   0.0000E+00 zmoment=   0.0000E+00
 nd#     854  xforce=   0.0000E+00   yforce=   0.0000E+00  zforce=  -2.2967E+02   energy=   1.3227E-02   setid =     854 xmoment=   0.0000E+00 ymoment=   0.0000E+00 zmoment=   0.0000E+00
 nd#     856  xforce=   0.0000E+00   yforce=   0.0000E+00  zforce=  -2.2506E+02   energy=   1.3960E-02   setid =     856 xmoment=   0.0000E+00 ymoment=   0.0000E+00 zmoment=   0.0000E+00
 nd#     864  xforce=   0.0000E+00   yforce=   0.0000E+00  zforce=  -2.0955E+02   energy=   1.3451E-02   setid =     864 xmoment=   0.0000E+00 ymoment=   0.0000E+00 zmoment=   0.0000E+00
 nd#     866  xforce=   0.0000E+00   yforce=   0.0000E+00  zforce=  -2.2335E+02   energy=   1.3005E-02   setid =     866 xmoment=   0.0000E+00 ymoment=   0.0000E+00 zmoment=   0.0000E+00
 nd#     868  xforce=   0.0000E+00   yforce=   0.0000E+00  zforce=  -1.8036E+02   energy=   1.1704E-02   setid =     868 xmoment=   0.0000E+00 ymoment=   0.0000E+00 zmoment=   0.0000E+00
 nd#     880  xforce=   0.0000E+00   yforce=   0.0000E+00  zforce=  -2.1360E+01   energy=   2.7440E-03   setid =     880 xmoment=   0.0000E+00 ymoment=   0.0000E+00 zmoment=   0.0000E+00
 nd#     882  xforce=   0.0000E+00   yforce=   0.0000E+00  zforce=  -1.0772E+01   energy=   1.8237E-03   setid =     882 xmoment=   0.0000E+00 ymoment=   0.0000E+00 zmoment=   0.0000E+00
 nd#     884  xforce=   0.0000E+00   yforce=   0.0000E+00  zforce=   4.6971E+01   energy=  -1.7335E-03   setid =     884 xmoment=   0.0000E+00 ymoment=   0.0000E+00 zmoment=   0.0000E+00
              xtotal=   0.0000E+00   ytotal=   0.0000E+00  ztotal=  -2.9688E+03   etotal=   1.9741E-01

 n o d a l   f o r c e/e n e r g y    o u t p u t  t=   6.52946E+00

 velocity boundary condition forces/rigid body moments 

 nd#     167  xforce=   0.0000E+00   yforce=   0.0000E+00  zforce=  -2.4032E+02   energy=   1.7352E-02   setid =     167 xmoment=   0.0000E+00 ymoment=   0.0000E+00 zmoment=   0.0000E+00
 nd#     168  xforce=   0.0000E+00   yforce=   0.0000E+00  zforce=  -9.0840E+01   energy=   6.8352E-03   setid =     168 xmoment=   0.0000E+00 ymoment=   0.0000E+00 zmoment=   0.0000E+00
 nd#     169  xforce=   0.0000E+00   yforce=   0.0000E+00  zforce=   1.3946E+02   energy=  -2.5413E-03   setid =     169 xmoment=   0.0000E+00 ymoment=   0.0000E+00 zmoment=   0.0000E+00
 nd#     170  xforce=   0.0000E+00   yforce=   0.0000E+00  zforce=  -7.7972E+01   energy=   1.1893E-02   setid =     170 xmoment=   0.0000E+00 ymoment=   0.0000E+00 zmoment=   0.0000E+00
 nd#     197  xforce=   0.0000E+00   yforce=   0.0000E+00  zforce=  -1.2454E+02   energy=   1.0605E-02   setid =     197 xmoment=   0.0000E+00 ymoment=   0.0000E+00 zmoment=   0.0000E+00
 nd#     198  xforce=   0.0000E+00   yforce=   0.0000E+00  zforce=  -1.3204E+02   energy=   1.2969E-02   setid =     198 xmoment=   0.0000E+00 ymoment=   0.0000E+00 zmoment=   0.0000E+00
 nd#     280  xforce=   0.0000E+00   yforce=   0.0000E+00  zforce=  -2.9856E+01   energy=   8.6822E-03   setid =     280 xmoment=   0.0000E+00 ymoment=   0.0000E+00 zmoment=   0.0000E+00
 nd#     323  xforce=   0.0000E+00   yforce=   0.0000E+00  zforce=  -2.6422E+02   energy=   2.1459E-02   setid =     323 xmoment=   0.0000E+00 ymoment=   0.0000E+00 zmoment=   0.0000E+00
 nd#     324  xforce=   0.0000E+00   yforce=   0.0000E+00  zforce=  -1.8208E+02   energy=   1.7868E-02   setid =     324 xmoment=   0.0000E+00 ymoment=   0.0000E+00 zmoment=   0.0000E+00
 nd#     338  xforce=   0.0000E+00   yforce=   0.0000E+00  zforce=  -1.4668E+02   energy=   1.7670E-02   setid =     338 xmoment=   0.0000E+00 ymoment=   0.0000E+00 zmoment=   0.0000E+00
 nd#     804  xforce=   0.0000E+00   yforce=   0.0000E+00  zforce=  -1.8094E+02   energy=   1.9418E-02   setid =     804 xmoment=   0.0000E+00 ymoment=   0.0000E+00 zmoment=   0.0000E+00
 nd#     806  xforce=   0.0000E+00   yforce=   0.0000E+00  zforce=  -2.6972E+02   energy=   2.2777E-02   setid =     806 xmoment=   0.0000E+00 ymoment=   0.0000E+00 zmoment=   0.0000E+00
 nd#     808  xforce=   0.0000E+00   yforce=   0.0000E+00  zforce=  -2.2977E+02   energy=   2.1435E-02   setid =     808 xmoment=   0.0000E+00 ymoment=   0.0000E+00 zmoment=   0.0000E+00
 nd#     852  xforce=   0.0000E+00   yforce=   0.0000E+00  zforce=  -2.1634E+02   energy=   2.1665E-02   setid =     852 xmoment=   0.0000E+00 ymoment=   0.0000E+00 zmoment=   0.0000E+00
 nd#     854  xforce=   0.0000E+00   yforce=   0.0000E+00  zforce=  -2.6761E+02   energy=   2.3125E-02   setid =     854 xmoment=   0.0000E+00 ymoment=   0.0000E+00 zmoment=   0.0000E+00
 nd#     856  xforce=   0.0000E+00   yforce=   0.0000E+00  zforce=  -2.4891E+02   energy=   2.3394E-02   setid =     856 xmoment=   0.0000E+00 ymoment=   0.0000E+00 zmoment=   0.0000E+00
 nd#     864  xforce=   0.0000E+00   yforce=   0.0000E+00  zforce=  -2.2364E+02   energy=   2.2073E-02   setid =     864 xmoment=   0.0000E+00 ymoment=   0.0000E+00 zmoment=   0.0000E+00
 nd#     866  xforce=   0.0000E+00   yforce=   0.0000E+00  zforce=  -2.5348E+02   energy=   2.2497E-02   setid =     866 xmoment=   0.0000E+00 ymoment=   0.0000E+00 zmoment=   0.0000E+00
 nd#     868  xforce=   0.0000E+00   yforce=   0.0000E+00  zforce=  -1.9130E+02   energy=   1.9102E-02   setid =     868 xmoment=   0.0000E+00 ymoment=   0.0000E+00 zmoment=   0.0000E+00
 nd#     880  xforce=   0.0000E+00   yforce=   0.0000E+00  zforce=  -2.2373E+01   energy=   3.6145E-03   setid =     880 xmoment=   0.0000E+00 ymoment=   0.0000E+00 zmoment=   0.0000E+00
 nd#     882  xforce=   0.0000E+00   yforce=   0.0000E+00  zforce=  -1.0391E+01   energy=   2.2450E-03   setid =     882 xmoment=   0.0000E+00 ymoment=   0.0000E+00 zmoment=   0.0000E+00
 nd#     884  xforce=   0.0000E+00   yforce=   0.0000E+00  zforce=   4.8254E+01   energy=  -3.6290E-03   setid =     884 xmoment=   0.0000E+00 ymoment=   0.0000E+00 zmoment=   0.0000E+00
              xtotal=   0.0000E+00   ytotal=   0.0000E+00  ztotal=  -3.2153E+03   etotal=   3.2051E-01

 n o d a l   f o r c e/e n e r g y    o u t p u t  t=   8.52000E+00

 velocity boundary condition forces/rigid body moments 

 nd#     167  xforce=   0.0000E+00   yforce=   0.0000E+00  zforce=  -2.3451E+02   energy=   2.6804E-02   setid =     167 xmoment=   0.0000E+00 ymoment=   0.0000E+00 zmoment=   0.0000E+00
 nd#     168  xforce=   0.0000E+00   yforce=   0.0000E+00  zforce=  -7.9927E+01   energy=   1.0234E-02   setid =     168 xmoment=   0.0000E+00 ymoment=   0.0000E+00 zmoment=   0.0000E+00
 nd#     169  xforce=   0.0000E+00   yforce=   0.0000E+00  zforce=   1.2202E+02   energy=  -7.7463E-03   setid =     169 xmoment=   0.0000E+00 ymoment=   0.0000E+00 zmoment=   0.0000E+00
 nd#     170  xforce=   0.0000E+00   yforce=   0.0000E+00  zforce=  -9.2760E+01   energy=   1.5292E-02   setid =     170 xmoment=   0.0000E+00 ymoment=   0.0000E+00 zmoment=   0.0000E+00
 nd#     197  xforce=   0.0000E+00   yforce=   0.0000E+00  zforce=  -1.1063E+02   energy=   1.5286E-02   setid =     197 xmoment=   0.0000E+00 ymoment=   0.0000E+00 zmoment=   0.0000E+00
 nd#     198  xforce=   0.0000E+00   yforce=   0.0000E+00  zforce=  -1.3934E+02   energy=   1.8371E-02   setid =     198 xmoment=   0.0000E+00 ymoment=   0.0000E+00 zmoment=   0.0000E+00
 nd#     280  xforce=   0.0000E+00   yforce=   0.0000E+00  zforce=  -4.4252E+01   energy=   1.0157E-02   setid =     280 xmoment=   0.0000E+00 ymoment=   0.0000E+00 zmoment=   0.0000E+00
 nd#     323  xforce=   0.0000E+00   yforce=   0.0000E+00  zforce=  -2.6599E+02   energy=   3.2014E-02   setid =     323 xmoment=   0.0000E+00 ymoment=   0.0000E+00 zmoment=   0.0000E+00
 nd#     324  xforce=   0.0000E+00   yforce=   0.0000E+00  zforce=  -1.9220E+02   energy=   2.5318E-02   setid =     324 xmoment=   0.0000E+00 ymoment=   0.0000E+00 zmoment=   0.0000E+00
 nd#     338  xforce=   0.0000E+00   yforce=   0.0000E+00  zforce=  -1.5996E+02   energy=   2.3774E-02   setid =     338 xmoment=   0.0000E+00 ymoment=   0.0000E+00 zmoment=   0.0000E+00
 nd#     804  xforce=   0.0000E+00   yforce=   0.0000E+00  zforce=  -1.8794E+02   energy=   2.6760E-02   setid =     804 xmoment=   0.0000E+00 ymoment=   0.0000E+00 zmoment=   0.0000E+00
 nd#     806  xforce=   0.0000E+00   yforce=   0.0000E+00  zforce=  -2.7054E+02   energy=   3.3531E-02   setid =     806 xmoment=   0.0000E+00 ymoment=   0.0000E+00 zmoment=   0.0000E+00
 nd#     808  xforce=   0.0000E+00   yforce=   0.0000E+00  zforce=  -2.3676E+02   energy=   3.0722E-02   setid =     808 xmoment=   0.0000E+00 ymoment=   0.0000E+00 zmoment=   0.0000E+00
 nd#     852  xforce=   0.0000E+00   yforce=   0.0000E+00  zforce=  -2.2010E+02   energy=   3.0353E-02   setid =     852 xmoment=   0.0000E+00 ymoment=   0.0000E+00 zmoment=   0.0000E+00
 nd#     854  xforce=   0.0000E+00   yforce=   0.0000E+00  zforce=  -2.7483E+02   energy=   3.3923E-02   setid =     854 xmoment=   0.0000E+00 ymoment=   0.0000E+00 zmoment=   0.0000E+00
 nd#     856  xforce=   0.0000E+00   yforce=   0.0000E+00  zforce=  -2.5636E+02   energy=   3.3452E-02   setid =     856 xmoment=   0.0000E+00 ymoment=   0.0000E+00 zmoment=   0.0000E+00
 nd#     864  xforce=   0.0000E+00   yforce=   0.0000E+00  zforce=  -2.3029E+02   energy=   3.1109E-02   setid =     864 xmoment=   0.0000E+00 ymoment=   0.0000E+00 zmoment=   0.0000E+00
 nd#     866  xforce=   0.0000E+00   yforce=   0.0000E+00  zforce=  -2.5925E+02   energy=   3.2703E-02   setid =     866 xmoment=   0.0000E+00 ymoment=   0.0000E+00 zmoment=   0.0000E+00
 nd#     868  xforce=   0.0000E+00   yforce=   0.0000E+00  zforce=  -1.8769E+02   energy=   2.6646E-02   setid =     868 xmoment=   0.0000E+00 ymoment=   0.0000E+00 zmoment=   0.0000E+00
 nd#     880  xforce=   0.0000E+00   yforce=   0.0000E+00  zforce=  -3.0391E+01   energy=   4.6648E-03   setid =     880 xmoment=   0.0000E+00 ymoment=   0.0000E+00 zmoment=   0.0000E+00
 nd#     882  xforce=   0.0000E+00   yforce=   0.0000E+00  zforce=  -1.7681E+01   energy=   2.8038E-03   setid =     882 xmoment=   0.0000E+00 ymoment=   0.0000E+00 zmoment=   0.0000E+00
 nd#     884  xforce=   0.0000E+00   yforce=   0.0000E+00  zforce=   5.5824E+01   energy=  -5.7008E-03   setid =     884 xmoment=   0.0000E+00 ymoment=   0.0000E+00 zmoment=   0.0000E+00
              xtotal=   0.0000E+00   ytotal=   0.0000E+00  ztotal=  -3.3136E+03   etotal=   4.5047E-01

 n o d a l   f o r c e/e n e r g y    o u t p u t  t=   1.16748E+01

 velocity boundary condition forces/rigid body moments 

 nd#     167  xforce=   0.0000E+00   yforce=   0.0000E+00  zforce=  -2.4973E+02   energy=   4.2080E-02   setid =     167 xmoment=   0.0000E+00 ymoment=   0.0000E+00 zmoment=   0.0000E+00
 nd#     168  xforce=   0.0000E+00   yforce=   0.0000E+00  zforce=  -8.4426E+01   energy=   1.5419E-02   setid =     168 xmoment=   0.0000E+00 ymoment=   0.0000E+00 zmoment=   0.0000E+00
 nd#     169  xforce=   0.0000E+00   yforce=   0.0000E+00  zforce=   1.3791E+02   energy=  -1.5947E-02   setid =     169 xmoment=   0.0000E+00 ymoment=   0.0000E+00 zmoment=   0.0000E+00
 nd#     170  xforce=   0.0000E+00   yforce=   0.0000E+00  zforce=  -8.9348E+01   energy=   2.1037E-02   setid =     170 xmoment=   0.0000E+00 ymoment=   0.0000E+00 zmoment=   0.0000E+00
 nd#     197  xforce=   0.0000E+00   yforce=   0.0000E+00  zforce=  -1.1447E+02   energy=   2.2387E-02   setid =     197 xmoment=   0.0000E+00 ymoment=   0.0000E+00 zmoment=   0.0000E+00
 nd#     198  xforce=   0.0000E+00   yforce=   0.0000E+00  zforce=  -1.4857E+02   energy=   2.7453E-02   setid =     198 xmoment=   0.0000E+00 ymoment=   0.0000E+00 zmoment=   0.0000E+00
 nd#     280  xforce=   0.0000E+00   yforce=   0.0000E+00  zforce=  -4.0760E+01   energy=   1.2839E-02   setid =     280 xmoment=   0.0000E+00 ymoment=   0.0000E+00 zmoment=   0.0000E+00
 nd#     323  xforce=   0.0000E+00   yforce=   0.0000E+00  zforce=  -2.8086E+02   energy=   4.9266E-02   setid =     323 xmoment=   0.0000E+00 ymoment=   0.0000E+00 zmoment=   0.0000E+00
 nd#     324  xforce=   0.0000E+00   yforce=   0.0000E+00  zforce=  -2.0199E+02   energy=   3.7754E-02   setid =     324 xmoment=   0.0000E+00 ymoment=   0.0000E+00 zmoment=   0.0000E+00
 nd#     338  xforce=   0.0000E+00   yforce=   0.0000E+00  zforce=  -1.5897E+02   energy=   3.3835E-02   setid =     338 xmoment=   0.0000E+00 ymoment=   0.0000E+00 zmoment=   0.0000E+00
 nd#     804  xforce=   0.0000E+00   yforce=   0.0000E+00  zforce=  -1.8528E+02   energy=   3.8535E-02   setid =     804 xmoment=   0.0000E+00 ymoment=   0.0000E+00 zmoment=   0.0000E+00
 nd#     806  xforce=   0.0000E+00   yforce=   0.0000E+00  zforce=  -2.8408E+02   energy=   5.1028E-02   setid =     806 xmoment=   0.0000E+00 ymoment=   0.0000E+00 zmoment=   0.0000E+00
 nd#     808  xforce=   0.0000E+00   yforce=   0.0000E+00  zforce=  -2.5257E+02   energy=   4.6159E-02   setid =     808 xmoment=   0.0000E+00 ymoment=   0.0000E+00 zmoment=   0.0000E+00
 nd#     852  xforce=   0.0000E+00   yforce=   0.0000E+00  zforce=  -2.3180E+02   energy=   4.4609E-02   setid =     852 xmoment=   0.0000E+00 ymoment=   0.0000E+00 zmoment=   0.0000E+00
 nd#     854  xforce=   0.0000E+00   yforce=   0.0000E+00  zforce=  -2.9694E+02   energy=   5.1961E-02   setid =     854 xmoment=   0.0000E+00 ymoment=   0.0000E+00 zmoment=   0.0000E+00
 nd#     856  xforce=   0.0000E+00   yforce=   0.0000E+00  zforce=  -2.7247E+02   energy=   5.0135E-02   setid =     856 xmoment=   0.0000E+00 ymoment=   0.0000E+00 zmoment=   0.0000E+00
 nd#     864  xforce=   0.0000E+00   yforce=   0.0000E+00  zforce=  -2.4547E+02   energy=   4.6118E-02   setid =     864 xmoment=   0.0000E+00 ymoment=   0.0000E+00 zmoment=   0.0000E+00
 nd#     866  xforce=   0.0000E+00   yforce=   0.0000E+00  zforce=  -2.8297E+02   energy=   4.9809E-02   setid =     866 xmoment=   0.0000E+00 ymoment=   0.0000E+00 zmoment=   0.0000E+00
 nd#     868  xforce=   0.0000E+00   yforce=   0.0000E+00  zforce=  -1.9988E+02   energy=   3.8873E-02   setid =     868 xmoment=   0.0000E+00 ymoment=   0.0000E+00 zmoment=   0.0000E+00
 nd#     880  xforce=   0.0000E+00   yforce=   0.0000E+00  zforce=  -3.8524E+01   energy=   6.8389E-03   setid =     880 xmoment=   0.0000E+00 ymoment=   0.0000E+00 zmoment=   0.0000E+00
 nd#     882  xforce=   0.0000E+00   yforce=   0.0000E+00  zforce=  -2.8891E+01   energy=   4.2730E-03   setid =     882 xmoment=   0.0000E+00 ymoment=   0.0000E+00 zmoment=   0.0000E+00
 nd#     884  xforce=   0.0000E+00   yforce=   0.0000E+00  zforce=   4.6872E+01   energy=  -8.9406E-03   setid =     884 xmoment=   0.0000E+00 ymoment=   0.0000E+00 zmoment=   0.0000E+00
              xtotal=   0.0000E+00   ytotal=   0.0000E+00  ztotal=  -3.5032E+03   etotal=   6.6552E-01

 n o d a l   f o r c e/e n e r g y    o u t p u t  t=   1.48296E+01

 velocity boundary condition forces/rigid body moments 

 nd#     167  xforce=   0.0000E+00   yforce=   0.0000E+00  zforce=  -1.8668E+02   energy=   5.5848E-02   setid =     167 xmoment=   0.0000E+00 ymoment=   0.0000E+00 zmoment=   0.0000E+00
 nd#     168  xforce=   0.0000E+00   yforce=   0.0000E+00  zforce=  -3.5877E+01   energy=   1.9215E-02   setid =     168 xmoment=   0.0000E+00 ymoment=   0.0000E+00 zmoment=   0.0000E+00
 nd#     169  xforce=   0.0000E+00   yforce=   0.0000E+00  zforce=   5.7264E+01   energy=  -2.2104E-02   setid =     169 xmoment=   0.0000E+00 ymoment=   0.0000E+00 zmoment=   0.0000E+00
 nd#     170  xforce=   0.0000E+00   yforce=   0.0000E+00  zforce=  -9.1186E+01   energy=   2.6733E-02   setid =     170 xmoment=   0.0000E+00 ymoment=   0.0000E+00 zmoment=   0.0000E+00
 nd#     197  xforce=   0.0000E+00   yforce=   0.0000E+00  zforce=  -6.4100E+01   energy=   2.8021E-02   setid =     197 xmoment=   0.0000E+00 ymoment=   0.0000E+00 zmoment=   0.0000E+00
 nd#     198  xforce=   0.0000E+00   yforce=   0.0000E+00  zforce=  -1.5919E+02   energy=   3.7163E-02   setid =     198 xmoment=   0.0000E+00 ymoment=   0.0000E+00 zmoment=   0.0000E+00
 nd#     280  xforce=   0.0000E+00   yforce=   0.0000E+00  zforce=  -1.0954E+02   energy=   1.7581E-02   setid =     280 xmoment=   0.0000E+00 ymoment=   0.0000E+00 zmoment=   0.0000E+00
 nd#     323  xforce=   0.0000E+00   yforce=   0.0000E+00  zforce=  -2.4216E+02   energy=   6.5766E-02   setid =     323 xmoment=   0.0000E+00 ymoment=   0.0000E+00 zmoment=   0.0000E+00
 nd#     324  xforce=   0.0000E+00   yforce=   0.0000E+00  zforce=  -2.1357E+02   energy=   5.0864E-02   setid =     324 xmoment=   0.0000E+00 ymoment=   0.0000E+00 zmoment=   0.0000E+00
 nd#     338  xforce=   0.0000E+00   yforce=   0.0000E+00  zforce=  -1.7779E+02   energy=   4.4459E-02   setid =     338 xmoment=   0.0000E+00 ymoment=   0.0000E+00 zmoment=   0.0000E+00
 nd#     804  xforce=   0.0000E+00   yforce=   0.0000E+00  zforce=  -1.9158E+02   energy=   5.0424E-02   setid =     804 xmoment=   0.0000E+00 ymoment=   0.0000E+00 zmoment=   0.0000E+00
 nd#     806  xforce=   0.0000E+00   yforce=   0.0000E+00  zforce=  -2.4557E+02   energy=   6.7737E-02   setid =     806 xmoment=   0.0000E+00 ymoment=   0.0000E+00 zmoment=   0.0000E+00
 nd#     808  xforce=   0.0000E+00   yforce=   0.0000E+00  zforce=  -2.5690E+02   energy=   6.2232E-02   setid =     808 xmoment=   0.0000E+00 ymoment=   0.0000E+00 zmoment=   0.0000E+00
 nd#     852  xforce=   0.0000E+00   yforce=   0.0000E+00  zforce=  -2.2071E+02   energy=   5.8885E-02   setid =     852 xmoment=   0.0000E+00 ymoment=   0.0000E+00 zmoment=   0.0000E+00
 nd#     854  xforce=   0.0000E+00   yforce=   0.0000E+00  zforce=  -2.4940E+02   energy=   6.9197E-02   setid =     854 xmoment=   0.0000E+00 ymoment=   0.0000E+00 zmoment=   0.0000E+00
 nd#     856  xforce=   0.0000E+00   yforce=   0.0000E+00  zforce=  -2.6810E+02   energy=   6.7189E-02   setid =     856 xmoment=   0.0000E+00 ymoment=   0.0000E+00 zmoment=   0.0000E+00
 nd#     864  xforce=   0.0000E+00   yforce=   0.0000E+00  zforce=  -2.1599E+02   energy=   6.0676E-02   setid =     864 xmoment=   0.0000E+00 ymoment=   0.0000E+00 zmoment=   0.0000E+00
 nd#     866  xforce=   0.0000E+00   yforce=   0.0000E+00  zforce=  -2.4123E+02   energy=   6.6346E-02   setid =     866 xmoment=   0.0000E+00 ymoment=   0.0000E+00 zmoment=   0.0000E+00
 nd#     868  xforce=   0.0000E+00   yforce=   0.0000E+00  zforce=  -1.8330E+02   energy=   5.0961E-02   setid =     868 xmoment=   0.0000E+00 ymoment=   0.0000E+00 zmoment=   0.0000E+00
 nd#     880  xforce=   0.0000E+00   yforce=   0.0000E+00  zforce=  -5.8112E+01   energy=   9.8876E-03   setid =     880 xmoment=   0.0000E+00 ymoment=   0.0000E+00 zmoment=   0.0000E+00
 nd#     882  xforce=   0.0000E+00   yforce=   0.0000E+00  zforce=  -5.4170E+01   energy=   6.8935E-03   setid =     882 xmoment=   0.0000E+00 ymoment=   0.0000E+00 zmoment=   0.0000E+00
 nd#     884  xforce=   0.0000E+00   yforce=   0.0000E+00  zforce=   1.7375E+01   energy=  -1.0967E-02   setid =     884 xmoment=   0.0000E+00 ymoment=   0.0000E+00 zmoment=   0.0000E+00
              xtotal=   0.0000E+00   ytotal=   0.0000E+00  ztotal=  -3.3905E+03   etotal=   8.8301E-01

 n o d a l   f o r c e/e n e r g y    o u t p u t  t=   1.79844E+01

 velocity boundary condition forces/rigid body moments 

 nd#     167  xforce=   0.0000E+00   yforce=   0.0000E+00  zforce=  -1.8139E+02   energy=   6.7460E-02   setid =     167 xmoment=   0.0000E+00 ymoment=   0.0000E+00 zmoment=   0.0000E+00
 nd#     168  xforce=   0.0000E+00   yforce=   0.0000E+00  zforce=  -4.6314E+01   energy=   2.1808E-02   setid =     168 xmoment=   0.0000E+00 ymoment=   0.0000E+00 zmoment=   0.0000E+00
 nd#     169  xforce=   0.0000E+00   yforce=   0.0000E+00  zforce=   5.3240E+01   energy=  -2.5590E-02   setid =     169 xmoment=   0.0000E+00 ymoment=   0.0000E+00 zmoment=   0.0000E+00
 nd#     170  xforce=   0.0000E+00   yforce=   0.0000E+00  zforce=  -9.3970E+01   energy=   3.2574E-02   setid =     170 xmoment=   0.0000E+00 ymoment=   0.0000E+00 zmoment=   0.0000E+00
 nd#     197  xforce=   0.0000E+00   yforce=   0.0000E+00  zforce=  -5.2285E+01   energy=   3.1693E-02   setid =     197 xmoment=   0.0000E+00 ymoment=   0.0000E+00 zmoment=   0.0000E+00
 nd#     198  xforce=   0.0000E+00   yforce=   0.0000E+00  zforce=  -1.3904E+02   energy=   4.6571E-02   setid =     198 xmoment=   0.0000E+00 ymoment=   0.0000E+00 zmoment=   0.0000E+00
 nd#     280  xforce=   0.0000E+00   yforce=   0.0000E+00  zforce=  -9.7672E+01   energy=   2.4118E-02   setid =     280 xmoment=   0.0000E+00 ymoment=   0.0000E+00 zmoment=   0.0000E+00
 nd#     323  xforce=   0.0000E+00   yforce=   0.0000E+00  zforce=  -2.2234E+02   energy=   8.0420E-02   setid =     323 xmoment=   0.0000E+00 ymoment=   0.0000E+00 zmoment=   0.0000E+00
 nd#     324  xforce=   0.0000E+00   yforce=   0.0000E+00  zforce=  -2.0038E+02   energy=   6.3923E-02   setid =     324 xmoment=   0.0000E+00 ymoment=   0.0000E+00 zmoment=   0.0000E+00
 nd#     338  xforce=   0.0000E+00   yforce=   0.0000E+00  zforce=  -1.5879E+02   energy=   5.5077E-02   setid =     338 xmoment=   0.0000E+00 ymoment=   0.0000E+00 zmoment=   0.0000E+00
 nd#     804  xforce=   0.0000E+00   yforce=   0.0000E+00  zforce=  -1.7161E+02   energy=   6.1882E-02   setid =     804 xmoment=   0.0000E+00 ymoment=   0.0000E+00 zmoment=   0.0000E+00
 nd#     806  xforce=   0.0000E+00   yforce=   0.0000E+00  zforce=  -2.2835E+02   energy=   8.2688E-02   setid =     806 xmoment=   0.0000E+00 ymoment=   0.0000E+00 zmoment=   0.0000E+00
 nd#     808  xforce=   0.0000E+00   yforce=   0.0000E+00  zforce=  -2.4160E+02   energy=   7.7959E-02   setid =     808 xmoment=   0.0000E+00 ymoment=   0.0000E+00 zmoment=   0.0000E+00
 nd#     852  xforce=   0.0000E+00   yforce=   0.0000E+00  zforce=  -1.8290E+02   energy=   7.1618E-02   setid =     852 xmoment=   0.0000E+00 ymoment=   0.0000E+00 zmoment=   0.0000E+00
 nd#     854  xforce=   0.0000E+00   yforce=   0.0000E+00  zforce=  -2.2945E+02   energy=   8.4303E-02   setid =     854 xmoment=   0.0000E+00 ymoment=   0.0000E+00 zmoment=   0.0000E+00
 nd#     856  xforce=   0.0000E+00   yforce=   0.0000E+00  zforce=  -2.3687E+02   energy=   8.3120E-02   setid =     856 xmoment=   0.0000E+00 ymoment=   0.0000E+00 zmoment=   0.0000E+00
 nd#     864  xforce=   0.0000E+00   yforce=   0.0000E+00  zforce=  -1.8066E+02   energy=   7.3190E-02   setid =     864 xmoment=   0.0000E+00 ymoment=   0.0000E+00 zmoment=   0.0000E+00
 nd#     866  xforce=   0.0000E+00   yforce=   0.0000E+00  zforce=  -2.2618E+02   energy=   8.1092E-02   setid =     866 xmoment=   0.0000E+00 ymoment=   0.0000E+00 zmoment=   0.0000E+00
 nd#     868  xforce=   0.0000E+00   yforce=   0.0000E+00  zforce=  -1.4165E+02   energy=   6.1213E-02   setid =     868 xmoment=   0.0000E+00 ymoment=   0.0000E+00 zmoment=   0.0000E+00
 nd#     880  xforce=   0.0000E+00   yforce=   0.0000E+00  zforce=  -5.1669E+01   energy=   1.3351E-02   setid =     880 xmoment=   0.0000E+00 ymoment=   0.0000E+00 zmoment=   0.0000E+00
 nd#     882  xforce=   0.0000E+00   yforce=   0.0000E+00  zforce=  -5.0781E+01   energy=   1.0204E-02   setid =     882 xmoment=   0.0000E+00 ymoment=   0.0000E+00 zmoment=   0.0000E+00
 nd#     884  xforce=   0.0000E+00   yforce=   0.0000E+00  zforce=   3.2280E+00   energy=  -1.1617E-02   setid =     884 xmoment=   0.0000E+00 ymoment=   0.0000E+00 zmoment=   0.0000E+00
              xtotal=   0.0000E+00   ytotal=   0.0000E+00  ztotal=  -3.0774E+03   etotal=   1.0871E+00

 n o d a l   f o r c e/e n e r g y    o u t p u t  t=   2.11391E+01

 velocity boundary condition forces/rigid body moments 

 nd#     167  xforce=   0.0000E+00   yforce=   0.0000E+00  zforce=  -1.4684E+02   energy=   7.7814E-02   setid =     167 xmoment=   0.0000E+00 ymoment=   0.0000E+00 zmoment=   0.0000E+00
 nd#     168  xforce=   0.0000E+00   yforce=   0.0000E+00  zforce=  -2.5130E+01   energy=   2.4061E-02   setid =     168 xmoment=   0.0000E+00 ymoment=   0.0000E+00 zmoment=   0.0000E+00
 nd#     169  xforce=   0.0000E+00   yforce=   0.0000E+00  zforce=   3.1747E+01   energy=  -2.8271E-02   setid =     169 xmoment=   0.0000E+00 ymoment=   0.0000E+00 zmoment=   0.0000E+00
 nd#     170  xforce=   0.0000E+00   yforce=   0.0000E+00  zforce=  -8.3208E+01   energy=   3.8163E-02   setid =     170 xmoment=   0.0000E+00 ymoment=   0.0000E+00 zmoment=   0.0000E+00
 nd#     197  xforce=   0.0000E+00   yforce=   0.0000E+00  zforce=  -2.7322E+01   energy=   3.4204E-02   setid =     197 xmoment=   0.0000E+00 ymoment=   0.0000E+00 zmoment=   0.0000E+00
 nd#     198  xforce=   0.0000E+00   yforce=   0.0000E+00  zforce=  -1.2315E+02   energy=   5.4843E-02   setid =     198 xmoment=   0.0000E+00 ymoment=   0.0000E+00 zmoment=   0.0000E+00
 nd#     280  xforce=   0.0000E+00   yforce=   0.0000E+00  zforce=  -9.5455E+01   energy=   3.0211E-02   setid =     280 xmoment=   0.0000E+00 ymoment=   0.0000E+00 zmoment=   0.0000E+00
 nd#     323  xforce=   0.0000E+00   yforce=   0.0000E+00  zforce=  -1.9078E+02   energy=   9.3453E-02   setid =     323 xmoment=   0.0000E+00 ymoment=   0.0000E+00 zmoment=   0.0000E+00
 nd#     324  xforce=   0.0000E+00   yforce=   0.0000E+00  zforce=  -1.6987E+02   energy=   7.5604E-02   setid =     324 xmoment=   0.0000E+00 ymoment=   0.0000E+00 zmoment=   0.0000E+00
 nd#     338  xforce=   0.0000E+00   yforce=   0.0000E+00  zforce=  -1.4363E+02   energy=   6.4618E-02   setid =     338 xmoment=   0.0000E+00 ymoment=   0.0000E+00 zmoment=   0.0000E+00
 nd#     804  xforce=   0.0000E+00   yforce=   0.0000E+00  zforce=  -1.5707E+02   energy=   7.2251E-02   setid =     804 xmoment=   0.0000E+00 ymoment=   0.0000E+00 zmoment=   0.0000E+00
 nd#     806  xforce=   0.0000E+00   yforce=   0.0000E+00  zforce=  -1.9791E+02   energy=   9.6136E-02   setid =     806 xmoment=   0.0000E+00 ymoment=   0.0000E+00 zmoment=   0.0000E+00
 nd#     808  xforce=   0.0000E+00   yforce=   0.0000E+00  zforce=  -2.0439E+02   energy=   9.2028E-02   setid =     808 xmoment=   0.0000E+00 ymoment=   0.0000E+00 zmoment=   0.0000E+00
 nd#     852  xforce=   0.0000E+00   yforce=   0.0000E+00  zforce=  -1.6021E+02   energy=   8.2442E-02   setid =     852 xmoment=   0.0000E+00 ymoment=   0.0000E+00 zmoment=   0.0000E+00
 nd#     854  xforce=   0.0000E+00   yforce=   0.0000E+00  zforce=  -1.8555E+02   energy=   9.7396E-02   setid =     854 xmoment=   0.0000E+00 ymoment=   0.0000E+00 zmoment=   0.0000E+00
 nd#     856  xforce=   0.0000E+00   yforce=   0.0000E+00  zforce=  -1.9287E+02   energy=   9.6678E-02   setid =     856 xmoment=   0.0000E+00 ymoment=   0.0000E+00 zmoment=   0.0000E+00
 nd#     864  xforce=   0.0000E+00   yforce=   0.0000E+00  zforce=  -1.4017E+02   energy=   8.3312E-02   setid =     864 xmoment=   0.0000E+00 ymoment=   0.0000E+00 zmoment=   0.0000E+00
 nd#     866  xforce=   0.0000E+00   yforce=   0.0000E+00  zforce=  -1.7401E+02   energy=   9.3717E-02   setid =     866 xmoment=   0.0000E+00 ymoment=   0.0000E+00 zmoment=   0.0000E+00
 nd#     868  xforce=   0.0000E+00   yforce=   0.0000E+00  zforce=  -9.4798E+01   energy=   6.8672E-02   setid =     868 xmoment=   0.0000E+00 ymoment=   0.0000E+00 zmoment=   0.0000E+00
 nd#     880  xforce=   0.0000E+00   yforce=   0.0000E+00  zforce=  -5.6479E+01   energy=   1.6763E-02   setid =     880 xmoment=   0.0000E+00 ymoment=   0.0000E+00 zmoment=   0.0000E+00
 nd#     882  xforce=   0.0000E+00   yforce=   0.0000E+00  zforce=  -5.5198E+01   energy=   1.3548E-02   setid =     882 xmoment=   0.0000E+00 ymoment=   0.0000E+00 zmoment=   0.0000E+00
 nd#     884  xforce=   0.0000E+00   yforce=   0.0000E+00  zforce=  -2.6178E+01   energy=  -1.0893E-02   setid =     884 xmoment=   0.0000E+00 ymoment=   0.0000E+00 zmoment=   0.0000E+00
              xtotal=   0.0000E+00   ytotal=   0.0000E+00  ztotal=  -2.6185E+03   etotal=   1.2667E+00

 n o d a l   f o r c e/e n e r g y    o u t p u t  t=   2.42939E+01

 velocity boundary condition forces/rigid body moments 

 nd#     167  xforce=   0.0000E+00   yforce=   0.0000E+00  zforce=  -1.5496E+02   energy=   8.7335E-02   setid =     167 xmoment=   0.0000E+00 ymoment=   0.0000E+00 zmoment=   0.0000E+00
 nd#     168  xforce=   0.0000E+00   yforce=   0.0000E+00  zforce=  -3.1415E+01   energy=   2.5845E-02   setid =     168 xmoment=   0.0000E+00 ymoment=   0.0000E+00 zmoment=   0.0000E+00
 nd#     169  xforce=   0.0000E+00   yforce=   0.0000E+00  zforce=   6.9728E+01   energy=  -3.1473E-02   setid =     169 xmoment=   0.0000E+00 ymoment=   0.0000E+00 zmoment=   0.0000E+00
 nd#     170  xforce=   0.0000E+00   yforce=   0.0000E+00  zforce=  -5.9641E+01   energy=   4.2670E-02   setid =     170 xmoment=   0.0000E+00 ymoment=   0.0000E+00 zmoment=   0.0000E+00
 nd#     197  xforce=   0.0000E+00   yforce=   0.0000E+00  zforce=  -5.5055E+01   energy=   3.6803E-02   setid =     197 xmoment=   0.0000E+00 ymoment=   0.0000E+00 zmoment=   0.0000E+00
 nd#     198  xforce=   0.0000E+00   yforce=   0.0000E+00  zforce=  -1.2562E+02   energy=   6.2692E-02   setid =     198 xmoment=   0.0000E+00 ymoment=   0.0000E+00 zmoment=   0.0000E+00
 nd#     280  xforce=   0.0000E+00   yforce=   0.0000E+00  zforce=  -9.3956E+01   energy=   3.6187E-02   setid =     280 xmoment=   0.0000E+00 ymoment=   0.0000E+00 zmoment=   0.0000E+00
 nd#     323  xforce=   0.0000E+00   yforce=   0.0000E+00  zforce=  -2.0312E+02   energy=   1.0588E-01   setid =     323 xmoment=   0.0000E+00 ymoment=   0.0000E+00 zmoment=   0.0000E+00
 nd#     324  xforce=   0.0000E+00   yforce=   0.0000E+00  zforce=  -1.6373E+02   energy=   8.6128E-02   setid =     324 xmoment=   0.0000E+00 ymoment=   0.0000E+00 zmoment=   0.0000E+00
 nd#     338  xforce=   0.0000E+00   yforce=   0.0000E+00  zforce=  -1.2302E+02   energy=   7.3030E-02   setid =     338 xmoment=   0.0000E+00 ymoment=   0.0000E+00 zmoment=   0.0000E+00
 nd#     804  xforce=   0.0000E+00   yforce=   0.0000E+00  zforce=  -1.3952E+02   energy=   8.1608E-02   setid =     804 xmoment=   0.0000E+00 ymoment=   0.0000E+00 zmoment=   0.0000E+00
 nd#     806  xforce=   0.0000E+00   yforce=   0.0000E+00  zforce=  -2.0801E+02   energy=   1.0894E-01   setid =     806 xmoment=   0.0000E+00 ymoment=   0.0000E+00 zmoment=   0.0000E+00
 nd#     808  xforce=   0.0000E+00   yforce=   0.0000E+00  zforce=  -2.0111E+02   energy=   1.0482E-01   setid =     808 xmoment=   0.0000E+00 ymoment=   0.0000E+00 zmoment=   0.0000E+00
 nd#     852  xforce=   0.0000E+00   yforce=   0.0000E+00  zforce=  -1.5175E+02   energy=   9.2284E-02   setid =     852 xmoment=   0.0000E+00 ymoment=   0.0000E+00 zmoment=   0.0000E+00
 nd#     854  xforce=   0.0000E+00   yforce=   0.0000E+00  zforce=  -2.0203E+02   energy=   1.0962E-01   setid =     854 xmoment=   0.0000E+00 ymoment=   0.0000E+00 zmoment=   0.0000E+00
 nd#     856  xforce=   0.0000E+00   yforce=   0.0000E+00  zforce=  -1.9646E+02   energy=   1.0896E-01   setid =     856 xmoment=   0.0000E+00 ymoment=   0.0000E+00 zmoment=   0.0000E+00
 nd#     864  xforce=   0.0000E+00   yforce=   0.0000E+00  zforce=  -1.1785E+02   energy=   9.1452E-02   setid =     864 xmoment=   0.0000E+00 ymoment=   0.0000E+00 zmoment=   0.0000E+00
 nd#     866  xforce=   0.0000E+00   yforce=   0.0000E+00  zforce=  -1.7076E+02   energy=   1.0459E-01   setid =     866 xmoment=   0.0000E+00 ymoment=   0.0000E+00 zmoment=   0.0000E+00
 nd#     868  xforce=   0.0000E+00   yforce=   0.0000E+00  zforce=  -9.6111E+01   energy=   7.4695E-02   setid =     868 xmoment=   0.0000E+00 ymoment=   0.0000E+00 zmoment=   0.0000E+00
 nd#     880  xforce=   0.0000E+00   yforce=   0.0000E+00  zforce=  -4.1203E+01   energy=   1.9844E-02   setid =     880 xmoment=   0.0000E+00 ymoment=   0.0000E+00 zmoment=   0.0000E+00
 nd#     882  xforce=   0.0000E+00   yforce=   0.0000E+00  zforce=  -5.0389E+01   energy=   1.6879E-02   setid =     882 xmoment=   0.0000E+00 ymoment=   0.0000E+00 zmoment=   0.0000E+00
 nd#     884  xforce=   0.0000E+00   yforce=   0.0000E+00  zforce=  -2.4150E+01   energy=  -9.3056E-03   setid =     884 xmoment=   0.0000E+00 ymoment=   0.0000E+00 zmoment=   0.0000E+00
              xtotal=   0.0000E+00   ytotal=   0.0000E+00  ztotal=  -2.5401E+03   etotal=   1.4295E+00

 n o d a l   f o r c e/e n e r g y    o u t p u t  t=   2.74487E+01

 velocity boundary condition forces/rigid body moments 

 nd#     167  xforce=   0.0000E+00   yforce=   0.0000E+00  zforce=  -1.4369E+02   energy=   9.6757E-02   setid =     167 xmoment=   0.0000E+00 ymoment=   0.0000E+00 zmoment=   0.0000E+00
 nd#     168  xforce=   0.0000E+00   yforce=   0.0000E+00  zforce=  -2.6082E+01   energy=   2.7659E-02   setid =     168 xmoment=   0.0000E+00 ymoment=   0.0000E+00 zmoment=   0.0000E+00
 nd#     169  xforce=   0.0000E+00   yforce=   0.0000E+00  zforce=   6.4762E+01   energy=  -3.5715E-02   setid =     169 xmoment=   0.0000E+00 ymoment=   0.0000E+00 zmoment=   0.0000E+00
 nd#     170  xforce=   0.0000E+00   yforce=   0.0000E+00  zforce=  -5.5689E+01   energy=   4.6308E-02   setid =     170 xmoment=   0.0000E+00 ymoment=   0.0000E+00 zmoment=   0.0000E+00
 nd#     197  xforce=   0.0000E+00   yforce=   0.0000E+00  zforce=  -4.7626E+01   energy=   4.0042E-02   setid =     197 xmoment=   0.0000E+00 ymoment=   0.0000E+00 zmoment=   0.0000E+00
 nd#     198  xforce=   0.0000E+00   yforce=   0.0000E+00  zforce=  -1.1726E+02   energy=   7.0354E-02   setid =     198 xmoment=   0.0000E+00 ymoment=   0.0000E+00 zmoment=   0.0000E+00
 nd#     280  xforce=   0.0000E+00   yforce=   0.0000E+00  zforce=  -9.9493E+01   energy=   4.2290E-02   setid =     280 xmoment=   0.0000E+00 ymoment=   0.0000E+00 zmoment=   0.0000E+00
 nd#     323  xforce=   0.0000E+00   yforce=   0.0000E+00  zforce=  -1.9275E+02   energy=   1.1837E-01   setid =     323 xmoment=   0.0000E+00 ymoment=   0.0000E+00 zmoment=   0.0000E+00
 nd#     324  xforce=   0.0000E+00   yforce=   0.0000E+00  zforce=  -1.5817E+02   energy=   9.6284E-02   setid =     324 xmoment=   0.0000E+00 ymoment=   0.0000E+00 zmoment=   0.0000E+00
 nd#     338  xforce=   0.0000E+00   yforce=   0.0000E+00  zforce=  -1.1499E+02   energy=   8.0539E-02   setid =     338 xmoment=   0.0000E+00 ymoment=   0.0000E+00 zmoment=   0.0000E+00
 nd#     804  xforce=   0.0000E+00   yforce=   0.0000E+00  zforce=  -1.3805E+02   energy=   9.0364E-02   setid =     804 xmoment=   0.0000E+00 ymoment=   0.0000E+00 zmoment=   0.0000E+00
 nd#     806  xforce=   0.0000E+00   yforce=   0.0000E+00  zforce=  -2.0230E+02   energy=   1.2189E-01   setid =     806 xmoment=   0.0000E+00 ymoment=   0.0000E+00 zmoment=   0.0000E+00
 nd#     808  xforce=   0.0000E+00   yforce=   0.0000E+00  zforce=  -1.9208E+02   energy=   1.1722E-01   setid =     808 xmoment=   0.0000E+00 ymoment=   0.0000E+00 zmoment=   0.0000E+00
 nd#     852  xforce=   0.0000E+00   yforce=   0.0000E+00  zforce=  -1.4592E+02   energy=   1.0167E-01   setid =     852 xmoment=   0.0000E+00 ymoment=   0.0000E+00 zmoment=   0.0000E+00
 nd#     854  xforce=   0.0000E+00   yforce=   0.0000E+00  zforce=  -1.9731E+02   energy=   1.2222E-01   setid =     854 xmoment=   0.0000E+00 ymoment=   0.0000E+00 zmoment=   0.0000E+00
 nd#     856  xforce=   0.0000E+00   yforce=   0.0000E+00  zforce=  -1.8458E+02   energy=   1.2098E-01   setid =     856 xmoment=   0.0000E+00 ymoment=   0.0000E+00 zmoment=   0.0000E+00
 nd#     864  xforce=   0.0000E+00   yforce=   0.0000E+00  zforce=  -1.0130E+02   energy=   9.8365E-02   setid =     864 xmoment=   0.0000E+00 ymoment=   0.0000E+00 zmoment=   0.0000E+00
 nd#     866  xforce=   0.0000E+00   yforce=   0.0000E+00  zforce=  -1.6154E+02   energy=   1.1508E-01   setid =     866 xmoment=   0.0000E+00 ymoment=   0.0000E+00 zmoment=   0.0000E+00
 nd#     868  xforce=   0.0000E+00   yforce=   0.0000E+00  zforce=  -7.8423E+01   energy=   8.0201E-02   setid =     868 xmoment=   0.0000E+00 ymoment=   0.0000E+00 zmoment=   0.0000E+00
 nd#     880  xforce=   0.0000E+00   yforce=   0.0000E+00  zforce=  -3.6203E+01   energy=   2.2286E-02   setid =     880 xmoment=   0.0000E+00 ymoment=   0.0000E+00 zmoment=   0.0000E+00
 nd#     882  xforce=   0.0000E+00   yforce=   0.0000E+00  zforce=  -4.9923E+01   energy=   2.0044E-02   setid =     882 xmoment=   0.0000E+00 ymoment=   0.0000E+00 zmoment=   0.0000E+00
 nd#     884  xforce=   0.0000E+00   yforce=   0.0000E+00  zforce=  -1.3329E+01   energy=  -8.1232E-03   setid =     884 xmoment=   0.0000E+00 ymoment=   0.0000E+00 zmoment=   0.0000E+00
              xtotal=   0.0000E+00   ytotal=   0.0000E+00  ztotal=  -2.3919E+03   etotal=   1.5851E+00

 n o d a l   f o r c e/e n e r g y    o u t p u t  t=   3.06035E+01

 velocity boundary condition forces/rigid body moments 

 nd#     167  xforce=   0.0000E+00   yforce=   0.0000E+00  zforce=  -1.1133E+02   energy=   1.0480E-01   setid =     167 xmoment=   0.0000E+00 ymoment=   0.0000E+00 zmoment=   0.0000E+00
 nd#     168  xforce=   0.0000E+00   yforce=   0.0000E+00  zforce=  -1.2180E+01   energy=   2.8866E-02   setid =     168 xmoment=   0.0000E+00 ymoment=   0.0000E+00 zmoment=   0.0000E+00
 nd#     169  xforce=   0.0000E+00   yforce=   0.0000E+00  zforce=  -1.1825E+01   energy=  -3.7385E-02   setid =     169 xmoment=   0.0000E+00 ymoment=   0.0000E+00 zmoment=   0.0000E+00
 nd#     170  xforce=   0.0000E+00   yforce=   0.0000E+00  zforce=  -7.5901E+01   energy=   5.0460E-02   setid =     170 xmoment=   0.0000E+00 ymoment=   0.0000E+00 zmoment=   0.0000E+00
 nd#     197  xforce=   0.0000E+00   yforce=   0.0000E+00  zforce=  -1.3376E+01   energy=   4.1967E-02   setid =     197 xmoment=   0.0000E+00 ymoment=   0.0000E+00 zmoment=   0.0000E+00
 nd#     198  xforce=   0.0000E+00   yforce=   0.0000E+00  zforce=  -9.7991E+01   energy=   7.7144E-02   setid =     198 xmoment=   0.0000E+00 ymoment=   0.0000E+00 zmoment=   0.0000E+00
 nd#     280  xforce=   0.0000E+00   yforce=   0.0000E+00  zforce=  -8.5530E+01   energy=   4.8127E-02   setid =     280 xmoment=   0.0000E+00 ymoment=   0.0000E+00 zmoment=   0.0000E+00
 nd#     323  xforce=   0.0000E+00   yforce=   0.0000E+00  zforce=  -1.6742E+02   energy=   1.2973E-01   setid =     323 xmoment=   0.0000E+00 ymoment=   0.0000E+00 zmoment=   0.0000E+00
 nd#     324  xforce=   0.0000E+00   yforce=   0.0000E+00  zforce=  -1.3262E+02   energy=   1.0546E-01   setid =     324 xmoment=   0.0000E+00 ymoment=   0.0000E+00 zmoment=   0.0000E+00
 nd#     338  xforce=   0.0000E+00   yforce=   0.0000E+00  zforce=  -1.4209E+02   energy=   8.8649E-02   setid =     338 xmoment=   0.0000E+00 ymoment=   0.0000E+00 zmoment=   0.0000E+00
 nd#     804  xforce=   0.0000E+00   yforce=   0.0000E+00  zforce=  -1.5397E+02   energy=   9.9577E-02   setid =     804 xmoment=   0.0000E+00 ymoment=   0.0000E+00 zmoment=   0.0000E+00
 nd#     806  xforce=   0.0000E+00   yforce=   0.0000E+00  zforce=  -1.7356E+02   energy=   1.3374E-01   setid =     806 xmoment=   0.0000E+00 ymoment=   0.0000E+00 zmoment=   0.0000E+00
 nd#     808  xforce=   0.0000E+00   yforce=   0.0000E+00  zforce=  -1.6482E+02   energy=   1.2848E-01   setid =     808 xmoment=   0.0000E+00 ymoment=   0.0000E+00 zmoment=   0.0000E+00
 nd#     852  xforce=   0.0000E+00   yforce=   0.0000E+00  zforce=  -1.5735E+02   energy=   1.1124E-01   setid =     852 xmoment=   0.0000E+00 ymoment=   0.0000E+00 zmoment=   0.0000E+00
 nd#     854  xforce=   0.0000E+00   yforce=   0.0000E+00  zforce=  -1.6385E+02   energy=   1.3362E-01   setid =     854 xmoment=   0.0000E+00 ymoment=   0.0000E+00 zmoment=   0.0000E+00
 nd#     856  xforce=   0.0000E+00   yforce=   0.0000E+00  zforce=  -1.5566E+02   energy=   1.3171E-01   setid =     856 xmoment=   0.0000E+00 ymoment=   0.0000E+00 zmoment=   0.0000E+00
 nd#     864  xforce=   0.0000E+00   yforce=   0.0000E+00  zforce=  -1.1625E+02   energy=   1.0523E-01   setid =     864 xmoment=   0.0000E+00 ymoment=   0.0000E+00 zmoment=   0.0000E+00
 nd#     866  xforce=   0.0000E+00   yforce=   0.0000E+00  zforce=  -1.3289E+02   energy=   1.2437E-01   setid =     866 xmoment=   0.0000E+00 ymoment=   0.0000E+00 zmoment=   0.0000E+00
 nd#     868  xforce=   0.0000E+00   yforce=   0.0000E+00  zforce=  -7.1679E+01   energy=   8.4936E-02   setid =     868 xmoment=   0.0000E+00 ymoment=   0.0000E+00 zmoment=   0.0000E+00
 nd#     880  xforce=   0.0000E+00   yforce=   0.0000E+00  zforce=  -6.1334E+01   energy=   2.5364E-02   setid =     880 xmoment=   0.0000E+00 ymoment=   0.0000E+00 zmoment=   0.0000E+00
 nd#     882  xforce=   0.0000E+00   yforce=   0.0000E+00  zforce=  -5.4361E+01   energy=   2.3334E-02   setid =     882 xmoment=   0.0000E+00 ymoment=   0.0000E+00 zmoment=   0.0000E+00
 nd#     884  xforce=   0.0000E+00   yforce=   0.0000E+00  zforce=  -4.2975E+01   energy=  -6.3470E-03   setid =     884 xmoment=   0.0000E+00 ymoment=   0.0000E+00 zmoment=   0.0000E+00
              xtotal=   0.0000E+00   ytotal=   0.0000E+00  ztotal=  -2.2990E+03   etotal=   1.7331E+00

 n o d a l   f o r c e/e n e r g y    o u t p u t  t=   3.37583E+01

 velocity boundary condition forces/rigid body moments 

 nd#     167  xforce=   0.0000E+00   yforce=   0.0000E+00  zforce=  -1.5525E+02   energy=   1.1321E-01   setid =     167 xmoment=   0.0000E+00 ymoment=   0.0000E+00 zmoment=   0.0000E+00
 nd#     168  xforce=   0.0000E+00   yforce=   0.0000E+00  zforce=  -5.4831E+01   energy=   3.0980E-02   setid =     168 xmoment=   0.0000E+00 ymoment=   0.0000E+00 zmoment=   0.0000E+00
 nd#     169  xforce=   0.0000E+00   yforce=   0.0000E+00  zforce=   3.6668E+01   energy=  -3.8169E-02   setid =     169 xmoment=   0.0000E+00 ymoment=   0.0000E+00 zmoment=   0.0000E+00
 nd#     170  xforce=   0.0000E+00   yforce=   0.0000E+00  zforce=  -6.4720E+01   energy=   5.4896E-02   setid =     170 xmoment=   0.0000E+00 ymoment=   0.0000E+00 zmoment=   0.0000E+00
 nd#     197  xforce=   0.0000E+00   yforce=   0.0000E+00  zforce=  -4.5060E+01   energy=   4.3810E-02   setid =     197 xmoment=   0.0000E+00 ymoment=   0.0000E+00 zmoment=   0.0000E+00
 nd#     198  xforce=   0.0000E+00   yforce=   0.0000E+00  zforce=  -8.7751E+01   energy=   8.3004E-02   setid =     198 xmoment=   0.0000E+00 ymoment=   0.0000E+00 zmoment=   0.0000E+00
 nd#     280  xforce=   0.0000E+00   yforce=   0.0000E+00  zforce=  -7.4858E+01   energy=   5.3186E-02   setid =     280 xmoment=   0.0000E+00 ymoment=   0.0000E+00 zmoment=   0.0000E+00
 nd#     323  xforce=   0.0000E+00   yforce=   0.0000E+00  zforce=  -1.9718E+02   energy=   1.4123E-01   setid =     323 xmoment=   0.0000E+00 ymoment=   0.0000E+00 zmoment=   0.0000E+00
 nd#     324  xforce=   0.0000E+00   yforce=   0.0000E+00  zforce=  -1.2763E+02   energy=   1.1367E-01   setid =     324 xmoment=   0.0000E+00 ymoment=   0.0000E+00 zmoment=   0.0000E+00
 nd#     338  xforce=   0.0000E+00   yforce=   0.0000E+00  zforce=  -1.1987E+02   energy=   9.6914E-02   setid =     338 xmoment=   0.0000E+00 ymoment=   0.0000E+00 zmoment=   0.0000E+00
 nd#     804  xforce=   0.0000E+00   yforce=   0.0000E+00  zforce=  -1.4227E+02   energy=   1.0892E-01   setid =     804 xmoment=   0.0000E+00 ymoment=   0.0000E+00 zmoment=   0.0000E+00
 nd#     806  xforce=   0.0000E+00   yforce=   0.0000E+00  zforce=  -2.0079E+02   energy=   1.4555E-01   setid =     806 xmoment=   0.0000E+00 ymoment=   0.0000E+00 zmoment=   0.0000E+00
 nd#     808  xforce=   0.0000E+00   yforce=   0.0000E+00  zforce=  -1.6554E+02   energy=   1.3891E-01   setid =     808 xmoment=   0.0000E+00 ymoment=   0.0000E+00 zmoment=   0.0000E+00
 nd#     852  xforce=   0.0000E+00   yforce=   0.0000E+00  zforce=  -1.4582E+02   energy=   1.2081E-01   setid =     852 xmoment=   0.0000E+00 ymoment=   0.0000E+00 zmoment=   0.0000E+00
 nd#     854  xforce=   0.0000E+00   yforce=   0.0000E+00  zforce=  -1.9176E+02   energy=   1.4483E-01   setid =     854 xmoment=   0.0000E+00 ymoment=   0.0000E+00 zmoment=   0.0000E+00
 nd#     856  xforce=   0.0000E+00   yforce=   0.0000E+00  zforce=  -1.6169E+02   energy=   1.4173E-01   setid =     856 xmoment=   0.0000E+00 ymoment=   0.0000E+00 zmoment=   0.0000E+00
 nd#     864  xforce=   0.0000E+00   yforce=   0.0000E+00  zforce=  -9.8574E+01   energy=   1.1201E-01   setid =     864 xmoment=   0.0000E+00 ymoment=   0.0000E+00 zmoment=   0.0000E+00
 nd#     866  xforce=   0.0000E+00   yforce=   0.0000E+00  zforce=  -1.5111E+02   energy=   1.3332E-01   setid =     866 xmoment=   0.0000E+00 ymoment=   0.0000E+00 zmoment=   0.0000E+00
 nd#     868  xforce=   0.0000E+00   yforce=   0.0000E+00  zforce=  -4.9539E+01   energy=   8.8761E-02   setid =     868 xmoment=   0.0000E+00 ymoment=   0.0000E+00 zmoment=   0.0000E+00
 nd#     880  xforce=   0.0000E+00   yforce=   0.0000E+00  zforce=  -4.0942E+01   energy=   2.8590E-02   setid =     880 xmoment=   0.0000E+00 ymoment=   0.0000E+00 zmoment=   0.0000E+00
 nd#     882  xforce=   0.0000E+00   yforce=   0.0000E+00  zforce=  -4.8293E+01   energy=   2.6572E-02   setid =     882 xmoment=   0.0000E+00 ymoment=   0.0000E+00 zmoment=   0.0000E+00
 nd#     884  xforce=   0.0000E+00   yforce=   0.0000E+00  zforce=  -1.8189E+01   energy=  -4.4174E-03   setid =     884 xmoment=   0.0000E+00 ymoment=   0.0000E+00 zmoment=   0.0000E+00
              xtotal=   0.0000E+00   ytotal=   0.0000E+00  ztotal=  -2.3050E+03   etotal=   1.8783E+00

 n o d a l   f o r c e/e n e r g y    o u t p u t  t=   3.69131E+01

 velocity boundary condition forces/rigid body moments 

 nd#     167  xforce=   0.0000E+00   yforce=   0.0000E+00  zforce=  -1.4462E+02   energy=   1.2267E-01   setid =     167 xmoment=   0.0000E+00 ymoment=   0.0000E+00 zmoment=   0.0000E+00
 nd#     168  xforce=   0.0000E+00   yforce=   0.0000E+00  zforce=  -4.9908E+01   energy=   3.4285E-02   setid =     168 xmoment=   0.0000E+00 ymoment=   0.0000E+00 zmoment=   0.0000E+00
 nd#     169  xforce=   0.0000E+00   yforce=   0.0000E+00  zforce=   4.6001E+01   energy=  -4.0777E-02   setid =     169 xmoment=   0.0000E+00 ymoment=   0.0000E+00 zmoment=   0.0000E+00
 nd#     170  xforce=   0.0000E+00   yforce=   0.0000E+00  zforce=  -5.7386E+01   energy=   5.8748E-02   setid =     170 xmoment=   0.0000E+00 ymoment=   0.0000E+00 zmoment=   0.0000E+00
 nd#     197  xforce=   0.0000E+00   yforce=   0.0000E+00  zforce=  -4.5606E+01   energy=   4.6671E-02   setid =     197 xmoment=   0.0000E+00 ymoment=   0.0000E+00 zmoment=   0.0000E+00
 nd#     198  xforce=   0.0000E+00   yforce=   0.0000E+00  zforce=  -8.1395E+01   energy=   8.8340E-02   setid =     198 xmoment=   0.0000E+00 ymoment=   0.0000E+00 zmoment=   0.0000E+00
 nd#     280  xforce=   0.0000E+00   yforce=   0.0000E+00  zforce=  -7.7776E+01   energy=   5.8002E-02   setid =     280 xmoment=   0.0000E+00 ymoment=   0.0000E+00 zmoment=   0.0000E+00
 nd#     323  xforce=   0.0000E+00   yforce=   0.0000E+00  zforce=  -1.8726E+02   energy=   1.5336E-01   setid =     323 xmoment=   0.0000E+00 ymoment=   0.0000E+00 zmoment=   0.0000E+00
 nd#     324  xforce=   0.0000E+00   yforce=   0.0000E+00  zforce=  -1.2452E+02   energy=   1.2162E-01   setid =     324 xmoment=   0.0000E+00 ymoment=   0.0000E+00 zmoment=   0.0000E+00
 nd#     338  xforce=   0.0000E+00   yforce=   0.0000E+00  zforce=  -1.1133E+02   energy=   1.0421E-01   setid =     338 xmoment=   0.0000E+00 ymoment=   0.0000E+00 zmoment=   0.0000E+00
 nd#     804  xforce=   0.0000E+00   yforce=   0.0000E+00  zforce=  -1.3945E+02   energy=   1.1781E-01   setid =     804 xmoment=   0.0000E+00 ymoment=   0.0000E+00 zmoment=   0.0000E+00
 nd#     806  xforce=   0.0000E+00   yforce=   0.0000E+00  zforce=  -1.9512E+02   energy=   1.5804E-01   setid =     806 xmoment=   0.0000E+00 ymoment=   0.0000E+00 zmoment=   0.0000E+00
 nd#     808  xforce=   0.0000E+00   yforce=   0.0000E+00  zforce=  -1.6200E+02   energy=   1.4924E-01   setid =     808 xmoment=   0.0000E+00 ymoment=   0.0000E+00 zmoment=   0.0000E+00
 nd#     852  xforce=   0.0000E+00   yforce=   0.0000E+00  zforce=  -1.3930E+02   energy=   1.2980E-01   setid =     852 xmoment=   0.0000E+00 ymoment=   0.0000E+00 zmoment=   0.0000E+00
 nd#     854  xforce=   0.0000E+00   yforce=   0.0000E+00  zforce=  -1.7968E+02   energy=   1.5655E-01   setid =     854 xmoment=   0.0000E+00 ymoment=   0.0000E+00 zmoment=   0.0000E+00
 nd#     856  xforce=   0.0000E+00   yforce=   0.0000E+00  zforce=  -1.5049E+02   energy=   1.5158E-01   setid =     856 xmoment=   0.0000E+00 ymoment=   0.0000E+00 zmoment=   0.0000E+00
 nd#     864  xforce=   0.0000E+00   yforce=   0.0000E+00  zforce=  -9.2600E+01   energy=   1.1804E-01   setid =     864 xmoment=   0.0000E+00 ymoment=   0.0000E+00 zmoment=   0.0000E+00
 nd#     866  xforce=   0.0000E+00   yforce=   0.0000E+00  zforce=  -1.3604E+02   energy=   1.4238E-01   setid =     866 xmoment=   0.0000E+00 ymoment=   0.0000E+00 zmoment=   0.0000E+00
 nd#     868  xforce=   0.0000E+00   yforce=   0.0000E+00  zforce=  -3.5257E+01   energy=   9.1436E-02   setid =     868 xmoment=   0.0000E+00 ymoment=   0.0000E+00 zmoment=   0.0000E+00
 nd#     880  xforce=   0.0000E+00   yforce=   0.0000E+00  zforce=  -3.8317E+01   energy=   3.1091E-02   setid =     880 xmoment=   0.0000E+00 ymoment=   0.0000E+00 zmoment=   0.0000E+00
 nd#     882  xforce=   0.0000E+00   yforce=   0.0000E+00  zforce=  -4.1325E+01   energy=   2.9399E-02   setid =     882 xmoment=   0.0000E+00 ymoment=   0.0000E+00 zmoment=   0.0000E+00
 nd#     884  xforce=   0.0000E+00   yforce=   0.0000E+00  zforce=  -1.6733E+01   energy=  -3.3157E-03   setid =     884 xmoment=   0.0000E+00 ymoment=   0.0000E+00 zmoment=   0.0000E+00
              xtotal=   0.0000E+00   ytotal=   0.0000E+00  ztotal=  -2.1601E+03   etotal=   2.0192E+00

 n o d a l   f o r c e/e n e r g y    o u t p u t  t=   4.00679E+01

 velocity boundary condition forces/rigid body moments 

 nd#     167  xforce=   0.0000E+00   yforce=   0.0000E+00  zforce=  -1.6658E+02   energy=   1.3249E-01   setid =     167 xmoment=   0.0000E+00 ymoment=   0.0000E+00 zmoment=   0.0000E+00
 nd#     168  xforce=   0.0000E+00   yforce=   0.0000E+00  zforce=  -5.7641E+01   energy=   3.7678E-02   setid =     168 xmoment=   0.0000E+00 ymoment=   0.0000E+00 zmoment=   0.0000E+00
 nd#     169  xforce=   0.0000E+00   yforce=   0.0000E+00  zforce=   5.0514E+01   energy=  -4.3822E-02   setid =     169 xmoment=   0.0000E+00 ymoment=   0.0000E+00 zmoment=   0.0000E+00
 nd#     170  xforce=   0.0000E+00   yforce=   0.0000E+00  zforce=  -4.8937E+01   energy=   6.2103E-02   setid =     170 xmoment=   0.0000E+00 ymoment=   0.0000E+00 zmoment=   0.0000E+00
 nd#     197  xforce=   0.0000E+00   yforce=   0.0000E+00  zforce=  -7.1764E+01   energy=   5.0373E-02   setid =     197 xmoment=   0.0000E+00 ymoment=   0.0000E+00 zmoment=   0.0000E+00
 nd#     198  xforce=   0.0000E+00   yforce=   0.0000E+00  zforce=  -1.1862E+02   energy=   9.4650E-02   setid =     198 xmoment=   0.0000E+00 ymoment=   0.0000E+00 zmoment=   0.0000E+00
 nd#     280  xforce=   0.0000E+00   yforce=   0.0000E+00  zforce=  -8.7525E+01   energy=   6.3217E-02   setid =     280 xmoment=   0.0000E+00 ymoment=   0.0000E+00 zmoment=   0.0000E+00
 nd#     323  xforce=   0.0000E+00   yforce=   0.0000E+00  zforce=  -2.2959E+02   energy=   1.6651E-01   setid =     323 xmoment=   0.0000E+00 ymoment=   0.0000E+00 zmoment=   0.0000E+00
 nd#     324  xforce=   0.0000E+00   yforce=   0.0000E+00  zforce=  -1.6695E+02   energy=   1.3082E-01   setid =     324 xmoment=   0.0000E+00 ymoment=   0.0000E+00 zmoment=   0.0000E+00
 nd#     338  xforce=   0.0000E+00   yforce=   0.0000E+00  zforce=  -1.1950E+02   energy=   1.1149E-01   setid =     338 xmoment=   0.0000E+00 ymoment=   0.0000E+00 zmoment=   0.0000E+00
 nd#     804  xforce=   0.0000E+00   yforce=   0.0000E+00  zforce=  -1.6167E+02   energy=   1.2731E-01   setid =     804 xmoment=   0.0000E+00 ymoment=   0.0000E+00 zmoment=   0.0000E+00
 nd#     806  xforce=   0.0000E+00   yforce=   0.0000E+00  zforce=  -2.4614E+02   energy=   1.7196E-01   setid =     806 xmoment=   0.0000E+00 ymoment=   0.0000E+00 zmoment=   0.0000E+00
 nd#     808  xforce=   0.0000E+00   yforce=   0.0000E+00  zforce=  -2.0661E+02   energy=   1.6087E-01   setid =     808 xmoment=   0.0000E+00 ymoment=   0.0000E+00 zmoment=   0.0000E+00
 nd#     852  xforce=   0.0000E+00   yforce=   0.0000E+00  zforce=  -1.6903E+02   energy=   1.3953E-01   setid =     852 xmoment=   0.0000E+00 ymoment=   0.0000E+00 zmoment=   0.0000E+00
 nd#     854  xforce=   0.0000E+00   yforce=   0.0000E+00  zforce=  -2.3646E+02   energy=   1.6968E-01   setid =     854 xmoment=   0.0000E+00 ymoment=   0.0000E+00 zmoment=   0.0000E+00
 nd#     856  xforce=   0.0000E+00   yforce=   0.0000E+00  zforce=  -1.8477E+02   energy=   1.6215E-01   setid =     856 xmoment=   0.0000E+00 ymoment=   0.0000E+00 zmoment=   0.0000E+00
 nd#     864  xforce=   0.0000E+00   yforce=   0.0000E+00  zforce=  -1.0779E+02   energy=   1.2436E-01   setid =     864 xmoment=   0.0000E+00 ymoment=   0.0000E+00 zmoment=   0.0000E+00
 nd#     866  xforce=   0.0000E+00   yforce=   0.0000E+00  zforce=  -1.7762E+02   energy=   1.5228E-01   setid =     866 xmoment=   0.0000E+00 ymoment=   0.0000E+00 zmoment=   0.0000E+00
 nd#     868  xforce=   0.0000E+00   yforce=   0.0000E+00  zforce=  -6.7031E+01   energy=   9.4663E-02   setid =     868 xmoment=   0.0000E+00 ymoment=   0.0000E+00 zmoment=   0.0000E+00
 nd#     880  xforce=   0.0000E+00   yforce=   0.0000E+00  zforce=  -3.5513E+01   energy=   3.3420E-02   setid =     880 xmoment=   0.0000E+00 ymoment=   0.0000E+00 zmoment=   0.0000E+00
 nd#     882  xforce=   0.0000E+00   yforce=   0.0000E+00  zforce=  -4.8074E+01   energy=   3.2220E-02   setid =     882 xmoment=   0.0000E+00 ymoment=   0.0000E+00 zmoment=   0.0000E+00
 nd#     884  xforce=   0.0000E+00   yforce=   0.0000E+00  zforce=  -1.0447E+01   energy=  -2.4582E-03   setid =     884 xmoment=   0.0000E+00 ymoment=   0.0000E+00 zmoment=   0.0000E+00
              xtotal=   0.0000E+00   ytotal=   0.0000E+00  ztotal=  -2.6678E+03   etotal=   2.1715E+00

 n o d a l   f o r c e/e n e r g y    o u t p u t  t=   4.32227E+01

 velocity boundary condition forces/rigid body moments 

 nd#     167  xforce=   0.0000E+00   yforce=   0.0000E+00  zforce=  -1.1092E+02   energy=   1.4124E-01   setid =     167 xmoment=   0.0000E+00 ymoment=   0.0000E+00 zmoment=   0.0000E+00
 nd#     168  xforce=   0.0000E+00   yforce=   0.0000E+00  zforce=  -1.3550E+01   energy=   3.9924E-02   setid =     168 xmoment=   0.0000E+00 ymoment=   0.0000E+00 zmoment=   0.0000E+00
 nd#     169  xforce=   0.0000E+00   yforce=   0.0000E+00  zforce=   3.6146E+00   energy=  -4.5530E-02   setid =     169 xmoment=   0.0000E+00 ymoment=   0.0000E+00 zmoment=   0.0000E+00
 nd#     170  xforce=   0.0000E+00   yforce=   0.0000E+00  zforce=  -5.5250E+01   energy=   6.5389E-02   setid =     170 xmoment=   0.0000E+00 ymoment=   0.0000E+00 zmoment=   0.0000E+00
 nd#     197  xforce=   0.0000E+00   yforce=   0.0000E+00  zforce=  -3.3764E+01   energy=   5.3703E-02   setid =     197 xmoment=   0.0000E+00 ymoment=   0.0000E+00 zmoment=   0.0000E+00
 nd#     198  xforce=   0.0000E+00   yforce=   0.0000E+00  zforce=  -8.3659E+01   energy=   1.0103E-01   setid =     198 xmoment=   0.0000E+00 ymoment=   0.0000E+00 zmoment=   0.0000E+00
 nd#     280  xforce=   0.0000E+00   yforce=   0.0000E+00  zforce=  -1.0973E+02   energy=   6.9440E-02   setid =     280 xmoment=   0.0000E+00 ymoment=   0.0000E+00 zmoment=   0.0000E+00
 nd#     323  xforce=   0.0000E+00   yforce=   0.0000E+00  zforce=  -1.7248E+02   energy=   1.7920E-01   setid =     323 xmoment=   0.0000E+00 ymoment=   0.0000E+00 zmoment=   0.0000E+00
 nd#     324  xforce=   0.0000E+00   yforce=   0.0000E+00  zforce=  -1.2115E+02   energy=   1.3991E-01   setid =     324 xmoment=   0.0000E+00 ymoment=   0.0000E+00 zmoment=   0.0000E+00
 nd#     338  xforce=   0.0000E+00   yforce=   0.0000E+00  zforce=  -1.3923E+02   energy=   1.1965E-01   setid =     338 xmoment=   0.0000E+00 ymoment=   0.0000E+00 zmoment=   0.0000E+00
 nd#     804  xforce=   0.0000E+00   yforce=   0.0000E+00  zforce=  -1.6394E+02   energy=   1.3758E-01   setid =     804 xmoment=   0.0000E+00 ymoment=   0.0000E+00 zmoment=   0.0000E+00
 nd#     806  xforce=   0.0000E+00   yforce=   0.0000E+00  zforce=  -1.7891E+02   energy=   1.8537E-01   setid =     806 xmoment=   0.0000E+00 ymoment=   0.0000E+00 zmoment=   0.0000E+00
 nd#     808  xforce=   0.0000E+00   yforce=   0.0000E+00  zforce=  -1.5204E+02   energy=   1.7218E-01   setid =     808 xmoment=   0.0000E+00 ymoment=   0.0000E+00 zmoment=   0.0000E+00
 nd#     852  xforce=   0.0000E+00   yforce=   0.0000E+00  zforce=  -1.6904E+02   energy=   1.5019E-01   setid =     852 xmoment=   0.0000E+00 ymoment=   0.0000E+00 zmoment=   0.0000E+00
 nd#     854  xforce=   0.0000E+00   yforce=   0.0000E+00  zforce=  -1.7183E+02   energy=   1.8256E-01   setid =     854 xmoment=   0.0000E+00 ymoment=   0.0000E+00 zmoment=   0.0000E+00
 nd#     856  xforce=   0.0000E+00   yforce=   0.0000E+00  zforce=  -1.4726E+02   energy=   1.7263E-01   setid =     856 xmoment=   0.0000E+00 ymoment=   0.0000E+00 zmoment=   0.0000E+00
 nd#     864  xforce=   0.0000E+00   yforce=   0.0000E+00  zforce=  -1.1889E+02   energy=   1.3151E-01   setid =     864 xmoment=   0.0000E+00 ymoment=   0.0000E+00 zmoment=   0.0000E+00
 nd#     866  xforce=   0.0000E+00   yforce=   0.0000E+00  zforce=  -1.2566E+02   energy=   1.6185E-01   setid =     866 xmoment=   0.0000E+00 ymoment=   0.0000E+00 zmoment=   0.0000E+00
 nd#     868  xforce=   0.0000E+00   yforce=   0.0000E+00  zforce=  -4.6099E+01   energy=   9.8232E-02   setid =     868 xmoment=   0.0000E+00 ymoment=   0.0000E+00 zmoment=   0.0000E+00
 nd#     880  xforce=   0.0000E+00   yforce=   0.0000E+00  zforce=  -5.5522E+01   energy=   3.6292E-02   setid =     880 xmoment=   0.0000E+00 ymoment=   0.0000E+00 zmoment=   0.0000E+00
 nd#     882  xforce=   0.0000E+00   yforce=   0.0000E+00  zforce=  -4.7023E+01   energy=   3.5220E-02   setid =     882 xmoment=   0.0000E+00 ymoment=   0.0000E+00 zmoment=   0.0000E+00
 nd#     884  xforce=   0.0000E+00   yforce=   0.0000E+00  zforce=  -3.9205E+01   energy=  -8.9182E-04   setid =     884 xmoment=   0.0000E+00 ymoment=   0.0000E+00 zmoment=   0.0000E+00
              xtotal=   0.0000E+00   ytotal=   0.0000E+00  ztotal=  -2.2515E+03   etotal=   2.3267E+00

 n o d a l   f o r c e/e n e r g y    o u t p u t  t=   4.63774E+01

 velocity boundary condition forces/rigid body moments 

 nd#     167  xforce=   0.0000E+00   yforce=   0.0000E+00  zforce=  -1.4064E+02   energy=   1.4918E-01   setid =     167 xmoment=   0.0000E+00 ymoment=   0.0000E+00 zmoment=   0.0000E+00
 nd#     168  xforce=   0.0000E+00   yforce=   0.0000E+00  zforce=  -3.4510E+01   energy=   4.1440E-02   setid =     168 xmoment=   0.0000E+00 ymoment=   0.0000E+00 zmoment=   0.0000E+00
 nd#     169  xforce=   0.0000E+00   yforce=   0.0000E+00  zforce=  -3.0409E+01   energy=  -4.4684E-02   setid =     169 xmoment=   0.0000E+00 ymoment=   0.0000E+00 zmoment=   0.0000E+00
 nd#     170  xforce=   0.0000E+00   yforce=   0.0000E+00  zforce=  -7.7937E+01   energy=   6.9591E-02   setid =     170 xmoment=   0.0000E+00 ymoment=   0.0000E+00 zmoment=   0.0000E+00
 nd#     197  xforce=   0.0000E+00   yforce=   0.0000E+00  zforce=  -4.8947E+01   energy=   5.6312E-02   setid =     197 xmoment=   0.0000E+00 ymoment=   0.0000E+00 zmoment=   0.0000E+00
 nd#     198  xforce=   0.0000E+00   yforce=   0.0000E+00  zforce=  -1.3777E+02   energy=   1.0802E-01   setid =     198 xmoment=   0.0000E+00 ymoment=   0.0000E+00 zmoment=   0.0000E+00
 nd#     280  xforce=   0.0000E+00   yforce=   0.0000E+00  zforce=  -1.1857E+02   energy=   7.6642E-02   setid =     280 xmoment=   0.0000E+00 ymoment=   0.0000E+00 zmoment=   0.0000E+00
 nd#     323  xforce=   0.0000E+00   yforce=   0.0000E+00  zforce=  -2.2582E+02   energy=   1.9176E-01   setid =     323 xmoment=   0.0000E+00 ymoment=   0.0000E+00 zmoment=   0.0000E+00
 nd#     324  xforce=   0.0000E+00   yforce=   0.0000E+00  zforce=  -1.8516E+02   energy=   1.4957E-01   setid =     324 xmoment=   0.0000E+00 ymoment=   0.0000E+00 zmoment=   0.0000E+00
 nd#     338  xforce=   0.0000E+00   yforce=   0.0000E+00  zforce=  -1.7229E+02   energy=   1.2948E-01   setid =     338 xmoment=   0.0000E+00 ymoment=   0.0000E+00 zmoment=   0.0000E+00
 nd#     804  xforce=   0.0000E+00   yforce=   0.0000E+00  zforce=  -2.0351E+02   energy=   1.4917E-01   setid =     804 xmoment=   0.0000E+00 ymoment=   0.0000E+00 zmoment=   0.0000E+00
 nd#     806  xforce=   0.0000E+00   yforce=   0.0000E+00  zforce=  -2.4757E+02   energy=   1.9883E-01   setid =     806 xmoment=   0.0000E+00 ymoment=   0.0000E+00 zmoment=   0.0000E+00
 nd#     808  xforce=   0.0000E+00   yforce=   0.0000E+00  zforce=  -2.2002E+02   energy=   1.8392E-01   setid =     808 xmoment=   0.0000E+00 ymoment=   0.0000E+00 zmoment=   0.0000E+00
 nd#     852  xforce=   0.0000E+00   yforce=   0.0000E+00  zforce=  -2.3203E+02   energy=   1.6285E-01   setid =     852 xmoment=   0.0000E+00 ymoment=   0.0000E+00 zmoment=   0.0000E+00
 nd#     854  xforce=   0.0000E+00   yforce=   0.0000E+00  zforce=  -2.5783E+02   energy=   1.9612E-01   setid =     854 xmoment=   0.0000E+00 ymoment=   0.0000E+00 zmoment=   0.0000E+00
 nd#     856  xforce=   0.0000E+00   yforce=   0.0000E+00  zforce=  -2.0795E+02   energy=   1.8383E-01   setid =     856 xmoment=   0.0000E+00 ymoment=   0.0000E+00 zmoment=   0.0000E+00
 nd#     864  xforce=   0.0000E+00   yforce=   0.0000E+00  zforce=  -1.7925E+02   energy=   1.4092E-01   setid =     864 xmoment=   0.0000E+00 ymoment=   0.0000E+00 zmoment=   0.0000E+00
 nd#     866  xforce=   0.0000E+00   yforce=   0.0000E+00  zforce=  -2.2918E+02   energy=   1.7304E-01   setid =     866 xmoment=   0.0000E+00 ymoment=   0.0000E+00 zmoment=   0.0000E+00
 nd#     868  xforce=   0.0000E+00   yforce=   0.0000E+00  zforce=  -1.1748E+02   energy=   1.0339E-01   setid =     868 xmoment=   0.0000E+00 ymoment=   0.0000E+00 zmoment=   0.0000E+00
 nd#     880  xforce=   0.0000E+00   yforce=   0.0000E+00  zforce=  -5.7478E+01   energy=   3.9857E-02   setid =     880 xmoment=   0.0000E+00 ymoment=   0.0000E+00 zmoment=   0.0000E+00
 nd#     882  xforce=   0.0000E+00   yforce=   0.0000E+00  zforce=  -7.5334E+01   energy=   3.9080E-02   setid =     882 xmoment=   0.0000E+00 ymoment=   0.0000E+00 zmoment=   0.0000E+00
 nd#     884  xforce=   0.0000E+00   yforce=   0.0000E+00  zforce=  -3.0294E+00   energy=   4.4060E-04   setid =     884 xmoment=   0.0000E+00 ymoment=   0.0000E+00 zmoment=   0.0000E+00
              xtotal=   0.0000E+00   ytotal=   0.0000E+00  ztotal=  -3.2027E+03   etotal=   2.4988E+00

 n o d a l   f o r c e/e n e r g y    o u t p u t  t=   4.95322E+01

 velocity boundary condition forces/rigid body moments 

 nd#     167  xforce=   0.0000E+00   yforce=   0.0000E+00  zforce=  -1.7690E+02   energy=   1.5920E-01   setid =     167 xmoment=   0.0000E+00 ymoment=   0.0000E+00 zmoment=   0.0000E+00
 nd#     168  xforce=   0.0000E+00   yforce=   0.0000E+00  zforce=  -5.9138E+01   energy=   4.4394E-02   setid =     168 xmoment=   0.0000E+00 ymoment=   0.0000E+00 zmoment=   0.0000E+00
 nd#     169  xforce=   0.0000E+00   yforce=   0.0000E+00  zforce=   9.8089E+00   energy=  -4.4035E-02   setid =     169 xmoment=   0.0000E+00 ymoment=   0.0000E+00 zmoment=   0.0000E+00
 nd#     170  xforce=   0.0000E+00   yforce=   0.0000E+00  zforce=  -7.4932E+01   energy=   7.4414E-02   setid =     170 xmoment=   0.0000E+00 ymoment=   0.0000E+00 zmoment=   0.0000E+00
 nd#     197  xforce=   0.0000E+00   yforce=   0.0000E+00  zforce=  -6.1853E+01   energy=   5.9808E-02   setid =     197 xmoment=   0.0000E+00 ymoment=   0.0000E+00 zmoment=   0.0000E+00
 nd#     198  xforce=   0.0000E+00   yforce=   0.0000E+00  zforce=  -1.2396E+02   energy=   1.1627E-01   setid =     198 xmoment=   0.0000E+00 ymoment=   0.0000E+00 zmoment=   0.0000E+00
 nd#     280  xforce=   0.0000E+00   yforce=   0.0000E+00  zforce=  -1.0517E+02   energy=   8.3701E-02   setid =     280 xmoment=   0.0000E+00 ymoment=   0.0000E+00 zmoment=   0.0000E+00
 nd#     323  xforce=   0.0000E+00   yforce=   0.0000E+00  zforce=  -2.4572E+02   energy=   2.0664E-01   setid =     323 xmoment=   0.0000E+00 ymoment=   0.0000E+00 zmoment=   0.0000E+00
[...]
 nd#     338  xforce=   0.0000E+00   yforce=   0.0000E+00  zforce=  -1.6841E+02   energy=   2.7660E-01   setid =     338 xmoment=   0.0000E+00 ymoment=   0.0000E+00 zmoment=   0.0000E+00
 nd#     804  xforce=   0.0000E+00   yforce=   0.0000E+00  zforce=  -2.0365E+02   energy=   3.2611E-01   setid =     804 xmoment=   0.0000E+00 ymoment=   0.0000E+00 zmoment=   0.0000E+00
 nd#     806  xforce=   0.0000E+00   yforce=   0.0000E+00  zforce=  -3.4544E+02   energy=   4.4610E-01   setid =     806 xmoment=   0.0000E+00 ymoment=   0.0000E+00 zmoment=   0.0000E+00
 nd#     808  xforce=   0.0000E+00   yforce=   0.0000E+00  zforce=  -2.4412E+02   energy=   3.8069E-01   setid =     808 xmoment=   0.0000E+00 ymoment=   0.0000E+00 zmoment=   0.0000E+00
 nd#     852  xforce=   0.0000E+00   yforce=   0.0000E+00  zforce=  -2.3360E+02   energy=   3.5465E-01   setid =     852 xmoment=   0.0000E+00 ymoment=   0.0000E+00 zmoment=   0.0000E+00
 nd#     854  xforce=   0.0000E+00   yforce=   0.0000E+00  zforce=  -3.3759E+02   energy=   4.3586E-01   setid =     854 xmoment=   0.0000E+00 ymoment=   0.0000E+00 zmoment=   0.0000E+00
 nd#     856  xforce=   0.0000E+00   yforce=   0.0000E+00  zforce=  -2.2982E+02   energy=   3.6271E-01   setid =     856 xmoment=   0.0000E+00 ymoment=   0.0000E+00 zmoment=   0.0000E+00
 nd#     864  xforce=   0.0000E+00   yforce=   0.0000E+00  zforce=  -1.7983E+02   energy=   2.8219E-01   setid =     864 xmoment=   0.0000E+00 ymoment=   0.0000E+00 zmoment=   0.0000E+00
 nd#     866  xforce=   0.0000E+00   yforce=   0.0000E+00  zforce=  -2.3160E+02   energy=   3.6221E-01   setid =     866 xmoment=   0.0000E+00 ymoment=   0.0000E+00 zmoment=   0.0000E+00
 nd#     868  xforce=   0.0000E+00   yforce=   0.0000E+00  zforce=  -1.1621E+02   energy=   1.7691E-01   setid =     868 xmoment=   0.0000E+00 ymoment=   0.0000E+00 zmoment=   0.0000E+00
 nd#     880  xforce=   0.0000E+00   yforce=   0.0000E+00  zforce=  -3.2616E+01   energy=   7.4372E-02   setid =     880 xmoment=   0.0000E+00 ymoment=   0.0000E+00 zmoment=   0.0000E+00
 nd#     882  xforce=   0.0000E+00   yforce=   0.0000E+00  zforce=  -5.7981E+01   energy=   9.2136E-02   setid =     882 xmoment=   0.0000E+00 ymoment=   0.0000E+00 zmoment=   0.0000E+00
 nd#     884  xforce=   0.0000E+00   yforce=   0.0000E+00  zforce=  -7.6725E+01   energy=   1.7895E-02   setid =     884 xmoment=   0.0000E+00 ymoment=   0.0000E+00 zmoment=   0.0000E+00
              xtotal=   0.0000E+00   ytotal=   0.0000E+00  ztotal=  -3.6996E+03   etotal=   5.3241E+00

 n o d a l   f o r c e/e n e r g y    o u t p u t  t=   9.36992E+01

 velocity boundary condition forces/rigid body moments 

 nd#     167  xforce=   0.0000E+00   yforce=   0.0000E+00  zforce=  -1.8870E+02   energy=   3.2811E-01   setid =     167 xmoment=   0.0000E+00 ymoment=   0.0000E+00 zmoment=   0.0000E+00
 nd#     168  xforce=   0.0000E+00   yforce=   0.0000E+00  zforce=  -6.1829E+01   energy=   1.0720E-01   setid =     168 xmoment=   0.0000E+00 ymoment=   0.0000E+00 zmoment=   0.0000E+00
 nd#     169  xforce=   0.0000E+00   yforce=   0.0000E+00  zforce=   5.1478E+01   energy=  -4.8756E-02   setid =     169 xmoment=   0.0000E+00 ymoment=   0.0000E+00 zmoment=   0.0000E+00
 nd#     170  xforce=   0.0000E+00   yforce=   0.0000E+00  zforce=  -4.8757E+01   energy=   1.4648E-01   setid =     170 xmoment=   0.0000E+00 ymoment=   0.0000E+00 zmoment=   0.0000E+00
 nd#     197  xforce=   0.0000E+00   yforce=   0.0000E+00  zforce=   7.6833E+00   energy=   1.1105E-01   setid =     197 xmoment=   0.0000E+00 ymoment=   0.0000E+00 zmoment=   0.0000E+00
 nd#     198  xforce=   0.0000E+00   yforce=   0.0000E+00  zforce=  -6.1792E+01   energy=   2.2850E-01   setid =     198 xmoment=   0.0000E+00 ymoment=   0.0000E+00 zmoment=   0.0000E+00
 nd#     280  xforce=   0.0000E+00   yforce=   0.0000E+00  zforce=   8.3308E+00   energy=   1.5843E-01   setid =     280 xmoment=   0.0000E+00 ymoment=   0.0000E+00 zmoment=   0.0000E+00
 nd#     323  xforce=   0.0000E+00   yforce=   0.0000E+00  zforce=  -2.4038E+02   energy=   4.4036E-01   setid =     323 xmoment=   0.0000E+00 ymoment=   0.0000E+00 zmoment=   0.0000E+00
 nd#     324  xforce=   0.0000E+00   yforce=   0.0000E+00  zforce=  -1.1454E+02   energy=   3.2395E-01   setid =     324 xmoment=   0.0000E+00 ymoment=   0.0000E+00 zmoment=   0.0000E+00
 nd#     338  xforce=   0.0000E+00   yforce=   0.0000E+00  zforce=  -1.1663E+02   energy=   2.8560E-01   setid =     338 xmoment=   0.0000E+00 ymoment=   0.0000E+00 zmoment=   0.0000E+00
 nd#     804  xforce=   0.0000E+00   yforce=   0.0000E+00  zforce=  -1.3333E+02   energy=   3.3674E-01   setid =     804 xmoment=   0.0000E+00 ymoment=   0.0000E+00 zmoment=   0.0000E+00
 nd#     806  xforce=   0.0000E+00   yforce=   0.0000E+00  zforce=  -2.2484E+02   energy=   4.6409E-01   setid =     806 xmoment=   0.0000E+00 ymoment=   0.0000E+00 zmoment=   0.0000E+00
 nd#     808  xforce=   0.0000E+00   yforce=   0.0000E+00  zforce=  -1.2512E+02   energy=   3.9234E-01   setid =     808 xmoment=   0.0000E+00 ymoment=   0.0000E+00 zmoment=   0.0000E+00
 nd#     852  xforce=   0.0000E+00   yforce=   0.0000E+00  zforce=  -1.2862E+02   energy=   3.6607E-01   setid =     852 xmoment=   0.0000E+00 ymoment=   0.0000E+00 zmoment=   0.0000E+00
 nd#     854  xforce=   0.0000E+00   yforce=   0.0000E+00  zforce=  -2.1526E+02   energy=   4.5330E-01   setid =     854 xmoment=   0.0000E+00 ymoment=   0.0000E+00 zmoment=   0.0000E+00
 nd#     856  xforce=   0.0000E+00   yforce=   0.0000E+00  zforce=  -1.1260E+02   energy=   3.7351E-01   setid =     856 xmoment=   0.0000E+00 ymoment=   0.0000E+00 zmoment=   0.0000E+00
 nd#     864  xforce=   0.0000E+00   yforce=   0.0000E+00  zforce=  -5.7057E+01   energy=   2.8967E-01   setid =     864 xmoment=   0.0000E+00 ymoment=   0.0000E+00 zmoment=   0.0000E+00
 nd#     866  xforce=   0.0000E+00   yforce=   0.0000E+00  zforce=  -1.0787E+02   energy=   3.7292E-01   setid =     866 xmoment=   0.0000E+00 ymoment=   0.0000E+00 zmoment=   0.0000E+00
 nd#     868  xforce=   0.0000E+00   yforce=   0.0000E+00  zforce=   2.7019E+00   energy=   1.8049E-01   setid =     868 xmoment=   0.0000E+00 ymoment=   0.0000E+00 zmoment=   0.0000E+00
 nd#     880  xforce=   0.0000E+00   yforce=   0.0000E+00  zforce=   4.4212E+00   energy=   7.5261E-02   setid =     880 xmoment=   0.0000E+00 ymoment=   0.0000E+00 zmoment=   0.0000E+00
 nd#     882  xforce=   0.0000E+00   yforce=   0.0000E+00  zforce=  -1.4349E+01   energy=   9.4418E-02   setid =     882 xmoment=   0.0000E+00 ymoment=   0.0000E+00 zmoment=   0.0000E+00
 nd#     884  xforce=   0.0000E+00   yforce=   0.0000E+00  zforce=  -1.0467E+02   energy=   2.3618E-02   setid =     884 xmoment=   0.0000E+00 ymoment=   0.0000E+00 zmoment=   0.0000E+00
              xtotal=   0.0000E+00   ytotal=   0.0000E+00  ztotal=  -1.9817E+03   etotal=   5.5034E+00

 n o d a l   f o r c e/e n e r g y    o u t p u t  t=   9.68540E+01

 velocity boundary condition forces/rigid body moments 

 nd#     167  xforce=   0.0000E+00   yforce=   0.0000E+00  zforce=  -7.0678E+01   energy=   3.3630E-01   setid =     167 xmoment=   0.0000E+00 ymoment=   0.0000E+00 zmoment=   0.0000E+00
 nd#     168  xforce=   0.0000E+00   yforce=   0.0000E+00  zforce=   4.1757E+00   energy=   1.0902E-01   setid =     168 xmoment=   0.0000E+00 ymoment=   0.0000E+00 zmoment=   0.0000E+00
 nd#     169  xforce=   0.0000E+00   yforce=   0.0000E+00  zforce=  -6.5702E+01   energy=  -4.8307E-02   setid =     169 xmoment=   0.0000E+00 ymoment=   0.0000E+00 zmoment=   0.0000E+00
 nd#     170  xforce=   0.0000E+00   yforce=   0.0000E+00  zforce=  -1.9400E+01   energy=   1.4863E-01   setid =     170 xmoment=   0.0000E+00 ymoment=   0.0000E+00 zmoment=   0.0000E+00
 nd#     197  xforce=   0.0000E+00   yforce=   0.0000E+00  zforce=   5.2458E+01   energy=   1.0916E-01   setid =     197 xmoment=   0.0000E+00 ymoment=   0.0000E+00 zmoment=   0.0000E+00
 nd#     198  xforce=   0.0000E+00   yforce=   0.0000E+00  zforce=  -7.6356E+01   energy=   2.3286E-01   setid =     198 xmoment=   0.0000E+00 ymoment=   0.0000E+00 zmoment=   0.0000E+00
 nd#     280  xforce=   0.0000E+00   yforce=   0.0000E+00  zforce=  -2.1251E+01   energy=   1.5884E-01   setid =     280 xmoment=   0.0000E+00 ymoment=   0.0000E+00 zmoment=   0.0000E+00
 nd#     323  xforce=   0.0000E+00   yforce=   0.0000E+00  zforce=  -1.6520E+02   energy=   4.5316E-01   setid =     323 xmoment=   0.0000E+00 ymoment=   0.0000E+00 zmoment=   0.0000E+00
 nd#     324  xforce=   0.0000E+00   yforce=   0.0000E+00  zforce=  -1.2825E+02   energy=   3.3161E-01   setid =     324 xmoment=   0.0000E+00 ymoment=   0.0000E+00 zmoment=   0.0000E+00
 nd#     338  xforce=   0.0000E+00   yforce=   0.0000E+00  zforce=  -1.0435E+02   energy=   2.9257E-01   setid =     338 xmoment=   0.0000E+00 ymoment=   0.0000E+00 zmoment=   0.0000E+00
 nd#     804  xforce=   0.0000E+00   yforce=   0.0000E+00  zforce=  -1.3348E+02   energy=   3.4516E-01   setid =     804 xmoment=   0.0000E+00 ymoment=   0.0000E+00 zmoment=   0.0000E+00
 nd#     806  xforce=   0.0000E+00   yforce=   0.0000E+00  zforce=  -1.8831E+02   energy=   4.7713E-01   setid =     806 xmoment=   0.0000E+00 ymoment=   0.0000E+00 zmoment=   0.0000E+00
 nd#     808  xforce=   0.0000E+00   yforce=   0.0000E+00  zforce=  -1.2450E+02   energy=   4.0021E-01   setid =     808 xmoment=   0.0000E+00 ymoment=   0.0000E+00 zmoment=   0.0000E+00
 nd#     852  xforce=   0.0000E+00   yforce=   0.0000E+00  zforce=  -1.3730E+02   energy=   3.7446E-01   setid =     852 xmoment=   0.0000E+00 ymoment=   0.0000E+00 zmoment=   0.0000E+00
 nd#     854  xforce=   0.0000E+00   yforce=   0.0000E+00  zforce=  -1.8430E+02   energy=   4.6590E-01   setid =     854 xmoment=   0.0000E+00 ymoment=   0.0000E+00 zmoment=   0.0000E+00
 nd#     856  xforce=   0.0000E+00   yforce=   0.0000E+00  zforce=  -9.2573E+01   energy=   3.7998E-01   setid =     856 xmoment=   0.0000E+00 ymoment=   0.0000E+00 zmoment=   0.0000E+00
 nd#     864  xforce=   0.0000E+00   yforce=   0.0000E+00  zforce=  -1.0499E+02   energy=   2.9478E-01   setid =     864 xmoment=   0.0000E+00 ymoment=   0.0000E+00 zmoment=   0.0000E+00
 nd#     866  xforce=   0.0000E+00   yforce=   0.0000E+00  zforce=  -1.2077E+02   energy=   3.8013E-01   setid =     866 xmoment=   0.0000E+00 ymoment=   0.0000E+00 zmoment=   0.0000E+00
 nd#     868  xforce=   0.0000E+00   yforce=   0.0000E+00  zforce=  -1.0373E+01   energy=   1.8073E-01   setid =     868 xmoment=   0.0000E+00 ymoment=   0.0000E+00 zmoment=   0.0000E+00
 nd#     880  xforce=   0.0000E+00   yforce=   0.0000E+00  zforce=  -3.2154E+01   energy=   7.6136E-02   setid =     880 xmoment=   0.0000E+00 ymoment=   0.0000E+00 zmoment=   0.0000E+00
 nd#     882  xforce=   0.0000E+00   yforce=   0.0000E+00  zforce=  -4.7156E+01   energy=   9.6359E-02   setid =     882 xmoment=   0.0000E+00 ymoment=   0.0000E+00 zmoment=   0.0000E+00
 nd#     884  xforce=   0.0000E+00   yforce=   0.0000E+00  zforce=  -9.6990E+01   energy=   2.9980E-02   setid =     884 xmoment=   0.0000E+00 ymoment=   0.0000E+00 zmoment=   0.0000E+00
              xtotal=   0.0000E+00   ytotal=   0.0000E+00  ztotal=  -1.8675E+03   etotal=   5.6248E+00

 n o d a l   f o r c e/e n e r g y    o u t p u t  t=   9.83143E+01

 velocity boundary condition forces/rigid body moments 

 nd#     167  xforce=   0.0000E+00   yforce=   0.0000E+00  zforce=  -1.1881E+01   energy=   3.3750E-01   setid =     167 xmoment=   0.0000E+00 ymoment=   0.0000E+00 zmoment=   0.0000E+00
 nd#     168  xforce=   0.0000E+00   yforce=   0.0000E+00  zforce=   3.6148E+01   energy=   1.0843E-01   setid =     168 xmoment=   0.0000E+00 ymoment=   0.0000E+00 zmoment=   0.0000E+00
 nd#     169  xforce=   0.0000E+00   yforce=   0.0000E+00  zforce=  -2.2519E+01   energy=  -4.7019E-02   setid =     169 xmoment=   0.0000E+00 ymoment=   0.0000E+00 zmoment=   0.0000E+00
 nd#     170  xforce=   0.0000E+00   yforce=   0.0000E+00  zforce=   3.8651E+01   energy=   1.4835E-01   setid =     170 xmoment=   0.0000E+00 ymoment=   0.0000E+00 zmoment=   0.0000E+00
 nd#     197  xforce=   0.0000E+00   yforce=   0.0000E+00  zforce=   1.1103E+02   energy=   1.0677E-01   setid =     197 xmoment=   0.0000E+00 ymoment=   0.0000E+00 zmoment=   0.0000E+00
 nd#     198  xforce=   0.0000E+00   yforce=   0.0000E+00  zforce=   3.4355E+00   energy=   2.3393E-01   setid =     198 xmoment=   0.0000E+00 ymoment=   0.0000E+00 zmoment=   0.0000E+00
 nd#     280  xforce=   0.0000E+00   yforce=   0.0000E+00  zforce=   4.0640E+01   energy=   1.5856E-01   setid =     280 xmoment=   0.0000E+00 ymoment=   0.0000E+00 zmoment=   0.0000E+00
 nd#     323  xforce=   0.0000E+00   yforce=   0.0000E+00  zforce=  -6.4123E+01   energy=   4.5651E-01   setid =     323 xmoment=   0.0000E+00 ymoment=   0.0000E+00 zmoment=   0.0000E+00
 nd#     324  xforce=   0.0000E+00   yforce=   0.0000E+00  zforce=  -2.3322E+01   energy=   3.3383E-01   setid =     324 xmoment=   0.0000E+00 ymoment=   0.0000E+00 zmoment=   0.0000E+00
 nd#     338  xforce=   0.0000E+00   yforce=   0.0000E+00  zforce=  -1.1283E+00   energy=   2.9411E-01   setid =     338 xmoment=   0.0000E+00 ymoment=   0.0000E+00 zmoment=   0.0000E+00
 nd#     804  xforce=   0.0000E+00   yforce=   0.0000E+00  zforce=   3.1229E-01   energy=   3.4710E-01   setid =     804 xmoment=   0.0000E+00 ymoment=   0.0000E+00 zmoment=   0.0000E+00
 nd#     806  xforce=   0.0000E+00   yforce=   0.0000E+00  zforce=  -5.3318E+01   energy=   4.8066E-01   setid =     806 xmoment=   0.0000E+00 ymoment=   0.0000E+00 zmoment=   0.0000E+00
 nd#     808  xforce=   0.0000E+00   yforce=   0.0000E+00  zforce=  -7.3862E+00   energy=   4.0214E-01   setid =     808 xmoment=   0.0000E+00 ymoment=   0.0000E+00 zmoment=   0.0000E+00
 nd#     852  xforce=   0.0000E+00   yforce=   0.0000E+00  zforce=   4.8614E+00   energy=   3.7640E-01   setid =     852 xmoment=   0.0000E+00 ymoment=   0.0000E+00 zmoment=   0.0000E+00
 nd#     854  xforce=   0.0000E+00   yforce=   0.0000E+00  zforce=  -3.9921E+01   energy=   4.6918E-01   setid =     854 xmoment=   0.0000E+00 ymoment=   0.0000E+00 zmoment=   0.0000E+00
 nd#     856  xforce=   0.0000E+00   yforce=   0.0000E+00  zforce=   3.5508E+01   energy=   3.8082E-01   setid =     856 xmoment=   0.0000E+00 ymoment=   0.0000E+00 zmoment=   0.0000E+00
 nd#     864  xforce=   0.0000E+00   yforce=   0.0000E+00  zforce=   4.6406E+01   energy=   2.9563E-01   setid =     864 xmoment=   0.0000E+00 ymoment=   0.0000E+00 zmoment=   0.0000E+00
 nd#     866  xforce=   0.0000E+00   yforce=   0.0000E+00  zforce=   4.6218E+01   energy=   3.8122E-01   setid =     866 xmoment=   0.0000E+00 ymoment=   0.0000E+00 zmoment=   0.0000E+00
 nd#     868  xforce=   0.0000E+00   yforce=   0.0000E+00  zforce=   1.2460E+02   energy=   1.7906E-01   setid =     868 xmoment=   0.0000E+00 ymoment=   0.0000E+00 zmoment=   0.0000E+00
 nd#     880  xforce=   0.0000E+00   yforce=   0.0000E+00  zforce=   2.2721E+01   energy=   7.6274E-02   setid =     880 xmoment=   0.0000E+00 ymoment=   0.0000E+00 zmoment=   0.0000E+00
 nd#     882  xforce=   0.0000E+00   yforce=   0.0000E+00  zforce=   2.5119E+01   energy=   9.6680E-02   setid =     882 xmoment=   0.0000E+00 ymoment=   0.0000E+00 zmoment=   0.0000E+00
 nd#     884  xforce=   0.0000E+00   yforce=   0.0000E+00  zforce=  -5.4086E+01   energy=   3.2186E-02   setid =     884 xmoment=   0.0000E+00 ymoment=   0.0000E+00 zmoment=   0.0000E+00
              xtotal=   0.0000E+00   ytotal=   0.0000E+00  ztotal=   2.5797E+02   etotal=   5.6483E+00

 n o d a l   f o r c e/e n e r g y    o u t p u t  t=   1.00000E+02

 velocity boundary condition forces/rigid body moments 

 nd#     167  xforce=   0.0000E+00   yforce=   0.0000E+00  zforce=   5.6379E+00   energy=   3.3761E-01   setid =     167 xmoment=   0.0000E+00 ymoment=   0.0000E+00 zmoment=   0.0000E+00
 nd#     168  xforce=   0.0000E+00   yforce=   0.0000E+00  zforce=   4.6568E+01   energy=   1.0703E-01   setid =     168 xmoment=   0.0000E+00 ymoment=   0.0000E+00 zmoment=   0.0000E+00
 nd#     169  xforce=   0.0000E+00   yforce=   0.0000E+00  zforce=  -6.7515E+01   energy=  -4.5501E-02   setid =     169 xmoment=   0.0000E+00 ymoment=   0.0000E+00 zmoment=   0.0000E+00
 nd#     170  xforce=   0.0000E+00   yforce=   0.0000E+00  zforce=   4.6374E+01   energy=   1.4692E-01   setid =     170 xmoment=   0.0000E+00 ymoment=   0.0000E+00 zmoment=   0.0000E+00
 nd#     197  xforce=   0.0000E+00   yforce=   0.0000E+00  zforce=   1.2151E+02   energy=   1.0285E-01   setid =     197 xmoment=   0.0000E+00 ymoment=   0.0000E+00 zmoment=   0.0000E+00
 nd#     198  xforce=   0.0000E+00   yforce=   0.0000E+00  zforce=   1.4799E+01   energy=   2.3362E-01   setid =     198 xmoment=   0.0000E+00 ymoment=   0.0000E+00 zmoment=   0.0000E+00
 nd#     280  xforce=   0.0000E+00   yforce=   0.0000E+00  zforce=   4.4658E+01   energy=   1.5712E-01   setid =     280 xmoment=   0.0000E+00 ymoment=   0.0000E+00 zmoment=   0.0000E+00
 nd#     323  xforce=   0.0000E+00   yforce=   0.0000E+00  zforce=  -4.1592E+01   energy=   4.5829E-01   setid =     323 xmoment=   0.0000E+00 ymoment=   0.0000E+00 zmoment=   0.0000E+00
 nd#     324  xforce=   0.0000E+00   yforce=   0.0000E+00  zforce=  -7.4342E+00   energy=   3.3434E-01   setid =     324 xmoment=   0.0000E+00 ymoment=   0.0000E+00 zmoment=   0.0000E+00
 nd#     338  xforce=   0.0000E+00   yforce=   0.0000E+00  zforce=   1.7563E+01   energy=   2.9383E-01   setid =     338 xmoment=   0.0000E+00 ymoment=   0.0000E+00 zmoment=   0.0000E+00
 nd#     804  xforce=   0.0000E+00   yforce=   0.0000E+00  zforce=   2.1148E+01   energy=   3.4674E-01   setid =     804 xmoment=   0.0000E+00 ymoment=   0.0000E+00 zmoment=   0.0000E+00
 nd#     806  xforce=   0.0000E+00   yforce=   0.0000E+00  zforce=  -2.6129E+01   energy=   4.8200E-01   setid =     806 xmoment=   0.0000E+00 ymoment=   0.0000E+00 zmoment=   0.0000E+00
 nd#     808  xforce=   0.0000E+00   yforce=   0.0000E+00  zforce=   1.7609E+01   energy=   4.0197E-01   setid =     808 xmoment=   0.0000E+00 ymoment=   0.0000E+00 zmoment=   0.0000E+00
 nd#     852  xforce=   0.0000E+00   yforce=   0.0000E+00  zforce=   3.2470E+01   energy=   3.7577E-01   setid =     852 xmoment=   0.0000E+00 ymoment=   0.0000E+00 zmoment=   0.0000E+00
 nd#     854  xforce=   0.0000E+00   yforce=   0.0000E+00  zforce=  -7.5822E+00   energy=   4.6998E-01   setid =     854 xmoment=   0.0000E+00 ymoment=   0.0000E+00 zmoment=   0.0000E+00
 nd#     856  xforce=   0.0000E+00   yforce=   0.0000E+00  zforce=   6.4318E+01   energy=   3.7913E-01   setid =     856 xmoment=   0.0000E+00 ymoment=   0.0000E+00 zmoment=   0.0000E+00
 nd#     864  xforce=   0.0000E+00   yforce=   0.0000E+00  zforce=   6.5435E+01   energy=   2.9375E-01   setid =     864 xmoment=   0.0000E+00 ymoment=   0.0000E+00 zmoment=   0.0000E+00
 nd#     866  xforce=   0.0000E+00   yforce=   0.0000E+00  zforce=   7.7872E+01   energy=   3.7912E-01   setid =     866 xmoment=   0.0000E+00 ymoment=   0.0000E+00 zmoment=   0.0000E+00
 nd#     868  xforce=   0.0000E+00   yforce=   0.0000E+00  zforce=   1.3483E+02   energy=   1.7469E-01   setid =     868 xmoment=   0.0000E+00 ymoment=   0.0000E+00 zmoment=   0.0000E+00
 nd#     880  xforce=   0.0000E+00   yforce=   0.0000E+00  zforce=   2.9064E+01   energy=   7.5401E-02   setid =     880 xmoment=   0.0000E+00 ymoment=   0.0000E+00 zmoment=   0.0000E+00
 nd#     882  xforce=   0.0000E+00   yforce=   0.0000E+00  zforce=   3.3321E+01   energy=   9.5695E-02   setid =     882 xmoment=   0.0000E+00 ymoment=   0.0000E+00 zmoment=   0.0000E+00
 nd#     884  xforce=   0.0000E+00   yforce=   0.0000E+00  zforce=  -5.0958E+01   energy=   3.3957E-02   setid =     884 xmoment=   0.0000E+00 ymoment=   0.0000E+00 zmoment=   0.0000E+00
              xtotal=   0.0000E+00   ytotal=   0.0000E+00  ztotal=   5.7197E+02   etotal=   5.6343E+00
