 LS-DYNA keyword deck by LS-PrePost                                      
                    ls-dyna smp d R14 R14.1.1s_1_ef50e1 date 06/16/2024



 n o d a l  s t r e s s  c a l c u l a t i o n s   f o r   t i m e  s t e p        1   ( at time 0.00000E+00 )

 node (global)
          stress       sig-xx      sig-yy      sig-zz      sig-xy      sig-yz      sig-zx       plastic
                                                                                                 strain 
       1-
 mid.  surface    -1.6011E-04 -1.6011E-04 -1.6011E-04  0.0000E+00  0.0000E+00  0.0000E+00  0.0000E+00
       2-
 mid.  surface    -1.1843E-04 -1.1843E-04 -1.1843E-04  0.0000E+00  0.0000E+00  0.0000E+00  0.0000E+00
       8-
 mid.  surface    -2.9208E-05 -2.9208E-05 -2.9208E-05  0.0000E+00  0.0000E+00  0.0000E+00  0.0000E+00
       9-
 mid.  surface     8.3865E-05  8.3865E-05  8.3865E-05  0.0000E+00  0.0000E+00  0.0000E+00  0.0000E+00
      10-
 mid.  surface     2.2199E-05  2.2199E-05  2.2199E-05  0.0000E+00  0.0000E+00  0.0000E+00  0.0000E+00
      11-
 mid.  surface    -4.6801E-05 -4.6801E-05 -4.6801E-05  0.0000E+00  0.0000E+00  0.0000E+00  0.0000E+00
      12-
 mid.  surface     1.5223E-05  1.5223E-05  1.5223E-05  0.0000E+00  0.0000E+00  0.0000E+00  0.0000E+00
      17-
 mid.  surface    -7.2808E-06 -7.2808E-06 -7.2808E-06  0.0000E+00  0.0000E+00  0.0000E+00  0.0000E+00
      18-
 mid.  surface    -3.9787E-05 -3.9787E-05 -3.9787E-05  0.0000E+00  0.0000E+00  0.0000E+00  0.0000E+00
      19-
 mid.  surface     2.0352E-05  2.0352E-05  2.0352E-05  0.0000E+00  0.0000E+00  0.0000E+00  0.0000E+00
      20-
 mid.  surface     3.8997E-05  3.8997E-05  3.8997E-05  0.0000E+00  0.0000E+00  0.0000E+00  0.0000E+00
      21-
 mid.  surface     4.7947E-05  4.7947E-05  4.7947E-05  0.0000E+00  0.0000E+00  0.0000E+00  0.0000E+00
      22-
 mid.  surface     2.7110E-05  2.7110E-05  2.7110E-05  0.0000E+00  0.0000E+00  0.0000E+00  0.0000E+00
      23-
 mid.  surface    -5.2270E-07 -5.2270E-07 -5.2270E-07  0.0000E+00  0.0000E+00  0.0000E+00  0.0000E+00
      40-
 mid.  surface     5.2769E-05  5.2769E-05  5.2769E-05  0.0000E+00  0.0000E+00  0.0000E+00  0.0000E+00
      41-
 mid.  surface     8.6452E-06  8.6452E-06  8.6452E-06  0.0000E+00  0.0000E+00  0.0000E+00  0.0000E+00
      85-
 mid.  surface    -1.5617E-05 -1.5617E-05 -1.5617E-05  0.0000E+00  0.0000E+00  0.0000E+00  0.0000E+00
      86-
 mid.  surface    -5.2982E-05 -5.2982E-05 -5.2982E-05  0.0000E+00  0.0000E+00  0.0000E+00  0.0000E+00
     100-
 mid.  surface    -1.1256E-04 -1.1256E-04 -1.1256E-04  0.0000E+00  0.0000E+00  0.0000E+00  0.0000E+00
     110-
 mid.  surface     3.6241E-05  3.6241E-05  3.6241E-05  0.0000E+00  0.0000E+00  0.0000E+00  0.0000E+00



 n o d a l  s t r a i n  c a l c u l a t i o n s   f o r   t i m e  s t e p        1   ( at time 0.00000E+00 )

 node (global)
          strain       eps-xx      eps-yy      eps-zz      eps-xy      eps-yz      eps-zx       
       1-
 mid.  surface     0.0000E+00  0.0000E+00  0.0000E+00  0.0000E+00  0.0000E+00  0.0000E+00
       2-
 mid.  surface     0.0000E+00  0.0000E+00  0.0000E+00  0.0000E+00  0.0000E+00  0.0000E+00
       8-
 mid.  surface     0.0000E+00  0.0000E+00  0.0000E+00  0.0000E+00  0.0000E+00  0.0000E+00
       9-
 mid.  surface     0.0000E+00  0.0000E+00  0.0000E+00  0.0000E+00  0.0000E+00  0.0000E+00
      10-
 mid.  surface     0.0000E+00  0.0000E+00  0.0000E+00  0.0000E+00  0.0000E+00  0.0000E+00
      11-
 mid.  surface     0.0000E+00  0.0000E+00  0.0000E+00  0.0000E+00  0.0000E+00  0.0000E+00
      12-
 mid.  surface     0.0000E+00  0.0000E+00  0.0000E+00  0.0000E+00  0.0000E+00  0.0000E+00
      17-
 mid.  surface     0.0000E+00  0.0000E+00  0.0000E+00  0.0000E+00  0.0000E+00  0.0000E+00
      18-
 mid.  surface     0.0000E+00  0.0000E+00  0.0000E+00  0.0000E+00  0.0000E+00  0.0000E+00
      19-
 mid.  surface     0.0000E+00  0.0000E+00  0.0000E+00  0.0000E+00  0.0000E+00  0.0000E+00
      20-
 mid.  surface     0.0000E+00  0.0000E+00  0.0000E+00  0.0000E+00  0.0000E+00  0.0000E+00
      21-
 mid.  surface     0.0000E+00  0.0000E+00  0.0000E+00  0.0000E+00  0.0000E+00  0.0000E+00
      22-
 mid.  surface     0.0000E+00  0.0000E+00  0.0000E+00  0.0000E+00  0.0000E+00  0.0000E+00
      23-
 mid.  surface     0.0000E+00  0.0000E+00  0.0000E+00  0.0000E+00  0.0000E+00  0.0000E+00
      40-
 mid.  surface     0.0000E+00  0.0000E+00  0.0000E+00  0.0000E+00  0.0000E+00  0.0000E+00
      41-
 mid.  surface     0.0000E+00  0.0000E+00  0.0000E+00  0.0000E+00  0.0000E+00  0.0000E+00
      85-
 mid.  surface     0.0000E+00  0.0000E+00  0.0000E+00  0.0000E+00  0.0000E+00  0.0000E+00
      86-
 mid.  surface     0.0000E+00  0.0000E+00  0.0000E+00  0.0000E+00  0.0000E+00  0.0000E+00
     100-
 mid.  surface     0.0000E+00  0.0000E+00  0.0000E+00  0.0000E+00  0.0000E+00  0.0000E+00
     110-
 mid.  surface     0.0000E+00  0.0000E+00  0.0000E+00  0.0000E+00  0.0000E+00  0.0000E+00



 n o d a l  s t r e s s  c a l c u l a t i o n s   f o r   t i m e  s t e p       10   ( at time 1.29245E+00 )

 node (global)
          stress       sig-xx      sig-yy      sig-zz      sig-xy      sig-yz      sig-zx       plastic
                                                                                                 strain 
       1-
 mid.  surface    -1.9704E+07 -3.9584E+07 -2.8917E+08  5.8883E+07 -1.4467E+07 -5.7620E+07 -9.7782E-05
       2-
 mid.  surface    -6.9780E+07 -3.5136E+07 -2.9537E+08  2.9088E+07 -5.5741E+06 -1.3695E+06  6.8004E-04
       8-
 mid.  surface    -2.4438E+07  6.4570E+07 -2.2778E+08 -1.3292E+07 -1.5591E+06  4.6545E+06 -1.4579E-04
       9-
 mid.  surface    -5.9765E+07 -3.4038E+07 -3.0037E+08 -2.6944E+07 -7.0248E+06  1.1520E+07  5.6100E-04
      10-
 mid.  surface    -5.1041E+07 -9.1879E+06 -2.7234E+08  1.0826E+07 -2.8146E+07  2.6215E+07  6.6451E-04
      11-
 mid.  surface    -2.1402E+07 -1.2040E+07 -2.6423E+08  2.4705E+07 -1.0192E+08 -5.3530E+06  3.4418E-04
      12-
 mid.  surface    -4.6707E+07 -4.3450E+07 -2.7590E+08  1.8752E+07 -9.1714E+07 -4.0598E+07  1.1819E-04
      17-
 mid.  surface     2.3367E+07 -1.6996E+07 -2.2327E+08  2.6259E+07 -4.4030E+07 -3.0475E+07  2.4869E-04
      18-
 mid.  surface    -8.9373E+06  4.6684E+07 -2.1085E+08  3.6373E+07 -8.3490E+06 -9.3591E+06  8.9666E-05
      19-
 mid.  surface    -3.8360E+07 -4.1280E+07 -2.4869E+08 -1.2907E+07 -2.9253E+07 -1.4419E+07  6.2092E-04
      20-
 mid.  surface    -2.1425E+07 -7.4220E+07 -2.9616E+08  1.7789E+07  2.3354E+07  2.0980E+07  1.7693E-04
      21-
 mid.  surface    -7.8345E+07 -8.1902E+07 -3.0928E+08 -2.0389E+07  2.2318E+07  1.5108E+07  5.3809E-04
      22-
 mid.  surface    -9.7756E+07 -1.0446E+08 -3.5508E+08  1.2729E+07  3.0403E+07 -4.0487E+07 -7.5288E-07
      23-
 mid.  surface    -6.7761E+07 -7.2840E+07 -3.5951E+08  1.9804E+07  2.6412E+07 -3.4178E+07  1.4641E-04
      40-
 mid.  surface    -7.8539E+07 -4.4373E+07 -3.1264E+08  7.6392E+06 -1.0405E+07 -3.1513E+07  5.9199E-04
      41-
 mid.  surface    -3.9337E+07  8.2866E+06 -2.5000E+08  3.2444E+07 -1.1779E+07 -3.1502E+06  3.2772E-05
      85-
 mid.  surface    -1.1365E+08 -6.8324E+07 -3.4267E+08  2.2086E+07  3.2223E+07 -7.5796E+06  6.0991E-04
      86-
 mid.  surface    -7.4035E+07 -9.3304E+07 -3.3980E+08  5.2750E+07  7.6554E+07 -5.2501E+07 -1.1346E-04
     100-
 mid.  surface    -4.7594E+07  3.6687E+07 -2.4826E+08 -1.0811E+07 -2.4798E+07 -1.4946E+06 -1.6715E-04
     110-
 mid.  surface    -8.0592E+07 -6.2834E+07 -3.2273E+08 -2.5696E+07 -3.2127E+07 -3.4058E+07  5.2679E-04



 n o d a l  s t r a i n  c a l c u l a t i o n s   f o r   t i m e  s t e p       10   ( at time 1.29245E+00 )

 node (global)
          strain       eps-xx      eps-yy      eps-zz      eps-xy      eps-yz      eps-zx       
       1-
 mid.  surface     1.2452E-03  7.1746E-04 -3.6146E-03  1.1636E-03 -2.3056E-04 -1.1254E-03
       2-
 mid.  surface     1.4267E-03  2.1523E-03 -5.4800E-03  7.4517E-04 -1.5240E-04 -4.5303E-04
       8-
 mid.  surface     1.3798E-04  2.0245E-03 -3.0527E-03 -3.1048E-04  6.8132E-05  1.0260E-04
       9-
 mid.  surface     1.4418E-03  2.0420E-03 -5.3606E-03 -5.1116E-04 -3.1009E-04  1.7290E-04
      10-
 mid.  surface     1.4508E-03  2.3642E-03 -5.4010E-03  3.1639E-04 -7.1483E-04  3.5297E-04
      11-
 mid.  surface     1.6163E-03  1.5618E-03 -4.5989E-03  5.2154E-04 -2.0091E-03 -3.2247E-04
      12-
 mid.  surface     1.1150E-03  9.6347E-04 -3.8180E-03  3.3752E-04 -1.7117E-03 -9.2641E-04
      17-
 mid.  surface     1.7362E-03  1.0842E-03 -3.8530E-03  6.0768E-04 -6.2616E-04 -8.4259E-04
      18-
 mid.  surface     6.2173E-04  1.9312E-03 -3.3751E-03  7.5656E-04 -1.2788E-04 -3.0899E-04
      19-
 mid.  surface     1.5188E-03  1.6349E-03 -4.7152E-03 -1.3174E-04 -3.5083E-04 -6.5666E-04
      20-
 mid.  surface     1.5836E-03  7.1311E-04 -4.1584E-03  4.1579E-04  1.5883E-04  5.5410E-04
      21-
 mid.  surface     1.2799E-03  1.4774E-03 -4.9894E-03 -2.8388E-04  5.0546E-05  2.9389E-04
      22-
 mid.  surface     8.9045E-04  5.9180E-04 -4.1280E-03  1.8578E-04  5.3086E-04 -6.7438E-04
      23-
 mid.  surface     1.4991E-03  1.1138E-03 -4.9902E-03  3.6248E-04  5.8897E-04 -6.1646E-04
      40-
 mid.  surface     1.3322E-03  2.0434E-03 -5.4483E-03  2.3944E-04 -4.5582E-04 -7.2498E-04
      41-
 mid.  surface     4.6146E-04  1.6009E-03 -3.3959E-03  6.7701E-04 -4.8155E-04  3.8287E-05
      85-
 mid.  surface     1.0857E-03  2.1004E-03 -5.6792E-03  6.1344E-04  1.2601E-04 -1.7260E-04
      86-
 mid.  surface     9.0048E-04  4.4230E-04 -3.7494E-03  1.0312E-03  1.3576E-03 -9.4272E-04
     100-
 mid.  surface    -8.2638E-06  1.7855E-03 -3.0067E-03 -2.4588E-04 -5.2722E-04  1.2034E-04
     110-
 mid.  surface     1.3519E-03  1.7542E-03 -5.3232E-03 -4.6986E-04 -8.7081E-04 -6.7798E-04



 n o d a l  s t r e s s  c a l c u l a t i o n s   f o r   t i m e  s t e p       21   ( at time 2.54839E+00 )

 node (global)
          stress       sig-xx      sig-yy      sig-zz      sig-xy      sig-yz      sig-zx       plastic
                                                                                                 strain 
       1-
 mid.  surface     5.5046E+07  6.6623E+07 -2.4132E+08  5.7633E+07 -1.4920E+07 -2.6802E+07  6.1553E-03
       2-
 mid.  surface    -2.6229E+08 -1.9364E+08 -4.9921E+08  2.9333E+07 -9.1866E+06  2.1563E+07  1.4472E-02
       8-
 mid.  surface     4.5932E+07  1.0389E+08 -1.8260E+08 -1.9837E+07  7.6559E+06  3.0185E+06  5.0125E-03
       9-
 mid.  surface    -4.3824E+07 -4.9221E+07 -3.1382E+08 -2.3769E+07  6.1586E+06  1.0028E+07  1.5436E-02
      10-
 mid.  surface     8.4008E+07  1.0419E+08 -1.5290E+08  1.1346E+07 -4.3311E+07  1.3959E+07  1.6788E-02
      11-
 mid.  surface     1.9723E+08  1.9924E+08 -7.3542E+07  2.0336E+07 -1.2019E+08 -2.3840E+07  1.1512E-02
      12-
 mid.  surface     1.1445E+08  1.2504E+08 -1.1171E+08  1.1534E+07 -1.0511E+08 -5.1672E+07  1.0780E-02
      17-
 mid.  surface     1.6964E+08  1.4127E+08 -8.8279E+07  2.2341E+07 -6.6373E+07 -5.0444E+07  9.7650E-03
      18-
 mid.  surface     1.4014E+08  1.8581E+08 -7.1136E+07  2.7417E+07 -2.6199E+07 -2.1314E+07  8.5183E-03
      19-
 mid.  surface    -7.1775E+07 -5.8051E+07 -2.6545E+08 -1.4441E+07 -4.5817E+07 -3.1342E+07  1.5872E-02
      20-
 mid.  surface    -8.0869E+07 -1.2246E+08 -3.8080E+08  2.0362E+07  3.7153E+07  3.4925E+07  8.4621E-03
      21-
 mid.  surface    -2.9119E+08 -2.9276E+08 -5.1998E+08 -1.8314E+07  3.7982E+07  3.1816E+07  1.4532E-02
      22-
 mid.  surface    -1.5800E+08 -1.6690E+08 -4.3082E+08  9.1517E+06  4.4726E+07 -1.9484E+07  9.4009E-03
      23-
 mid.  surface    -7.6246E+07 -8.8931E+07 -4.1500E+08  1.9340E+07  4.5542E+07 -8.5808E+06  9.2197E-03
      40-
 mid.  surface    -7.9668E+07 -6.0924E+07 -3.4052E+08  9.2553E+06  8.3039E+06 -1.7598E+07  1.5854E-02
      41-
 mid.  surface    -4.1516E+07  7.8003E+06 -2.6335E+08  2.5476E+07  2.4894E+06  6.9066E+06  7.4254E-03
      85-
 mid.  surface    -4.2811E+08 -3.6698E+08 -6.6276E+08  2.1134E+07  4.4052E+07 -3.6575E+07  1.4025E-02
      86-
 mid.  surface    -1.2560E+08 -1.2746E+08 -4.0345E+08  5.1649E+07  9.4043E+07 -7.6518E+07  6.6117E-03
     100-
 mid.  surface    -6.9214E+07 -3.0447E+06 -2.8514E+08 -1.5961E+07 -3.6050E+07  5.3972E+06  4.6815E-03
     110-
 mid.  surface    -1.2544E+08 -1.3087E+08 -3.8645E+08 -2.0960E+07 -3.6974E+07 -2.5354E+07  1.5482E-02



 n o d a l  s t r a i n  c a l c u l a t i o n s   f o r   t i m e  s t e p       21   ( at time 2.54839E+00 )

 node (global)
          strain       eps-xx      eps-yy      eps-zz      eps-xy      eps-yz      eps-zx       
       1-
 mid.  surface     5.2370E-03  6.2491E-03 -1.2071E-02  4.4286E-03 -8.1161E-04 -1.9456E-03
       2-
 mid.  surface     5.9743E-03  1.0866E-02 -2.1459E-02  2.5158E-03 -5.2045E-04  8.5222E-05
       8-
 mid.  surface     3.5419E-03  8.1455E-03 -1.1889E-02 -1.5506E-03  7.1607E-04  3.0766E-04
       9-
 mid.  surface     8.1747E-03  8.0110E-03 -1.8237E-02 -1.7597E-03  2.5635E-05  5.7227E-04
      10-
 mid.  surface     8.0564E-03  9.8590E-03 -1.7890E-02  1.0988E-03 -3.6416E-03  7.1317E-04
      11-
 mid.  surface     8.2681E-03  8.1651E-03 -1.5035E-02  1.6596E-03 -8.8522E-03 -1.9781E-03
      12-
 mid.  surface     5.9887E-03  6.5869E-03 -1.2058E-02  9.3954E-04 -7.6747E-03 -4.3355E-03
      17-
 mid.  surface     8.5377E-03  6.5378E-03 -1.4112E-02  1.9012E-03 -4.6814E-03 -4.3980E-03
      18-
 mid.  surface     4.9799E-03  8.7950E-03 -1.2626E-02  2.2376E-03 -2.2064E-03 -1.8357E-03
      19-
 mid.  surface     7.4491E-03  8.4122E-03 -1.7862E-02 -7.9565E-04 -2.9113E-03 -3.7907E-03
      20-
 mid.  surface     7.9853E-03  4.9957E-03 -1.5852E-02  1.6474E-03  2.2294E-03  2.8834E-03
      21-
 mid.  surface     6.9635E-03  7.0517E-03 -1.9389E-02 -1.1434E-03  1.4386E-03  2.1424E-03
      22-
 mid.  surface     5.4720E-03  4.7420E-03 -1.3886E-02  6.6694E-04  3.0509E-03 -8.5800E-04
      23-
 mid.  surface     7.8696E-03  6.5160E-03 -1.7262E-02  1.3997E-03  4.1565E-03 -5.1417E-04
      40-
 mid.  surface     7.3088E-03  8.8580E-03 -1.8587E-02  8.8014E-04  2.6888E-05 -1.8872E-03
      41-
 mid.  surface     3.7868E-03  7.8070E-03 -1.3060E-02  2.0455E-03 -6.1250E-04  5.0619E-04
      85-
 mid.  surface     5.0321E-03  9.6624E-03 -2.1715E-02  1.8952E-03  1.3956E-03 -2.9080E-03
      86-
 mid.  surface     4.3031E-03  4.4617E-03 -1.1914E-02  3.9666E-03  6.1668E-03 -5.2180E-03
     100-
 mid.  surface     2.2756E-03  7.4229E-03 -1.1434E-02 -1.2257E-03 -3.0225E-03  5.6043E-04
     110-
 mid.  surface     7.4231E-03  7.1473E-03 -1.7747E-02 -1.5101E-03 -3.5690E-03 -2.1918E-03



 n o d a l  s t r e s s  c a l c u l a t i o n s   f o r   t i m e  s t e p       38   ( at time 4.53893E+00 )

 node (global)
          stress       sig-xx      sig-yy      sig-zz      sig-xy      sig-yz      sig-zx       plastic
                                                                                                 strain 
       1-
 mid.  surface    -3.3606E+08 -1.8016E+08 -6.3559E+08  8.4011E+07 -7.6561E+06  2.3382E+08  1.3178E-02
       2-
 mid.  surface    -1.1781E+09 -1.0722E+09 -1.5153E+09  5.2021E+07 -2.9959E+07  2.5888E+08  2.5330E-02
       8-
 mid.  surface     5.4030E+07  9.1134E+07 -1.6209E+08 -3.2662E+07  8.5896E+06  8.1829E+05  2.2323E-02
       9-
 mid.  surface    -2.9235E+08 -3.2260E+08 -5.5432E+08 -1.7633E+07  1.5413E+07  6.2329E+06  3.8473E-02
      10-
 mid.  surface     3.9441E+07  6.0641E+06 -1.8111E+08  2.3183E+07 -7.2726E+07  7.3211E+06  4.1888E-02
      11-
 mid.  surface     4.5789E+08  4.2398E+08  1.9261E+08  1.7594E+07 -1.5861E+08 -3.2358E+07  2.9854E-02
      12-
 mid.  surface     6.3466E+08  6.6027E+08  5.0969E+08  1.9585E+07 -1.7791E+08 -2.3871E+07  3.7939E-02
      17-
 mid.  surface     2.8381E+08  2.9500E+08  9.2788E+07  1.8251E+07 -1.8233E+08 -7.9688E+07  3.3427E-02
      18-
 mid.  surface     2.7016E+08  3.0330E+08  1.0521E+08  1.1330E+07 -8.9165E+07 -2.8786E+07  3.1307E-02
      19-
 mid.  surface    -1.6549E+08 -1.5151E+08 -2.8479E+08  9.1825E+06 -1.9166E+08 -4.4204E+07  4.8924E-02
      20-
 mid.  surface    -1.5207E+08 -1.4381E+08 -4.3967E+08  2.8046E+07  5.3971E+07  4.5205E+07  2.6523E-02
      21-
 mid.  surface    -5.6324E+08 -6.1691E+08 -7.5212E+08  3.6174E+06  9.8945E+07  1.6813E+07  4.6497E-02
      22-
 mid.  surface     7.1605E+07  4.1677E+07 -1.1562E+08  1.9610E+07  1.3516E+08  1.7013E+07  3.6961E-02
      23-
 mid.  surface    -8.4751E+07 -1.1574E+08 -4.2571E+08  2.3255E+07  1.0698E+08  6.1959E+07  2.6034E-02
      40-
 mid.  surface    -3.6446E+08 -3.9391E+08 -6.0453E+08  9.3137E+06  6.8941E+07  9.1947E+06  4.1361E-02
      41-
 mid.  surface    -1.3906E+08 -9.4541E+07 -3.1511E+08 -2.3922E+06  3.8174E+07  1.8290E+07  3.0090E-02
      85-
 mid.  surface    -1.3474E+09 -1.3059E+09 -1.5507E+09 -1.0761E+07  2.0489E+08 -2.7207E+08  3.2211E-02
      86-
 mid.  surface    -3.5096E+08 -2.5969E+08 -5.0390E+08  3.5645E+07  2.5894E+08 -2.7079E+08  2.1189E-02
     100-
 mid.  surface    -2.1683E+08 -1.9441E+08 -4.1267E+08 -1.6173E+07 -4.0968E+07  2.0480E+06  2.2553E-02
     110-
 mid.  surface    -4.8231E+08 -5.3430E+08 -7.2685E+08 -1.1938E+06 -3.2253E+07 -2.3491E+07  3.9204E-02



 n o d a l  s t r a i n  c a l c u l a t i o n s   f o r   t i m e  s t e p       38   ( at time 4.53893E+00 )

 node (global)
          strain       eps-xx      eps-yy      eps-zz      eps-xy      eps-yz      eps-zx       
       1-
 mid.  surface     4.4454E-03  1.9609E-02 -2.9006E-02  1.0278E-02 -1.1002E-03  1.3761E-02
       2-
 mid.  surface     6.3123E-03  2.0848E-02 -4.4487E-02  4.7789E-03 -1.1161E-04  1.7729E-02
       8-
 mid.  surface     9.1066E-03  1.6725E-02 -2.6056E-02 -4.4849E-03  1.9703E-03  4.9963E-04
       9-
 mid.  surface     1.8288E-02  1.5223E-02 -3.9439E-02 -3.3613E-03  1.3787E-03  9.5756E-04
      10-
 mid.  surface     1.8514E-02  1.6354E-02 -3.5877E-02  3.5265E-03 -1.1498E-02  5.6583E-04
      11-
 mid.  surface     1.8457E-02  1.5544E-02 -2.9242E-02  3.4771E-03 -2.3992E-02 -6.7388E-03
      12-
 mid.  surface     1.4490E-02  1.6562E-02 -2.2736E-02  3.6856E-03 -2.2322E-02 -1.4137E-02
      17-
 mid.  surface     1.6849E-02  1.5857E-02 -3.0028E-02  3.2938E-03 -1.9593E-02 -1.1682E-02
      18-
 mid.  surface     1.1668E-02  1.7919E-02 -2.6624E-02  3.3046E-03 -9.7761E-03 -4.0030E-03
      19-
 mid.  surface     1.5891E-02  1.6674E-02 -3.5829E-02  5.5431E-04 -1.5484E-02 -1.3594E-02
      20-
 mid.  surface     1.6877E-02  1.4894E-02 -3.5750E-02  4.0926E-03  1.2138E-02  8.4531E-03
      21-
 mid.  surface     1.9091E-02  1.3172E-02 -4.2072E-02  7.0339E-04  1.0023E-02  1.0639E-02
      22-
 mid.  surface     1.6959E-02  1.3127E-02 -3.0607E-02  4.6394E-03  1.1847E-02  6.4121E-03
      23-
 mid.  surface     1.8530E-02  1.4801E-02 -3.6739E-02  3.6704E-03  1.5923E-02  5.0189E-03
      40-
 mid.  surface     1.7258E-02  1.4734E-02 -3.8782E-02  1.6895E-03  4.5018E-03 -2.2649E-03
      41-
 mid.  surface     9.2908E-03  1.6375E-02 -2.8507E-02  1.5361E-03  2.7943E-03  1.8144E-03
      85-
 mid.  surface     5.8729E-03  1.5660E-02 -4.1525E-02 -3.8078E-04  8.4694E-03 -2.2454E-02
      86-
 mid.  surface     4.3118E-03  1.3995E-02 -2.3549E-02  6.7439E-03  1.6667E-02 -2.6286E-02
     100-
 mid.  surface     7.3608E-03  1.3377E-02 -2.4734E-02 -2.3872E-03 -7.5497E-03  5.6553E-04
     110-
 mid.  surface     1.7597E-02  1.1681E-02 -3.7896E-02 -1.2325E-03 -7.9937E-03 -4.7101E-03



 n o d a l  s t r e s s  c a l c u l a t i o n s   f o r   t i m e  s t e p       48   ( at time 6.52946E+00 )

 node (global)
          stress       sig-xx      sig-yy      sig-zz      sig-xy      sig-yz      sig-zx       plastic
                                                                                                 strain 
       1-
 mid.  surface    -1.9016E+08 -1.5981E+08 -4.4859E+08  4.6552E+07 -3.1163E+07  7.3234E+07  3.2929E-02
       2-
 mid.  surface    -1.4593E+09 -1.4385E+09 -1.7452E+09  3.4338E+07 -3.1835E+07  1.1109E+08  4.8277E-02
       8-
 mid.  surface     1.3704E+08  1.8548E+08 -6.7407E+07 -2.2778E+07 -1.5438E+07 -2.1886E+06  4.0492E-02
       9-
 mid.  surface    -3.9372E+08 -4.0036E+08 -6.3529E+08 -2.0384E+07 -7.7869E+06  6.8126E+05  6.1770E-02
      10-
 mid.  surface     1.7650E+08  1.5835E+08 -9.9105E+07  2.3117E+07 -9.2716E+07 -9.7267E+06  5.9477E-02
      11-
 mid.  surface     3.6493E+08  3.6700E+08  9.7271E+07 -1.2142E+07 -1.2012E+08 -2.0658E+07  4.4507E-02
      12-
 mid.  surface     7.2670E+08  7.5045E+08  5.0055E+08 -6.6581E+06 -9.1838E+07 -4.3909E+07  5.3089E-02
      17-
 mid.  surface     1.5296E+08  1.8424E+08 -7.8133E+07 -6.3340E+06 -1.4850E+08 -6.6595E+07  5.1352E-02
      18-
 mid.  surface     4.4929E+08  4.7257E+08  2.0775E+08  1.7792E+07 -9.6774E+07 -3.0384E+07  4.7439E-02
      19-
 mid.  surface    -3.2625E+08 -2.9474E+08 -5.4906E+08 -3.3369E+06 -1.1069E+08 -7.3352E+07  6.7778E-02
      20-
 mid.  surface    -7.4164E+07 -9.5294E+07 -3.8202E+08  3.4603E+07  4.9822E+07  4.1272E+07  4.6157E-02
      21-
 mid.  surface    -5.0906E+08 -5.2304E+08 -7.8837E+08  4.3350E+07  7.3833E+07  3.4477E+07  6.7833E-02
      22-
 mid.  surface     3.6045E+08  3.4061E+08  9.1474E+07  3.3586E+07  1.0858E+08  4.0219E+07  5.6429E-02
      23-
 mid.  surface     7.0493E+07  2.4571E+07 -2.5619E+08  1.8027E+07  1.0652E+08  4.7519E+07  4.4688E-02
      40-
 mid.  surface    -4.3669E+08 -4.5273E+08 -7.4023E+08  2.7093E+06  6.2410E+07  3.0689E+06  5.8872E-02
      41-
 mid.  surface    -1.3393E+08 -1.1482E+08 -4.0067E+08  1.8753E+06  4.2705E+07  2.4431E+07  4.5777E-02
      85-
 mid.  surface    -1.9838E+09 -1.9205E+09 -2.2109E+09 -2.5741E+06  8.7433E+07 -1.1342E+08  5.3506E-02
      86-
 mid.  surface    -4.3797E+08 -3.6538E+08 -6.3676E+08  1.4476E+07  1.1397E+08 -1.3305E+08  3.9097E-02
     100-
 mid.  surface    -3.0944E+08 -2.8474E+08 -5.1109E+08 -1.2566E+07 -1.0130E+07  1.2939E+07  4.0646E-02
     110-
 mid.  surface    -7.6964E+08 -7.9997E+08 -1.0125E+09 -1.2319E+07 -1.4464E+06 -1.5641E+07  6.2310E-02



 n o d a l  s t r a i n  c a l c u l a t i o n s   f o r   t i m e  s t e p       48   ( at time 6.52946E+00 )

 node (global)
          strain       eps-xx      eps-yy      eps-zz      eps-xy      eps-yz      eps-zx       
       1-
 mid.  surface     1.3686E-02  2.8716E-02 -4.5727E-02  1.4076E-02 -3.2125E-03  1.5694E-02
       2-
 mid.  surface     1.5500E-02  3.0504E-02 -6.7458E-02  8.3810E-03 -1.3792E-03  2.3345E-02
       8-
 mid.  surface     1.4534E-02  2.7101E-02 -4.0698E-02 -6.0971E-03  1.2926E-03  4.3390E-04
       9-
 mid.  surface     2.7405E-02  2.4811E-02 -5.9654E-02 -5.0780E-03  5.0385E-04  8.5516E-04
      10-
 mid.  surface     2.7798E-02  2.4633E-02 -5.1911E-02  5.7802E-03 -1.8002E-02 -2.1181E-04
      11-
 mid.  surface     2.4383E-02  2.2270E-02 -4.3253E-02  2.2876E-03 -3.1752E-02 -7.6731E-03
      12-
 mid.  surface     2.0718E-02  2.4391E-02 -3.6120E-02  2.7939E-03 -2.8158E-02 -1.8444E-02
      17-
 mid.  surface     2.2803E-02  2.4629E-02 -4.6861E-02  2.4864E-03 -2.7086E-02 -1.5350E-02
      18-
 mid.  surface     1.8872E-02  2.7401E-02 -4.1297E-02  5.4531E-03 -1.5117E-02 -6.0237E-03
      19-
 mid.  surface     2.2352E-02  2.5743E-02 -5.4145E-02  1.5992E-04 -2.0494E-02 -1.8810E-02
      20-
 mid.  surface     2.7889E-02  2.3560E-02 -5.4847E-02  6.9987E-03  1.6343E-02  1.1547E-02
      21-
 mid.  surface     2.9816E-02  2.3708E-02 -6.3139E-02  4.8459E-03  1.4205E-02  1.4099E-02
      22-
 mid.  surface     2.8053E-02  2.2375E-02 -4.7535E-02  7.6405E-03  1.7115E-02  9.2620E-03
      23-
 mid.  surface     3.0189E-02  2.1980E-02 -5.3685E-02  5.1616E-03  2.2156E-02  7.4216E-03
      40-
 mid.  surface     2.6209E-02  2.2246E-02 -5.6744E-02  1.8335E-03  7.8601E-03 -2.4352E-03
      41-
 mid.  surface     1.6333E-02  2.4589E-02 -4.4402E-02  2.0448E-03  6.5915E-03  3.6238E-03
      85-
 mid.  surface     9.2053E-03  2.6038E-02 -6.4480E-02 -6.6992E-05  1.2026E-02 -2.8017E-02
      86-
 mid.  surface     8.4379E-03  2.4085E-02 -3.9537E-02  7.3820E-03  2.2003E-02 -3.4901E-02
     100-
 mid.  surface     1.2723E-02  2.1172E-02 -3.9304E-02 -3.2282E-03 -8.8670E-03  1.6798E-03
     110-
 mid.  surface     2.6631E-02  1.8748E-02 -5.8198E-02 -2.4141E-03 -9.4887E-03 -6.3979E-03



 n o d a l  s t r e s s  c a l c u l a t i o n s   f o r   t i m e  s t e p       54   ( at time 8.52000E+00 )

 node (global)
          stress       sig-xx      sig-yy      sig-zz      sig-xy      sig-yz      sig-zx       plastic
                                                                                                 strain 
       1-
 mid.  surface    -2.8812E+09 -2.8032E+09 -1.8029E+09 -1.2158E+07  1.2505E+08  6.7687E+07 -3.0325E-02
       2-
 mid.  surface    -4.6406E+09 -4.6113E+09 -3.5824E+09 -2.9460E+07  1.2689E+08  1.3424E+08 -1.0973E-02
       8-
 mid.  surface     2.4959E+08  2.8290E+08  2.6957E+07 -1.8522E+07 -4.0557E+07  1.4590E+05  6.1075E-02
       9-
 mid.  surface    -4.7953E+08 -4.8758E+08 -7.3179E+08 -2.1752E+07 -2.7642E+07  3.6204E+06  8.6503E-02
      10-
 mid.  surface     2.9048E+08  2.5747E+08 -1.4917E+07  9.7503E+06 -9.5485E+07 -7.1054E+06  7.7784E-02
      11-
 mid.  surface     4.9096E+08  4.8283E+08  1.9239E+08 -7.3663E+05 -8.7202E+07 -5.1348E+06  6.1902E-02
      12-
 mid.  surface    -5.6238E+08 -5.1938E+08 -1.4566E+08 -1.4957E+07 -4.1224E+06 -2.3958E+06  3.2488E-02
      17-
 mid.  surface     7.7765E+07  1.0481E+08 -1.6591E+08 -7.9197E+06 -1.1565E+08 -5.6675E+07  7.3290E-02
      18-
 mid.  surface     5.8498E+08  5.9859E+08  3.1532E+08  8.0829E+06 -1.0421E+08 -2.8171E+07  6.4399E-02
      19-
 mid.  surface    -2.0350E+09 -2.0104E+09 -1.6155E+09 -2.7107E+07 -1.6008E+07 -1.5193E+07  5.1445E-02
      20-
 mid.  surface    -3.4062E+07 -3.6569E+07 -3.4125E+08  2.5765E+07  4.7180E+07  2.2679E+07  6.7805E-02
      21-
 mid.  surface     9.3157E+08  8.9968E+08 -9.8904E+07  3.9538E+07 -4.1833E+07 -2.2933E+07  1.3521E-01
      22-
 mid.  surface     2.1546E+09  2.1388E+09  1.1247E+09  4.9918E+07 -1.6242E+07 -2.0520E+07  1.2031E-01
      23-
 mid.  surface     2.3655E+08  1.9662E+08 -9.5054E+07  2.7055E+07  1.0585E+08  4.3813E+07  6.5752E-02
      40-
 mid.  surface    -5.0241E+08 -5.3399E+08 -8.3384E+08 -1.7171E+06  6.2648E+07  1.4635E+06  7.7635E-02
      41-
 mid.  surface    -1.8987E+08 -1.6693E+08 -4.7230E+08 -3.5075E+06  4.1154E+07  1.5449E+07  6.2852E-02
      85-
 mid.  surface     8.6388E+08  8.5644E+08 -8.6953E+08  2.1327E+07 -7.8975E+07 -1.0301E+08  1.6077E-01
      86-
 mid.  surface     2.8664E+09  2.9031E+09  1.1707E+09  4.3377E+07 -6.7932E+07 -1.6153E+08  1.4380E-01
     100-
 mid.  surface    -3.5327E+08 -3.1879E+08 -5.6262E+08 -5.3605E+06  5.5865E+06  1.9130E+07  6.2042E-02
     110-
 mid.  surface    -9.9043E+08 -1.0026E+09 -1.2379E+09 -6.5668E+06  1.8914E+07 -4.5805E+06  8.7973E-02



 n o d a l  s t r a i n  c a l c u l a t i o n s   f o r   t i m e  s t e p       54   ( at time 8.52000E+00 )

 node (global)
          strain       eps-xx      eps-yy      eps-zz      eps-xy      eps-yz      eps-zx       
       1-
 mid.  surface     2.3561E-02  4.1214E-02 -6.0967E-02  1.6761E-02 -3.6193E-03  1.3118E-02
       2-
 mid.  surface     2.6230E-02  4.0100E-02 -8.7876E-02  9.5289E-03 -1.9633E-04  2.6361E-02
       8-
 mid.  surface     2.1966E-02  3.8490E-02 -5.8243E-02 -7.5908E-03 -1.2154E-03  7.1211E-04
       9-
 mid.  surface     3.7590E-02  3.4829E-02 -8.1465E-02 -6.9151E-03 -1.9578E-03  1.0837E-03
      10-
 mid.  surface     3.8354E-02  3.2262E-02 -6.8941E-02  6.7960E-03 -2.4937E-02 -5.2819E-04
      11-
 mid.  surface     3.4110E-02  3.1307E-02 -6.0586E-02  2.8717E-03 -3.8501E-02 -7.7423E-03
      12-
 mid.  surface     3.0662E-02  3.5298E-02 -5.2908E-02  4.2472E-03 -3.3772E-02 -2.1436E-02
      17-
 mid.  surface     3.0860E-02  3.5361E-02 -6.7100E-02  1.9458E-03 -3.4095E-02 -1.8412E-02
      18-
 mid.  surface     2.6754E-02  3.6984E-02 -5.7199E-02  6.4395E-03 -2.1057E-02 -7.3872E-03
      19-
 mid.  surface     3.2251E-02  3.5386E-02 -7.5899E-02  1.3137E-04 -2.4635E-02 -2.1680E-02
      20-
 mid.  surface     3.8735E-02  3.4833E-02 -7.6683E-02  9.0231E-03  2.0670E-02  1.3121E-02
      21-
 mid.  surface     3.9227E-02  3.3282E-02 -8.6854E-02  5.6761E-03  1.5660E-02  1.5224E-02
      22-
 mid.  surface     3.7536E-02  3.2576E-02 -6.6723E-02  9.8555E-03  1.8489E-02  1.0055E-02
      23-
 mid.  surface     4.3094E-02  3.0946E-02 -7.3532E-02  7.6699E-03  2.8745E-02  9.7876E-03
      40-
 mid.  surface     3.6781E-02  2.9212E-02 -7.5690E-02  1.6281E-03  1.0771E-02 -3.2426E-03
      41-
 mid.  surface     2.3200E-02  3.3689E-02 -6.1452E-02  1.6905E-03  1.0456E-02  4.6028E-03
      85-
 mid.  surface     1.2704E-02  3.5194E-02 -8.6579E-02 -2.7915E-03  1.6519E-02 -2.9225E-02
      86-
 mid.  surface     1.1449E-02  3.5377E-02 -5.6433E-02  6.6375E-03  2.6687E-02 -4.2045E-02
     100-
 mid.  surface     1.9243E-02  3.1790E-02 -5.7203E-02 -3.4401E-03 -9.8568E-03  3.3483E-03
     110-
 mid.  surface     3.6546E-02  2.7945E-02 -8.0697E-02 -2.7564E-03 -1.0633E-02 -7.4405E-03



 n o d a l  s t r e s s  c a l c u l a t i o n s   f o r   t i m e  s t e p       62   ( at time 1.16748E+01 )

 node (global)
          stress       sig-xx      sig-yy      sig-zz      sig-xy      sig-yz      sig-zx       plastic
                                                                                                 strain 
       1-
 mid.  surface    -2.8083E+09 -2.8421E+09 -2.1340E+09  2.1387E+07  1.1103E+08  8.7722E+07 -8.1278E-02
       2-
 mid.  surface    -4.4835E+09 -4.5246E+09 -4.0359E+09  5.4445E+07  1.0159E+08  1.0813E+08 -4.0298E-02
       8-
 mid.  surface     3.6888E+08  3.7407E+08  1.4883E+08 -1.5740E+07 -9.2759E+07 -1.7895E+06  9.7395E-02
       9-
 mid.  surface    -4.7864E+08 -4.8212E+08 -7.1907E+08 -1.1511E+07 -7.4365E+07  2.4490E+06  1.2382E-01
      10-
 mid.  surface     3.6316E+08  3.1363E+08  1.6986E+07 -9.7740E+06 -8.9567E+07 -4.8364E+06  1.0148E-01
      11-
 mid.  surface     4.9488E+08  4.5889E+08  1.9718E+08 -1.1677E+07 -5.7484E+07 -7.9881E+06  9.3141E-02
      12-
 mid.  surface    -1.7084E+09 -1.6675E+09 -1.0643E+09 -1.8208E+07  4.0108E+06  1.8626E+07 -2.7138E-02
      17-
 mid.  surface    -3.4461E+08 -3.4701E+08 -5.7978E+08 -2.1087E+07 -1.2387E+08 -6.4767E+07  1.1400E-01
      18-
 mid.  surface     4.9389E+08  4.8336E+08  2.0444E+08 -1.9538E+07 -1.4988E+08 -3.2559E+07  9.1512E-02
      19-
 mid.  surface    -2.7915E+09 -2.7612E+09 -2.5665E+09  6.5931E+06 -2.5706E+07 -4.1376E+06  4.1517E-02
      20-
 mid.  surface    -2.1913E+07 -1.0972E+07 -3.2303E+08  2.7323E+07  2.3145E+07  7.1833E+06  1.0616E-01
      21-
 mid.  surface     7.8244E+08  8.0252E+08 -6.4762E+07 -5.2456E+06 -3.5962E+07 -2.7086E+07  2.1532E-01
      22-
 mid.  surface     1.6370E+09  1.6829E+09  1.1911E+09 -1.8761E+07 -4.2067E+05 -9.3439E+06  1.5890E-01
      23-
 mid.  surface     5.8821E+08  5.7949E+08  2.7690E+08  2.8880E+07  1.1478E+08  4.7877E+07  1.0355E-01
      40-
 mid.  surface    -2.6780E+08 -2.7856E+08 -6.1164E+08  1.7428E+06  1.1201E+08  1.5687E+07  1.0793E-01
      41-
 mid.  surface    -5.1770E+07 -3.1665E+07 -3.6682E+08 -1.1790E+06  3.2177E+07  4.7616E+06  9.0252E-02
      85-
 mid.  surface     2.9113E+09  2.9496E+09  7.2830E+08 -5.3043E+06 -6.3652E+07 -1.5491E+08  3.7595E-01
      86-
 mid.  surface     3.4287E+09  3.5076E+09  2.1332E+09 -4.0715E+07 -4.8385E+07 -1.5840E+08  2.7388E-01
     100-
 mid.  surface    -7.5056E+08 -7.7880E+08 -9.7095E+08 -7.0428E+06  2.6681E+07  1.7614E+07  1.0020E-01
     110-
 mid.  surface    -1.4296E+09 -1.4734E+09 -1.6815E+09 -1.7956E+04  4.9147E+07  7.8286E+06  1.2791E-01



 n o d a l  s t r a i n  c a l c u l a t i o n s   f o r   t i m e  s t e p       62   ( at time 1.16748E+01 )

 node (global)
          strain       eps-xx      eps-yy      eps-zz      eps-xy      eps-yz      eps-zx       
       1-
 mid.  surface     4.2517E-02  6.0374E-02 -9.1564E-02  1.6177E-02 -4.6517E-03  1.1664E-02
       2-
 mid.  surface     4.4723E-02  5.8087E-02 -1.2311E-01  1.2540E-02  2.3763E-04  2.8407E-02
       8-
 mid.  surface     3.5302E-02  5.6268E-02 -8.8393E-02 -9.6490E-03 -7.4377E-03  1.2691E-03
       9-
 mid.  surface     5.1906E-02  4.9523E-02 -1.1112E-01 -7.8679E-03 -1.1803E-02  4.5089E-04
      10-
 mid.  surface     5.4067E-02  4.1391E-02 -9.3468E-02  5.5303E-03 -3.5002E-02 -5.5854E-04
      11-
 mid.  surface     5.1455E-02  4.2907E-02 -9.0096E-02  2.1232E-03 -4.4888E-02 -8.4906E-03
      12-
 mid.  surface     3.9821E-02  5.2456E-02 -7.6414E-02  2.6157E-03 -4.0809E-02 -2.5631E-02
      17-
 mid.  surface     4.6038E-02  4.9723E-02 -1.0376E-01 -2.4247E-04 -4.2615E-02 -2.2949E-02
      18-
 mid.  surface     3.9190E-02  4.9588E-02 -8.4260E-02  3.9512E-03 -3.3177E-02 -8.7058E-03
      19-
 mid.  surface     4.0859E-02  5.2144E-02 -1.0878E-01 -4.3672E-04 -3.1040E-02 -2.5030E-02
      20-
 mid.  surface     5.6373E-02  5.4274E-02 -1.1459E-01  1.2859E-02  2.6024E-02  1.4074E-02
      21-
 mid.  surface     5.2778E-02  4.8087E-02 -1.2227E-01  5.9786E-03  1.7857E-02  1.8661E-02
      22-
 mid.  surface     5.0721E-02  4.9127E-02 -9.4415E-02  1.0755E-02  2.0607E-02  1.1848E-02
      23-
 mid.  surface     6.2745E-02  4.8767E-02 -1.0669E-01  1.1025E-02  3.7849E-02  1.3631E-02
      40-
 mid.  surface     5.4018E-02  4.3353E-02 -1.0434E-01  1.6560E-03  1.8024E-02 -4.1160E-03
      41-
 mid.  surface     3.6278E-02  5.0210E-02 -8.9933E-02  1.6903E-03  1.6677E-02  5.2087E-03
      85-
 mid.  surface     2.4449E-02  5.0000E-02 -1.2413E-01 -3.4445E-03  2.5309E-02 -3.6638E-02
      86-
 mid.  surface     2.4804E-02  5.4151E-02 -8.9539E-02  5.8310E-03  3.5047E-02 -5.1564E-02
     100-
 mid.  surface     3.3246E-02  4.2743E-02 -8.8725E-02 -4.2655E-03 -7.8879E-03  5.3124E-03
     110-
 mid.  surface     5.3236E-02  3.6147E-02 -1.1270E-01 -2.3307E-03 -1.2988E-02 -8.5264E-03



 n o d a l  s t r e s s  c a l c u l a t i o n s   f o r   t i m e  s t e p       81   ( at time 1.48296E+01 )

 node (global)
          stress       sig-xx      sig-yy      sig-zz      sig-xy      sig-yz      sig-zx       plastic
                                                                                                 strain 
       1-
 mid.  surface    -2.8900E+09 -3.1457E+09 -2.3691E+09 -5.8935E+06  4.8007E+07  8.1699E+07 -1.1842E-01
       2-
 mid.  surface    -5.0970E+09 -5.2890E+09 -4.7472E+09  9.6576E+07  5.2120E+07  3.9094E+07 -5.1067E-02
       8-
 mid.  surface     3.6191E+08  2.7836E+08  1.4323E+08 -5.3573E+07 -1.5750E+08  2.5632E+07  1.3577E-01
       9-
 mid.  surface    -1.0407E+09 -1.1622E+09 -1.3707E+09 -5.0031E+07 -3.2205E+07  4.3660E+07  1.6292E-01
      10-
 mid.  surface     4.6929E+08  4.2264E+08  1.2573E+08 -6.1662E+06 -9.2277E+07 -4.6718E+06  1.3666E-01
      11-
 mid.  surface     4.5478E+08  3.8198E+08  1.7656E+08 -3.0636E+07 -1.3780E+08 -4.9761E+07  1.2274E-01
      12-
 mid.  surface    -1.9873E+09 -1.9548E+09 -1.3407E+09 -1.6789E+07 -6.6427E+07  4.0393E+07 -9.6206E-02
      17-
 mid.  surface    -1.0006E+09 -1.0721E+09 -1.2219E+09 -4.9547E+07 -1.2955E+08 -5.6315E+07  1.6149E-01
      18-
 mid.  surface     5.8662E+08  5.4586E+08  3.5810E+08  1.3822E+06 -1.9975E+08 -4.9012E+07  1.3504E-01
      19-
 mid.  surface    -3.8440E+09 -3.7382E+09 -3.5681E+09  1.7700E+07 -3.1479E+07  1.8295E+07  3.1500E-02
      20-
 mid.  surface    -5.9955E+08 -6.0821E+08 -8.9204E+08 -7.7207E+06  7.5441E+07  7.5261E+07  1.5077E-01
      21-
 mid.  surface     7.0992E+08  9.1764E+08 -3.8810E+07 -1.2799E+07  5.3195E+07 -2.9691E+07  2.8951E-01
      22-
 mid.  surface     2.3960E+09  2.5195E+09  1.9813E+09 -5.1256E+07  3.7507E+07 -2.9130E+07  1.8011E-01
      23-
 mid.  surface     9.3807E+08  8.4782E+08  5.5174E+08 -2.7461E+06  1.1308E+08  3.1883E+07  1.3308E-01
      40-
 mid.  surface     1.2942E+07  4.3124E+07 -3.5522E+08  2.0558E+07  1.4104E+08 -8.4481E+05  1.4671E-01
      41-
 mid.  surface     3.5377E+08  4.3664E+08  8.1451E+07  6.5918E+06 -1.4096E+07  6.7701E+06  1.2484E-01
      85-
 mid.  surface     3.2093E+09  3.3863E+09  1.0744E+09  2.4722E+07  1.8219E+07 -2.7081E+08  5.9796E-01
      86-
 mid.  surface     4.3311E+09  4.4271E+09  3.0040E+09 -7.3477E+07  1.0000E+07 -1.1243E+08  4.0384E-01
     100-
 mid.  surface    -2.6757E+08 -2.0564E+08 -4.4563E+08 -1.7317E+07 -2.9522E+07  3.8616E+07  1.3897E-01
     110-
 mid.  surface    -1.5066E+09 -1.4850E+09 -1.7933E+09  1.3026E+07  1.2577E+08  2.5141E+06  1.7229E-01



 n o d a l  s t r a i n  c a l c u l a t i o n s   f o r   t i m e  s t e p       81   ( at time 1.48296E+01 )

 node (global)
          strain       eps-xx      eps-yy      eps-zz      eps-xy      eps-yz      eps-zx       
       1-
 mid.  surface     7.3839E-02  7.6123E-02 -1.2917E-01  1.1968E-02 -9.0270E-03  5.6498E-03
       2-
 mid.  surface     7.4851E-02  7.7105E-02 -1.7041E-01  2.0431E-02 -3.6438E-03  2.2872E-02
       8-
 mid.  surface     5.3942E-02  6.5810E-02 -1.1742E-01 -1.8671E-02 -2.0666E-02  6.0688E-03
       9-
 mid.  surface     7.5757E-02  5.1881E-02 -1.4692E-01 -1.6700E-02 -2.0789E-02  5.5405E-03
      10-
 mid.  surface     7.5208E-02  5.4676E-02 -1.2739E-01  5.5489E-03 -4.3176E-02 -5.7389E-05
      11-
 mid.  surface     6.5846E-02  4.9466E-02 -1.1020E-01 -1.2458E-03 -5.5786E-02 -1.4130E-02
      12-
 mid.  surface     3.6640E-02  6.9593E-02 -8.4104E-02  2.0658E-03 -5.1018E-02 -3.3714E-02
      17-
 mid.  surface     6.8082E-02  6.0635E-02 -1.4475E-01 -4.7984E-03 -4.7951E-02 -2.7557E-02
      18-
 mid.  surface     6.0296E-02  6.4328E-02 -1.1965E-01  6.0007E-03 -4.6367E-02 -1.2577E-02
      19-
 mid.  surface     4.0203E-02  7.7265E-02 -1.3844E-01  2.4322E-03 -3.7221E-02 -2.6054E-02
      20-
 mid.  surface     7.3689E-02  6.8921E-02 -1.5840E-01  9.0750E-03  3.4671E-02  2.4763E-02
      21-
 mid.  surface     5.5071E-02  7.0735E-02 -1.5687E-01  4.2476E-03  2.4454E-02  2.6170E-02
      22-
 mid.  surface     5.2335E-02  6.2742E-02 -1.0746E-01  5.2191E-03  2.3478E-02  3.5734E-03
      23-
 mid.  surface     8.1913E-02  5.4779E-02 -1.3105E-01  6.6322E-03  3.9462E-02  1.5244E-02
      40-
 mid.  surface     7.3630E-02  6.4399E-02 -1.4217E-01  3.9734E-03  2.6359E-02 -5.1604E-03
      41-
 mid.  surface     4.8756E-02  7.6983E-02 -1.2377E-01  2.7830E-03  1.7450E-02  5.9194E-03
      85-
 mid.  surface     4.7102E-02  6.8845E-02 -1.7860E-01  2.5150E-03  4.1253E-02 -4.1283E-02
      86-
 mid.  surface     5.0454E-02  7.1108E-02 -1.3512E-01  1.4804E-03  5.0232E-02 -5.0860E-02
     100-
 mid.  surface     4.2821E-02  6.8816E-02 -1.1721E-01 -6.4534E-03 -1.3387E-02  9.9610E-03
     110-
 mid.  surface     7.0854E-02  5.5205E-02 -1.5102E-01 -2.1595E-04 -1.5196E-02 -1.5700E-02



 n o d a l  s t r e s s  c a l c u l a t i o n s   f o r   t i m e  s t e p       96   ( at time 1.79844E+01 )

 node (global)
          stress       sig-xx      sig-yy      sig-zz      sig-xy      sig-yz      sig-zx       plastic
                                                                                                 strain 
       1-
 mid.  surface    -3.2275E+09 -3.4573E+09 -3.4064E+09  1.2269E+08  1.5141E+08  8.1960E+07 -5.1799E-02
       2-
 mid.  surface     2.6028E+09  2.1654E+09 -6.7525E+08  7.0412E+07  1.3919E+08 -9.3001E+07  3.6169E-01
       8-
 mid.  surface     3.0382E+08  2.2208E+08  6.4625E+07 -3.0821E+07 -1.9566E+08  1.6959E+07  1.7309E-01
       9-
 mid.  surface    -1.4070E+09 -1.5055E+09 -1.6990E+09  1.0895E+06 -7.6411E+07  3.3928E+07  1.9781E-01
      10-
 mid.  surface     6.9875E+08  7.5202E+08  4.1217E+08  2.9579E+07 -1.1536E+08 -4.4464E+06  1.7942E-01
      11-
 mid.  surface     1.4977E+09  1.4403E+09  1.1080E+09  7.3960E+06  1.2662E+08  8.1267E+07  1.7561E-01
      12-
 mid.  surface    -2.4245E+09 -2.3169E+09 -2.0922E+09  3.6218E+07  3.0209E+08  1.5924E+08 -1.4112E-01
      17-
 mid.  surface    -2.2411E+08 -4.3532E+08 -6.6042E+08  8.3088E+06  1.3033E+08  8.6476E+07  2.1550E-01
      18-
 mid.  surface     5.0334E+08  4.8099E+08  2.8227E+08  2.0949E+07 -2.2298E+08 -3.8630E+07  1.8892E-01
      19-
 mid.  surface    -6.9061E+08 -7.4855E+08 -1.9542E+09  2.8875E+07  3.7542E+08  7.7676E+07  1.5324E-01
      20-
 mid.  surface    -1.2400E+09 -1.2265E+09 -1.5224E+09 -3.8229E+07 -2.2194E+08 -3.1899E+07  1.8647E-01
      21-
 mid.  surface     2.2639E+07  2.8042E+08 -1.5251E+08 -6.6668E+07 -2.7403E+08 -1.2264E+08  2.9276E-01
      22-
 mid.  surface    -1.4072E+09 -1.0132E+09 -5.0653E+07 -8.2520E+07 -2.8200E+08 -1.0301E+08  8.2814E-03
      23-
 mid.  surface     8.1756E+08  9.6444E+08  5.0458E+08 -6.1250E+07 -1.7303E+08 -7.0078E+07  1.6166E-01
      40-
 mid.  surface     1.3712E+08  2.4485E+08 -1.7488E+08  3.8471E+07  1.6019E+08  3.1643E+07  1.9678E-01
      41-
 mid.  surface     7.3120E+08  7.6693E+08  4.1638E+08  2.8780E+07  1.3426E+07 -3.5235E+06  1.6665E-01
      85-
 mid.  surface     5.9389E+09  5.7491E+09  3.8856E+09 -1.7189E+07 -1.9450E+08 -3.1728E+08  8.6885E-01
      86-
 mid.  surface     6.7144E+07  8.9677E+07  1.1366E+09  2.4773E+06 -9.6606E+07 -1.2910E+07  3.3567E-01
     100-
 mid.  surface    -1.9154E+08 -2.0396E+08 -3.9782E+08 -1.6937E+07  1.6219E+07 -3.4185E+06  1.8172E-01
     110-
 mid.  surface    -1.5974E+09 -1.6389E+09 -1.8709E+09  2.5678E+07  1.3257E+08  3.3135E+06  2.1546E-01



 n o d a l  s t r a i n  c a l c u l a t i o n s   f o r   t i m e  s t e p       96   ( at time 1.79844E+01 )

 node (global)
          strain       eps-xx      eps-yy      eps-zz      eps-xy      eps-yz      eps-zx       
       1-
 mid.  surface     1.3909E-01  9.0389E-02 -1.8657E-01  1.5581E-02 -3.0812E-02 -1.0408E-02
       2-
 mid.  surface     1.4450E-01  1.0095E-01 -2.6053E-01  4.4086E-02 -2.3527E-02  1.6500E-02
       8-
 mid.  surface     7.1303E-02  7.9260E-02 -1.4969E-01 -2.3245E-02 -3.3316E-02  1.2465E-02
       9-
 mid.  surface     9.3255E-02  5.5936E-02 -1.7399E-01 -1.5025E-02 -4.1750E-02  1.0777E-02
      10-
 mid.  surface     9.1286E-02  7.9332E-02 -1.6531E-01  1.1335E-02 -4.9322E-02 -1.6598E-03
      11-
 mid.  surface     6.8138E-02  6.1554E-02 -1.3218E-01 -9.6926E-03 -5.8244E-02 -1.1233E-02
      12-
 mid.  surface     2.7300E-02  8.6149E-02 -8.0971E-02 -1.2764E-02 -6.9225E-02 -3.9112E-02
      17-
 mid.  surface     8.4664E-02  7.4769E-02 -1.8015E-01 -6.9114E-03 -5.0970E-02 -2.9931E-02
      18-
 mid.  surface     8.1479E-02  9.0271E-02 -1.6880E-01  1.1659E-02 -5.6497E-02 -1.6751E-02
      19-
 mid.  surface     3.9451E-02  1.0321E-01 -1.5767E-01  2.6722E-03 -4.5239E-02 -2.5378E-02
      20-
 mid.  surface     1.0175E-01  8.2326E-02 -2.0096E-01  1.5606E-02  4.0308E-02  3.6648E-02
      21-
 mid.  surface     5.9114E-02  9.9718E-02 -1.8985E-01  1.1381E-02  4.0487E-02  3.8717E-02
      22-
 mid.  surface     5.1510E-02  8.0259E-02 -1.1536E-01 -4.7261E-03  2.6397E-02 -1.4810E-02
      23-
 mid.  surface     1.0157E-01  7.0727E-02 -1.6123E-01  4.7166E-03  3.4387E-02  1.4557E-02
      40-
 mid.  surface     9.0621E-02  9.1226E-02 -1.8548E-01  7.8764E-03  3.5514E-02 -1.4019E-03
      41-
 mid.  surface     6.8832E-02  1.0582E-01 -1.6859E-01  6.9324E-03  1.9484E-02  4.3864E-03
      85-
 mid.  surface     8.2726E-02  1.0138E-01 -2.7966E-01  1.8668E-02  6.0762E-02 -5.4310E-02
      86-
 mid.  surface     9.1844E-02  8.6314E-02 -2.0569E-01 -5.7969E-03  9.1793E-02 -4.0390E-02
     100-
 mid.  surface     5.7482E-02  8.5351E-02 -1.4883E-01 -8.8150E-03 -1.0901E-02  8.0123E-03
     110-
 mid.  surface     8.9389E-02  6.4636E-02 -1.8124E-01  4.6173E-03 -2.6097E-02 -1.9698E-02



 n o d a l  s t r e s s  c a l c u l a t i o n s   f o r   t i m e  s t e p      111   ( at time 2.11391E+01 )

 node (global)
          stress       sig-xx      sig-yy      sig-zz      sig-xy      sig-yz      sig-zx       plastic
                                                                                                 strain 
       1-
 mid.  surface     1.0131E+09  7.3353E+08 -1.2839E+09  7.6953E+07  1.6805E+08 -4.5088E+07  2.4865E-01
       2-
 mid.  surface     9.1614E+08  7.5304E+08 -3.6853E+08  9.8992E+06  3.2411E+08 -6.7986E+06  5.7157E-01
       8-
 mid.  surface    -2.0583E+08 -4.1174E+08 -4.4739E+08  1.3256E+06 -2.7338E+08  2.2493E+07  2.2716E-01
       9-
 mid.  surface    -2.1017E+09 -2.2349E+09 -2.3845E+09  3.1278E+07 -1.4764E+08  8.2056E+07  2.3100E-01
      10-
 mid.  surface    -3.1555E+08 -2.2334E+08 -2.7821E+05  4.3843E+07  8.5314E+07  8.8181E+06  1.2909E-01
      11-
 mid.  surface    -2.7913E+08 -3.3951E+08  4.5056E+08  1.4029E+08  5.1873E+08  1.3607E+08  9.8303E-02
      12-
 mid.  surface    -2.4896E+09 -2.7060E+09 -2.4840E+09  6.1486E+07  2.0612E+08  3.0961E+06 -1.6227E-01
      17-
 mid.  surface    -7.8139E+08 -7.8674E+08 -1.0455E+09  8.3719E+07  3.6124E+08  3.8881E+07  2.7167E-01
      18-
 mid.  surface    -1.3829E+09 -1.4174E+09 -1.0417E+09  3.6524E+07  3.2118E+07 -7.9053E+06  1.5287E-01
      19-
 mid.  surface    -8.7219E+08 -8.4978E+08 -1.7472E+09 -3.5873E+07  1.1470E+08 -7.3853E+07  2.5882E-01
      20-
 mid.  surface     2.2363E+09  2.4740E+09  4.8100E+08 -1.3074E+08 -4.8474E+08 -5.6498E+07  4.7586E-01
      21-
 mid.  surface    -1.5473E+09 -1.1959E+09 -1.2661E+09 -1.2679E+08 -3.7695E+08 -4.1917E+07  2.6742E-01
      22-
 mid.  surface    -1.1879E+09 -1.0618E+09 -4.3476E+08 -5.4856E+07 -3.2827E+08 -3.2134E+07 -1.0242E-01
      23-
 mid.  surface     2.1293E+09  2.2053E+09  1.6416E+09 -9.0653E+07 -3.3395E+08 -5.4052E+06  2.8012E-01
      40-
 mid.  surface     2.0560E+09  2.2067E+09  1.0847E+09 -7.7607E+07 -1.2490E+08 -1.9530E+07  3.3369E-01
      41-
 mid.  surface     2.4768E+09  2.5227E+09  1.5415E+09 -9.9237E+07 -2.1586E+08 -6.0088E+07  3.0487E-01
      85-
 mid.  surface     2.6534E+09  2.5704E+09  3.2901E+09  1.5362E+07  7.5590E+07 -2.4790E+07  8.0554E-01
      86-
 mid.  surface     1.8856E+09  1.7165E+09  1.6527E+09  7.3487E+07  3.9682E+07 -4.6759E+06  3.7016E-01
     100-
 mid.  surface    -8.3713E+07 -9.5282E+07 -2.4546E+08  1.9409E+07  7.5174E+07  3.2893E+06  2.5113E-01
     110-
 mid.  surface    -1.3683E+09 -1.3197E+09 -1.6088E+09  7.0791E+07  1.9955E+08  8.6456E+07  2.6770E-01



 n o d a l  s t r a i n  c a l c u l a t i o n s   f o r   t i m e  s t e p      111   ( at time 2.11391E+01 )

 node (global)
          strain       eps-xx      eps-yy      eps-zz      eps-xy      eps-yz      eps-zx       
       1-
 mid.  surface     1.8085E-01  1.1558E-01 -2.1328E-01  3.9837E-02 -4.7122E-02 -3.7773E-02
       2-
 mid.  surface     2.0102E-01  1.2298E-01 -3.4010E-01  6.0859E-02 -2.6639E-02  1.6645E-02
       8-
 mid.  surface     1.0119E-01  9.3068E-02 -2.0078E-01 -2.3056E-02 -5.4255E-02  2.1999E-02
       9-
 mid.  surface     1.0968E-01  4.9370E-02 -1.9543E-01 -1.0978E-02 -7.7396E-02  1.7522E-02
      10-
 mid.  surface     1.0381E-01  1.0355E-01 -1.9237E-01  1.3318E-02 -6.0113E-02 -3.7164E-03
      11-
 mid.  surface     7.2336E-02  1.0566E-01 -1.8547E-01 -1.0922E-02 -5.3272E-02  7.8777E-03
      12-
 mid.  surface     3.0683E-02  1.0695E-01 -9.4701E-02 -1.8608E-02 -8.6840E-02 -4.4496E-02
      17-
 mid.  surface     9.5726E-02  1.0706E-01 -2.3087E-01 -1.1508E-02 -5.0625E-02 -2.2918E-02
      18-
 mid.  surface     9.9267E-02  1.1782E-01 -2.1661E-01  1.2724E-02 -6.4402E-02 -1.6023E-02
      19-
 mid.  surface     5.6847E-02  1.1392E-01 -1.9307E-01 -1.0053E-02 -4.6675E-02 -2.8890E-02
      20-
 mid.  surface     1.3664E-01  1.0547E-01 -2.5094E-01  2.3578E-02  4.0537E-02  2.9639E-02
      21-
 mid.  surface     7.9769E-02  1.2087E-01 -2.4388E-01  7.5547E-03  4.4950E-02  4.6528E-02
      22-
 mid.  surface     6.3475E-02  1.0626E-01 -1.4107E-01 -7.3846E-03  8.6765E-03 -2.6637E-02
      23-
 mid.  surface     1.3391E-01  1.0550E-01 -2.1885E-01  1.3175E-02  3.7735E-02  1.2614E-02
      40-
 mid.  surface     1.0516E-01  1.1055E-01 -2.2129E-01  1.5292E-03  4.3259E-02 -6.9991E-03
      41-
 mid.  surface     8.4193E-02  1.3022E-01 -2.1126E-01 -3.7248E-03  3.4748E-02  3.8615E-03
      85-
 mid.  surface     1.0645E-01  1.4786E-01 -3.9070E-01  1.7290E-02  8.4599E-02 -4.8074E-02
      86-
 mid.  surface     1.0710E-01  1.1723E-01 -2.6161E-01 -9.7385E-03  1.3848E-01 -4.6852E-02
     100-
 mid.  surface     7.6484E-02  1.1855E-01 -2.0123E-01 -5.7770E-03 -2.0066E-03  9.6069E-03
     110-
 mid.  surface     1.0185E-01  8.2925E-02 -2.1064E-01  1.4730E-02 -4.5570E-02 -1.3152E-02



 n o d a l  s t r e s s  c a l c u l a t i o n s   f o r   t i m e  s t e p      121   ( at time 2.42939E+01 )

 node (global)
          stress       sig-xx      sig-yy      sig-zz      sig-xy      sig-yz      sig-zx       plastic
                                                                                                 strain 
       1-
 mid.  surface    -2.1509E+08 -2.6201E+08 -1.4993E+09 -2.0286E+07  1.6882E+08  1.9800E+07  3.6989E-01
       2-
 mid.  surface    -9.0126E+08 -8.5820E+08 -1.2946E+09  4.2068E+07  2.7385E+08  1.2902E+07  6.1645E-01
       8-
 mid.  surface    -3.2662E+09 -3.2100E+09 -2.2359E+09 -1.5584E+07  3.7365E+08  6.6588E+07  9.8622E-02
       9-
 mid.  surface    -5.3367E+09 -5.3113E+09 -4.3114E+09  1.2134E+07  3.0805E+08  4.2047E+07  1.0759E-01
      10-
 mid.  surface    -1.7710E+08 -1.5067E+08 -1.9959E+08  3.2051E+07  3.1917E+08  6.0873E+07  1.3529E-01
      11-
 mid.  surface     4.2348E+08  4.1197E+08  2.4519E+08  3.9347E+07  4.4750E+08  1.5437E+08  1.2697E-01
      12-
 mid.  surface    -6.5459E+08 -8.3191E+08 -1.0539E+09 -4.1832E+06  1.4268E+08  5.9696E+07 -1.1987E-01
      17-
 mid.  surface    -9.9065E+08 -9.8231E+08 -1.8594E+09  2.5382E+07  4.3038E+08  6.1391E+07  3.6264E-01
      18-
 mid.  surface    -1.6806E+09 -1.6693E+09 -1.6018E+09  8.4769E+06  3.5288E+08  5.2614E+07  1.5556E-01
      19-
 mid.  surface     1.8773E+08  1.2373E+08 -8.7178E+08  2.0110E+06  1.0955E+08 -2.4248E+07  3.5861E-01
      20-
 mid.  surface     6.8597E+08  8.5601E+08 -7.9651E+07 -5.3723E+07 -3.2745E+08 -1.1198E+08  5.5557E-01
      21-
 mid.  surface    -9.9485E+07 -3.7976E+07 -4.6201E+08 -3.4842E+07 -2.9766E+08 -9.7095E+07  3.0170E-01
      22-
 mid.  surface    -4.3535E+08 -4.7716E+08  1.6343E+08 -3.6868E+07 -2.5464E+08 -4.2634E+07 -1.5612E-01
      23-
 mid.  surface     1.2338E+09  1.3285E+09  1.5400E+09 -4.4842E+07 -3.0350E+08 -5.4083E+07  2.6462E-01
      40-
 mid.  surface     3.2688E+09  3.2515E+09  1.9797E+09 -4.7407E+07 -5.6069E+08 -7.1289E+07  4.8051E-01
      41-
 mid.  surface     2.7267E+09  2.6789E+09  1.8674E+09 -3.6328E+07 -4.5935E+08 -6.3766E+07  4.1255E-01
      85-
 mid.  surface    -1.0713E+09 -9.9734E+08  6.3706E+08  4.0844E+07  1.3303E+08 -3.9408E+07  6.3484E-01
      86-
 mid.  surface    -8.1927E+08 -7.9522E+08 -7.0002E+07  1.4228E+07  7.8366E+07  1.5008E+07  2.9087E-01
     100-
 mid.  surface     3.3215E+09  3.2361E+09  1.4823E+09  5.3475E+06 -3.7292E+08 -1.3891E+07  4.5101E-01
     110-
 mid.  surface     1.8071E+09  1.7187E+09 -7.8921E+07  6.5398E+06 -4.4532E+08 -4.8588E+07  4.6787E-01



 n o d a l  s t r a i n  c a l c u l a t i o n s   f o r   t i m e  s t e p      121   ( at time 2.42939E+01 )

 node (global)
          strain       eps-xx      eps-yy      eps-zz      eps-xy      eps-yz      eps-zx       
       1-
 mid.  surface     1.9490E-01  1.3861E-01 -2.3880E-01  5.0346E-02 -5.1157E-02 -4.6189E-02
       2-
 mid.  surface     2.2270E-01  1.3881E-01 -3.8015E-01  6.1089E-02 -2.4622E-02  1.9358E-02
       8-
 mid.  surface     1.1635E-01  1.2364E-01 -2.3710E-01 -2.1681E-02 -5.5858E-02  2.7185E-02
       9-
 mid.  surface     1.2535E-01  6.4272E-02 -2.2585E-01 -6.1067E-03 -9.0430E-02  1.9058E-02
      10-
 mid.  surface     1.1822E-01  1.1996E-01 -2.2253E-01  1.2895E-02 -6.7731E-02 -1.3051E-03
      11-
 mid.  surface     8.3717E-02  1.2526E-01 -2.1846E-01 -1.3808E-02 -5.0857E-02  1.1855E-02
      12-
 mid.  surface     5.2086E-02  1.2669E-01 -1.2018E-01 -1.4382E-02 -9.3874E-02 -4.4311E-02
      17-
 mid.  surface     1.0773E-01  1.2384E-01 -2.7194E-01 -1.7184E-02 -5.1264E-02 -2.3522E-02
      18-
 mid.  surface     1.1710E-01  1.4395E-01 -2.6214E-01  8.8942E-03 -6.9196E-02 -1.3103E-02
      19-
 mid.  surface     8.0650E-02  1.2431E-01 -2.2402E-01 -1.1758E-02 -4.8866E-02 -2.6214E-02
      20-
 mid.  surface     1.5085E-01  1.3184E-01 -2.9443E-01  2.4901E-02  4.3955E-02  2.8843E-02
      21-
 mid.  surface     9.9887E-02  1.3593E-01 -2.8555E-01  9.3490E-04  4.4130E-02  4.5785E-02
      22-
 mid.  surface     8.0602E-02  1.2911E-01 -1.7633E-01 -7.9635E-03 -5.2685E-04 -2.9503E-02
      23-
 mid.  surface     1.4825E-01  1.3393E-01 -2.5818E-01  1.7668E-02  4.2232E-02  9.1972E-03
      40-
 mid.  surface     1.2424E-01  1.2365E-01 -2.5737E-01  2.4861E-03  4.0815E-02 -7.0417E-03
      41-
 mid.  surface     1.0610E-01  1.4939E-01 -2.5651E-01 -2.4087E-03  4.1345E-02  3.7387E-03
      85-
 mid.  surface     1.2387E-01  1.7197E-01 -4.4688E-01  1.2700E-02  9.6832E-02 -5.2780E-02
      86-
 mid.  surface     1.1998E-01  1.4551E-01 -3.0214E-01 -7.2182E-03  1.5651E-01 -5.0885E-02
     100-
 mid.  surface     9.5440E-02  1.3549E-01 -2.3758E-01 -7.6984E-03  5.9812E-03  1.2684E-02
     110-
 mid.  surface     1.2017E-01  8.9041E-02 -2.4410E-01  1.1406E-02 -6.4047E-02 -1.7961E-02



 n o d a l  s t r e s s  c a l c u l a t i o n s   f o r   t i m e  s t e p      131   ( at time 2.74487E+01 )

 node (global)
          stress       sig-xx      sig-yy      sig-zz      sig-xy      sig-yz      sig-zx       plastic
                                                                                                 strain 
       1-
 mid.  surface    -9.1860E+07 -1.9385E+08 -1.4350E+09 -4.4371E+07  1.5626E+08 -2.3695E+07  4.8371E-01
       2-
 mid.  surface    -8.4349E+08 -8.3072E+08 -1.2680E+09  2.1005E+07  2.5375E+08 -2.5910E+07  6.5474E-01
       8-
 mid.  surface    -5.7867E+09 -5.5677E+09 -4.1524E+09 -5.3060E+07  4.6390E+08  1.0453E+08 -7.1018E-02
       9-
 mid.  surface    -6.4764E+09 -6.4256E+09 -5.7577E+09  7.6169E+06  8.8447E+07 -1.1669E+07  4.1740E-02
      10-
 mid.  surface    -1.2796E+08 -7.9971E+07 -4.1778E+08  2.8594E+07  1.5021E+08  1.3437E+06  1.7638E-01
      11-
 mid.  surface    -6.3369E+08 -5.7448E+08 -5.2503E+08  3.2248E+07  4.1359E+08  1.3151E+08  1.3158E-01
      12-
 mid.  surface    -3.4175E+08 -5.0871E+08 -9.5976E+08  1.2771E+07  7.3501E+07  3.3953E+07 -5.9392E-02
      17-
 mid.  surface    -1.1477E+09 -1.0157E+09 -2.1863E+09 -1.2460E+07  3.4599E+08  5.5292E+07  4.8090E-01
      18-
 mid.  surface    -1.8573E+09 -1.7791E+09 -1.9346E+09 -1.0722E+07  2.5910E+08  6.1651E+07  1.7922E-01
      19-
 mid.  surface     1.2466E+09  1.2234E+09 -1.6050E+08  2.2661E+07  4.0401E+07 -4.9306E+07  4.8900E-01
      20-
 mid.  surface     4.1369E+08  5.6163E+08 -1.7002E+08 -4.6944E+07 -2.4851E+08 -3.6766E+07  6.1338E-01
      21-
 mid.  surface     1.0176E+09  1.0765E+09  4.0187E+08 -2.5107E+07 -2.7699E+08 -7.6769E+07  3.6017E-01
      22-
 mid.  surface    -8.2813E+08 -8.7115E+08  2.4650E+07 -2.9192E+07 -2.1059E+08  1.6351E+07 -2.3051E-01
      23-
 mid.  surface    -1.5668E+07  2.7764E+07  9.1688E+08 -1.3288E+07 -1.8933E+08  1.0206E+07  1.8450E-01
      40-
 mid.  surface     4.7708E+09  4.6007E+09  3.0963E+09 -4.4118E+06 -5.5954E+08 -1.1776E+08  6.3875E-01
      41-
 mid.  surface     2.9758E+09  2.8449E+09  2.2145E+09 -3.1651E+07 -2.9265E+08 -1.6000E+07  4.8908E-01
      85-
 mid.  surface    -1.5486E+09 -1.4758E+09  1.9851E+08  1.5188E+06  1.4456E+08 -4.6255E+07  4.6878E-01
      86-
 mid.  surface    -1.0196E+09 -1.0210E+09 -2.6493E+08 -2.0130E+07  8.5891E+07 -2.0592E+07  2.1321E-01
     100-
 mid.  surface     2.4981E+09  2.4389E+09  1.7788E+09 -1.6282E+07  1.0404E+08  1.1821E+08  5.1815E-01
     110-
 mid.  surface     2.0811E+09  1.9239E+09  4.9538E+08  1.5841E+07 -2.6360E+08 -1.2672E+06  6.1735E-01



 n o d a l  s t r a i n  c a l c u l a t i o n s   f o r   t i m e  s t e p      131   ( at time 2.74487E+01 )

 node (global)
          strain       eps-xx      eps-yy      eps-zz      eps-xy      eps-yz      eps-zx       
       1-
 mid.  surface     2.0829E-01  1.5903E-01 -2.5916E-01  5.7391E-02 -5.3346E-02 -5.4762E-02
       2-
 mid.  surface     2.4193E-01  1.5118E-01 -4.1677E-01  6.0849E-02 -2.1712E-02  2.0876E-02
       8-
 mid.  surface     1.3344E-01  1.5558E-01 -2.7406E-01 -1.8212E-02 -5.6016E-02  3.1438E-02
       9-
 mid.  surface     1.4428E-01  7.5074E-02 -2.5853E-01 -1.0503E-03 -9.9215E-02  2.1320E-02
      10-
 mid.  surface     1.3448E-01  1.3087E-01 -2.4786E-01  1.4233E-02 -7.6237E-02 -1.3168E-04
      11-
 mid.  surface     9.5038E-02  1.4620E-01 -2.5305E-01 -1.4171E-02 -4.6766E-02  1.7673E-02
      12-
 mid.  surface     6.9415E-02  1.4600E-01 -1.5012E-01 -1.1201E-02 -9.8915E-02 -4.1182E-02
      17-
 mid.  surface     1.1969E-01  1.4734E-01 -3.1598E-01 -2.1622E-02 -4.9368E-02 -2.1302E-02
      18-
 mid.  surface     1.3588E-01  1.7095E-01 -3.0366E-01  6.5338E-03 -7.3400E-02 -9.0593E-03
      19-
 mid.  surface     9.8894E-02  1.3522E-01 -2.5450E-01 -1.2477E-02 -4.8951E-02 -2.2899E-02
      20-
 mid.  surface     1.6543E-01  1.6033E-01 -3.3883E-01  2.6389E-02  4.7710E-02  2.7475E-02
      21-
 mid.  surface     1.2141E-01  1.4862E-01 -3.2489E-01 -4.0997E-03  4.0386E-02  3.9844E-02
      22-
 mid.  surface     9.8975E-02  1.5170E-01 -2.1336E-01 -7.0893E-03 -1.4246E-02 -3.2618E-02
      23-
 mid.  surface     1.6147E-01  1.6411E-01 -2.9961E-01  2.1393E-02  5.0146E-02  6.0561E-03
      40-
 mid.  surface     1.4086E-01  1.3303E-01 -2.9059E-01 -1.1592E-03  3.2310E-02 -8.5114E-03
      41-
 mid.  surface     1.2755E-01  1.6776E-01 -3.0198E-01 -5.7451E-03  5.3607E-02  5.4025E-03
      85-
 mid.  surface     1.4112E-01  1.9215E-01 -5.0075E-01  8.2283E-03  1.0936E-01 -5.3826E-02
      86-
 mid.  surface     1.3368E-01  1.6932E-01 -3.3845E-01 -4.2878E-03  1.7422E-01 -5.2477E-02
     100-
 mid.  surface     1.1851E-01  1.5530E-01 -2.8114E-01 -7.3330E-03  1.5953E-02  1.9196E-02
     110-
 mid.  surface     1.3903E-01  9.3234E-02 -2.8200E-01  1.0283E-02 -8.9113E-02 -1.8204E-02



 n o d a l  s t r e s s  c a l c u l a t i o n s   f o r   t i m e  s t e p      146   ( at time 3.06035E+01 )

 node (global)
          stress       sig-xx      sig-yy      sig-zz      sig-xy      sig-yz      sig-zx       plastic
                                                                                                 strain 
       1-
 mid.  surface    -2.4421E+08 -3.6978E+08 -1.6253E+09 -3.9352E+07  1.5087E+08 -2.1824E+08  6.1316E-01
       2-
 mid.  surface    -9.8410E+07 -1.0210E+08 -5.4055E+08  9.0829E+06  3.0513E+08 -1.5822E+08  6.9638E-01
       8-
 mid.  surface    -2.8687E+09 -2.5043E+09 -2.7777E+09 -9.0065E+07  9.4544E+08  1.7152E+08 -4.2203E-02
       9-
 mid.  surface    -4.1693E+09 -4.0257E+09 -5.0564E+09 -5.5534E+07  5.5229E+08  9.8912E+06  1.6368E-01
      10-
 mid.  surface     1.2508E+09  1.3158E+09  1.0020E+08 -1.4687E+07  3.9015E+08 -2.1528E+07  3.1558E-01
      11-
 mid.  surface     9.9636E+08  1.1189E+09  2.9096E+08 -1.3368E+07  4.0520E+08 -1.1323E+08  2.2160E-01
      12-
 mid.  surface    -8.2784E+08 -9.5966E+08 -2.3000E+09  1.4083E+07 -3.7524E+07 -1.0783E+08  1.1999E-01
      17-
 mid.  surface    -9.1666E+08 -6.1591E+08 -1.0753E+09  1.1231E+07  3.8857E+08  9.5840E+06  5.4228E-01
      18-
 mid.  surface     3.3139E+07  1.1777E+08 -8.7536E+08 -3.8057E+07  4.4985E+08  7.5262E+07  3.0260E-01
      19-
 mid.  surface    -1.1910E+08 -4.5273E+07 -6.9919E+08  7.2313E+07  3.6392E+07 -3.6661E+07  5.7798E-01
      20-
 mid.  surface    -4.5786E+08 -2.7465E+08 -1.9752E+08 -1.4422E+07 -2.1156E+08  1.3094E+08  6.0111E-01
      21-
 mid.  surface    -6.9165E+07  4.9405E+07  1.3769E+08  2.5047E+07 -2.5902E+08  1.6180E+08  3.6064E-01
      22-
 mid.  surface    -5.8110E+08 -6.6191E+08 -6.1210E+08 -4.5174E+07 -2.6770E+08  1.1911E+08 -2.2198E-01
      23-
 mid.  surface     6.9851E+08  6.7633E+08  7.8721E+08 -6.1932E+07 -2.1627E+08  2.1754E+07  1.7140E-01
      40-
 mid.  surface     2.8506E+09  2.5264E+09  1.8431E+09 -1.2329E+07 -7.7863E+08 -9.5637E+07  7.1396E-01
      41-
 mid.  surface     1.8013E+09  1.5221E+09  1.7001E+09  9.8691E+06 -5.3681E+08  1.9358E+07  4.7655E-01
      85-
 mid.  surface    -2.5131E+08 -2.6127E+08  1.4522E+09 -3.4896E+07  2.1994E+08  1.0183E+07  2.5775E-01
      86-
 mid.  surface    -1.0338E+08 -1.8045E+08  6.0252E+08 -3.9723E+07  1.1024E+08 -5.6970E+07  1.0973E-01
     100-
 mid.  surface     5.6431E+08  5.5069E+08  1.4125E+09  5.1483E+07 -2.7161E+08  7.4908E+07  4.2768E-01
     110-
 mid.  surface    -7.6388E+08 -8.8248E+08 -7.7508E+08  3.7405E+07 -6.4745E+08 -7.9647E+07  6.0752E-01



 n o d a l  s t r a i n  c a l c u l a t i o n s   f o r   t i m e  s t e p      146   ( at time 3.06035E+01 )

 node (global)
          strain       eps-xx      eps-yy      eps-zz      eps-xy      eps-yz      eps-zx       
       1-
 mid.  surface     2.2067E-01  1.8816E-01 -2.6866E-01  6.9486E-02 -5.1746E-02 -6.4737E-02
       2-
 mid.  surface     2.6179E-01  1.6159E-01 -4.5139E-01  5.9659E-02 -8.2231E-03  2.5751E-02
       8-
 mid.  surface     1.5228E-01  1.9839E-01 -3.2092E-01 -1.2263E-02 -5.5801E-02  3.2622E-02
       9-
 mid.  surface     1.5915E-01  9.8245E-02 -2.9493E-01  4.5105E-03 -1.1353E-01  2.1839E-02
      10-
 mid.  surface     1.4860E-01  1.3496E-01 -2.7125E-01  1.1087E-02 -8.1740E-02  1.9320E-03
      11-
 mid.  surface     1.0290E-01  1.6587E-01 -2.8965E-01 -2.1448E-02 -3.8793E-02  2.8426E-02
      12-
 mid.  surface     8.7533E-02  1.7186E-01 -1.9833E-01 -4.4280E-03 -1.0556E-01 -3.0677E-02
      17-
 mid.  surface     1.3476E-01  1.7475E-01 -3.6198E-01 -3.5643E-02 -4.8832E-02 -1.8047E-02
      18-
 mid.  surface     1.5753E-01  1.9342E-01 -3.4429E-01 -1.0586E-04 -7.8000E-02 -7.4552E-03
      19-
 mid.  surface     1.2226E-01  1.4659E-01 -3.0620E-01 -1.2613E-02 -4.9116E-02 -1.5705E-02
      20-
 mid.  surface     1.8217E-01  1.9785E-01 -3.8446E-01  2.9462E-02  6.0512E-02  2.4964E-02
      21-
 mid.  surface     1.5271E-01  1.6812E-01 -3.8578E-01 -6.2713E-03  2.7464E-02  2.0872E-02
      22-
 mid.  surface     1.2718E-01  1.8245E-01 -2.6837E-01 -1.3521E-03 -3.3607E-02 -2.4038E-02
      23-
 mid.  surface     1.7142E-01  2.0657E-01 -3.4265E-01  2.5453E-02  6.2385E-02 -2.7737E-03
      40-
 mid.  surface     1.5513E-01  1.4660E-01 -3.2627E-01 -5.5874E-03  2.1937E-02 -7.4565E-03
      41-
 mid.  surface     1.5687E-01  1.8408E-01 -3.4590E-01 -6.3493E-03  7.0737E-02  7.8725E-03
      85-
 mid.  surface     1.4846E-01  2.2050E-01 -5.6271E-01 -6.6204E-03  1.2571E-01 -4.8610E-02
      86-
 mid.  surface     1.3660E-01  2.0501E-01 -3.6952E-01 -6.6428E-03  1.9635E-01 -5.3689E-02
     100-
 mid.  surface     1.5088E-01  1.7625E-01 -3.3740E-01 -6.2565E-03  2.5151E-02  2.6471E-02
     110-
 mid.  surface     1.5881E-01  1.0227E-01 -3.2912E-01  4.1340E-03 -1.2169E-01 -1.3322E-02



 n o d a l  s t r e s s  c a l c u l a t i o n s   f o r   t i m e  s t e p      158   ( at time 3.37583E+01 )

 node (global)
          stress       sig-xx      sig-yy      sig-zz      sig-xy      sig-yz      sig-zx       plastic
                                                                                                 strain 
       1-
 mid.  surface    -1.2130E+08 -2.2588E+08 -1.4992E+09 -3.8443E+06  8.9201E+07 -6.1215E+07  7.2337E-01
       2-
 mid.  surface    -7.9488E+07 -1.3517E+08 -5.5608E+08 -2.0734E+07  1.7746E+08 -2.6828E+07  7.3850E-01
       8-
 mid.  surface    -2.5594E+09 -2.2970E+09 -2.9047E+09 -6.0435E+07  4.7386E+08  2.5395E+08  1.3857E-02
       9-
 mid.  surface    -4.0674E+09 -4.0123E+09 -5.6821E+09 -4.5787E+07  1.5995E+08  5.8210E+07  3.2814E-01
      10-
 mid.  surface     1.3536E+09  1.2921E+09 -1.4325E+08 -1.5401E+07  1.3546E+08  1.5997E+07  4.3703E-01
      11-
 mid.  surface     5.2506E+08  6.0044E+08 -2.1923E+08 -1.1815E+07  2.1444E+08  4.6348E+07  2.9503E-01
      12-
 mid.  surface    -3.7955E+08 -4.2497E+08 -1.8476E+09  3.2377E+07 -1.8081E+07 -4.4192E+07  2.3966E-01
      17-
 mid.  surface    -1.2167E+09 -1.0273E+09 -1.4450E+09 -2.6884E+07  1.9300E+08  1.0064E+08  5.9531E-01
      18-
 mid.  surface    -2.1179E+08 -1.9651E+08 -9.6813E+08 -4.6129E+07  2.3716E+08  1.2112E+08  3.6593E-01
      19-
 mid.  surface     1.3872E+08  1.6423E+08 -4.8529E+08  3.8585E+07  1.3501E+07 -4.1648E+07  6.3638E-01
      20-
 mid.  surface    -7.5158E+08 -6.2833E+08 -5.6190E+08 -7.5197E+06 -1.3298E+08  1.0917E+07  6.0302E-01
      21-
 mid.  surface     2.8998E+08  3.6811E+08  4.4597E+08  2.2851E+07 -1.0524E+08  9.0549E+06  3.5428E-01
      22-
 mid.  surface    -1.7589E+08 -1.7651E+08 -1.7367E+08 -3.6658E+06 -1.2817E+08  1.2250E+07 -2.2724E-01
      23-
 mid.  surface     4.4472E+08  4.5695E+08  4.9423E+08 -1.1981E+07 -1.1953E+08 -4.1641E+07  1.6635E-01
      40-
 mid.  surface     2.5900E+09  2.3532E+09  1.7417E+09  3.5327E+07 -3.7556E+08 -2.0368E+08  7.4850E-01
      41-
 mid.  surface     1.0797E+09  9.5125E+08  1.6730E+09  2.5638E+07 -1.4783E+08 -3.5694E+07  4.0429E-01
      85-
 mid.  surface    -4.2459E+08 -4.4610E+08  1.3518E+09 -6.4558E+07  1.2070E+08  2.0532E+07  1.0447E-01
      86-
 mid.  surface    -2.9891E+08 -3.4067E+08  4.7954E+08 -3.8913E+07  5.9991E+07  1.8031E+07  3.8457E-02
     100-
 mid.  surface     2.5179E+08  3.3872E+08  1.6868E+09  5.1973E+07  2.6450E+06  8.6171E+07  3.1493E-01
     110-
 mid.  surface    -5.4090E+08 -6.2138E+08 -1.0161E+09  4.1063E+07 -3.7583E+08 -1.1248E+08  6.5278E-01



 n o d a l  s t r a i n  c a l c u l a t i o n s   f o r   t i m e  s t e p      158   ( at time 3.37583E+01 )

 node (global)
          strain       eps-xx      eps-yy      eps-zz      eps-xy      eps-yz      eps-zx       
       1-
 mid.  surface     2.3766E-01  2.0527E-01 -2.9624E-01  7.4922E-02 -5.3841E-02 -6.7265E-02
       2-
 mid.  surface     2.8216E-01  1.6895E-01 -4.8401E-01  6.0483E-02 -6.9543E-03  2.7581E-02
       8-
 mid.  surface     1.6576E-01  2.3377E-01 -3.6324E-01 -4.5022E-03 -5.4669E-02  3.1658E-02
       9-
 mid.  surface     1.7393E-01  1.2228E-01 -3.3668E-01  8.9177E-03 -1.1524E-01  1.9323E-02
      10-
 mid.  surface     1.6189E-01  1.3298E-01 -2.8269E-01  9.7915E-03 -8.5887E-02  3.7316E-03
      11-
 mid.  surface     1.1502E-01  1.8408E-01 -3.2804E-01 -2.2235E-02 -3.8204E-02  3.1253E-02
      12-
 mid.  surface     1.0442E-01  1.8945E-01 -2.3031E-01 -1.5610E-03 -1.0715E-01 -2.6805E-02
      17-
 mid.  surface     1.4908E-01  1.9662E-01 -4.0276E-01 -3.9704E-02 -4.8180E-02 -1.6910E-02
      18-
 mid.  surface     1.7292E-01  2.0313E-01 -3.6651E-01 -3.0708E-03 -8.1144E-02 -3.9197E-03
      19-
 mid.  surface     1.4064E-01  1.5513E-01 -3.3202E-01 -1.1621E-02 -4.8619E-02 -1.2176E-02
      20-
 mid.  surface     1.9727E-01  2.2664E-01 -4.2888E-01  3.2915E-02  6.1966E-02  2.0502E-02
      21-
 mid.  surface     1.6931E-01  1.8297E-01 -4.1770E-01 -6.7002E-03  2.2665E-02  1.5117E-02
      22-
 mid.  surface     1.4310E-01  2.0408E-01 -3.0533E-01 -2.4363E-04 -4.5546E-02 -2.6636E-02
      23-
 mid.  surface     1.8455E-01  2.3419E-01 -3.8907E-01  2.9434E-02  7.1117E-02 -1.0279E-02
      40-
 mid.  surface     1.7001E-01  1.5275E-01 -3.4932E-01 -7.9451E-03  1.1459E-02 -9.0669E-03
      41-
 mid.  surface     1.7741E-01  1.9108E-01 -3.7720E-01 -5.3723E-03  8.7304E-02  1.0249E-02
      85-
 mid.  surface     1.6409E-01  2.3842E-01 -6.0812E-01 -8.8464E-03  1.3547E-01 -5.5299E-02
      86-
 mid.  surface     1.5124E-01  2.2701E-01 -4.0762E-01 -7.3317E-03  2.1059E-01 -5.4066E-02
     100-
 mid.  surface     1.7167E-01  1.9890E-01 -3.8665E-01 -3.5810E-03  2.4340E-02  3.4953E-02
     110-
 mid.  surface     1.7501E-01  1.1632E-01 -3.7609E-01  1.6946E-03 -1.4333E-01 -9.9202E-03



 n o d a l  s t r e s s  c a l c u l a t i o n s   f o r   t i m e  s t e p      170   ( at time 3.69131E+01 )

 node (global)
          stress       sig-xx      sig-yy      sig-zz      sig-xy      sig-yz      sig-zx       plastic
                                                                                                 strain 
       1-
 mid.  surface    -2.1883E+08 -2.7258E+08 -1.5941E+09 -2.5153E+07  1.1806E+08 -2.7931E+07  8.4131E-01
       2-
 mid.  surface     1.3018E+08  9.9245E+07 -3.3789E+08 -1.4677E+07  1.8436E+08 -3.7400E+07  7.7730E-01
       8-
 mid.  surface    -2.3091E+09 -2.1367E+09 -2.7044E+09 -8.2589E+07  3.3984E+08  2.7153E+08  6.8471E-02
       9-
 mid.  surface    -4.3672E+09 -4.4018E+09 -6.0935E+09 -4.2269E+07  1.0210E+08  6.7877E+07  4.8759E-01
      10-
 mid.  surface     1.4052E+09  1.3721E+09 -1.1355E+08 -3.2437E+07  7.5118E+07 -1.3763E+07  5.6672E-01
      11-
 mid.  surface     4.7392E+08  5.3260E+08 -3.0301E+08 -6.5813E+06  1.7097E+08  1.9936E+07  3.7794E-01
      12-
 mid.  surface    -1.0969E+08 -1.4560E+08 -1.5986E+09  4.2362E+06 -4.0204E+07 -4.7364E+07  3.6771E-01
      17-
 mid.  surface    -1.2231E+09 -1.0210E+09 -1.4560E+09 -1.3908E+07  1.2760E+08  9.8402E+07  6.4904E-01
      18-
 mid.  surface     1.2176E+08  1.8953E+08 -6.1878E+08 -7.0456E+07  1.0168E+08  1.1096E+08  4.3683E-01
      19-
 mid.  surface     5.4655E+08  5.9708E+08 -7.1190E+07  2.4591E+07 -8.8152E+06 -5.0721E+07  6.9133E-01
      20-
 mid.  surface    -9.7664E+08 -8.5200E+08 -7.8362E+08  1.2743E+07 -9.5033E+07  3.4053E+07  6.0163E-01
      21-
 mid.  surface     3.7323E+08  4.4530E+08  5.3089E+08  1.1663E+07 -9.4009E+07  3.0914E+07  3.4344E-01
      22-
 mid.  surface    -1.2779E+08 -1.4931E+08 -1.3784E+08 -1.6738E+07 -1.2287E+08  2.6532E+07 -2.2966E-01
      23-
 mid.  surface     1.2555E+08  9.0820E+07  1.4722E+08  2.2855E+06 -8.0086E+07 -2.2967E+07  1.6564E-01
      40-
 mid.  surface     2.3694E+09  2.1373E+09  1.5161E+09  3.9152E+07 -2.3179E+08 -2.1480E+08  7.9195E-01
      41-
 mid.  surface     1.1263E+09  1.0471E+09  1.7761E+09  1.5412E+07 -9.5344E+07 -3.5143E+07  3.3417E-01
      85-
 mid.  surface    -5.5532E+08 -6.0288E+08  1.2372E+09 -3.3280E+07  1.1971E+08  1.0186E+07 -5.6408E-02
      86-
 mid.  surface    -4.8166E+08 -5.3469E+08  3.0287E+08 -2.9961E+07  6.8158E+07  2.5958E+07 -3.3297E-02
     100-
 mid.  surface     1.1016E+08  1.5170E+08  1.5563E+09  5.1654E+07  4.7355E+07  9.7302E+07  1.9679E-01
     110-
 mid.  surface    -1.1388E+09 -1.3072E+09 -1.6747E+09  8.1192E+07 -1.9493E+08 -9.1737E+07  6.8751E-01



 n o d a l  s t r a i n  c a l c u l a t i o n s   f o r   t i m e  s t e p      170   ( at time 3.69131E+01 )

 node (global)
          strain       eps-xx      eps-yy      eps-zz      eps-xy      eps-yz      eps-zx       
       1-
 mid.  surface     2.5623E-01  2.2192E-01 -3.2017E-01  8.1991E-02 -5.6020E-02 -6.8893E-02
       2-
 mid.  surface     3.0448E-01  1.7612E-01 -5.1796E-01  6.1190E-02 -5.1788E-03  2.9222E-02
       8-
 mid.  surface     1.8319E-01  2.6168E-01 -4.0229E-01  1.8763E-03 -5.9319E-02  3.2388E-02
       9-
 mid.  surface     1.8975E-01  1.3762E-01 -3.6952E-01  1.4882E-02 -1.2363E-01  1.9379E-02
      10-
 mid.  surface     1.7636E-01  1.3242E-01 -2.9504E-01  8.1102E-03 -8.9350E-02  8.1936E-03
      11-
 mid.  surface     1.2895E-01  2.0587E-01 -3.7341E-01 -2.2778E-02 -3.4652E-02  3.5225E-02
      12-
 mid.  surface     1.1998E-01  2.0623E-01 -2.6343E-01 -6.4517E-04 -1.0762E-01 -2.3915E-02
      17-
 mid.  surface     1.6637E-01  2.1762E-01 -4.4591E-01 -4.4330E-02 -4.4752E-02 -1.4936E-02
      18-
 mid.  surface     1.9001E-01  2.1205E-01 -3.8861E-01 -8.2056E-03 -8.3706E-02  1.6159E-03
      19-
 mid.  surface     1.5962E-01  1.6127E-01 -3.5673E-01 -1.4015E-02 -4.6654E-02 -1.0134E-02
      20-
 mid.  surface     2.1594E-01  2.5609E-01 -4.7294E-01  3.7546E-02  6.0535E-02  1.3993E-02
      21-
 mid.  surface     1.8707E-01  1.9836E-01 -4.4954E-01 -8.9130E-03  1.6185E-02  1.3104E-02
      22-
 mid.  surface     1.5882E-01  2.2789E-01 -3.4213E-01  6.4809E-04 -6.3745E-02 -3.0424E-02
      23-
 mid.  surface     2.0161E-01  2.6652E-01 -4.4212E-01  3.4305E-02  8.1228E-02 -1.4307E-02
      40-
 mid.  surface     1.8475E-01  1.6167E-01 -3.7650E-01 -1.0940E-02  3.7594E-03 -1.4818E-02
      41-
 mid.  surface     1.9795E-01  2.0028E-01 -4.1042E-01 -7.5536E-03  1.0416E-01  9.9205E-03
      85-
 mid.  surface     1.7704E-01  2.5991E-01 -6.5885E-01 -1.3654E-02  1.4982E-01 -5.3794E-02
      86-
 mid.  surface     1.6126E-01  2.5201E-01 -4.4475E-01 -9.3767E-03  2.2667E-01 -4.9998E-02
     100-
 mid.  surface     1.9588E-01  2.2031E-01 -4.4167E-01 -2.6747E-03  3.2346E-02  3.9090E-02
     110-
 mid.  surface     1.9084E-01  1.2932E-01 -4.1850E-01  2.6032E-03 -1.7036E-01 -5.4359E-03



 n o d a l  s t r e s s  c a l c u l a t i o n s   f o r   t i m e  s t e p      180   ( at time 4.00679E+01 )

 node (global)
          stress       sig-xx      sig-yy      sig-zz      sig-xy      sig-yz      sig-zx       plastic
                                                                                                 strain 
       1-
 mid.  surface    -2.6369E+08 -2.4911E+08 -1.6131E+09 -2.3809E+07  7.9718E+07  4.2622E+07  9.3067E-01
       2-
 mid.  surface     1.7063E+07  4.0706E+07 -4.2356E+08 -4.2712E+07  1.1406E+08 -7.1503E+06  8.0301E-01
       8-
 mid.  surface    -1.9939E+09 -1.8941E+09 -2.4474E+09 -6.0532E+07  1.4133E+08  2.0740E+08  1.1002E-01
       9-
 mid.  surface    -4.5418E+09 -4.6044E+09 -6.3647E+09 -2.4168E+06  5.5805E+06  6.0662E+07  6.2530E-01
      10-
 mid.  surface     1.5112E+09  1.4776E+09 -2.3015E+07 -5.7118E+06 -1.4535E+07 -4.6062E+06  6.8238E-01
      11-
 mid.  surface    -2.6929E+08 -2.1047E+08 -1.0690E+09 -7.9850E+06  5.2780E+07  2.9806E+07  4.4372E-01
      12-
 mid.  surface     3.9848E+08  3.8399E+08 -1.1020E+09  2.9245E+07 -2.2856E+07 -2.2809E+07  4.7217E-01
      17-
 mid.  surface    -1.6128E+09 -1.4820E+09 -1.8903E+09 -3.6015E+07  3.5738E+07  6.4151E+07  6.8839E-01
      18-
 mid.  surface     4.3356E+08  4.9361E+08 -3.0583E+08 -5.7768E+07 -3.0417E+07  8.5678E+07  4.9835E-01
      19-
 mid.  surface     1.1860E+09  1.1809E+09  5.3038E+08  1.8637E+07 -6.7896E+06 -7.3232E+07  7.3821E-01
      20-
 mid.  surface    -8.3974E+08 -7.7225E+08 -6.7629E+08 -1.0672E+07 -4.0225E+07 -8.8220E+06  6.0206E-01
      21-
 mid.  surface     1.1672E+09  1.1648E+09  1.2811E+09  1.5146E+07 -2.1525E+07 -1.5974E+07  3.4208E-01
      22-
 mid.  surface     2.6359E+08  2.3921E+08  2.4664E+08  1.7815E+07 -5.2723E+07  1.6187E+07 -2.2707E-01
      23-
 mid.  surface    -1.2025E+08 -1.2814E+08 -1.0366E+08  1.0662E+07 -3.1385E+07 -1.7728E+07  1.6550E-01
      40-
 mid.  surface     2.4893E+09  2.3413E+09  1.6766E+09  5.1604E+07 -6.5629E+07 -1.6923E+08  8.3703E-01
      41-
 mid.  surface     1.2673E+09  1.2540E+09  1.9942E+09  1.8985E+06 -8.8439E+06 -3.2332E+07  2.7627E-01
      85-
 mid.  surface    -1.2024E+09 -1.1884E+09  6.5356E+08 -5.4695E+07  6.7716E+07  2.4461E+07 -1.9365E-01
      86-
 mid.  surface    -1.0507E+09 -1.0317E+09 -2.0868E+08 -3.9310E+07  3.2217E+07  6.1927E+07 -9.8090E-02
     100-
 mid.  surface    -1.7779E+08 -1.5054E+08  1.2621E+09  1.2091E+07  9.9181E+07  6.8582E+07  8.5619E-02
     110-
 mid.  surface    -1.7016E+09 -1.8630E+09 -2.2722E+09  6.8774E+07 -1.6847E+07 -6.3324E+07  7.1886E-01



 n o d a l  s t r a i n  c a l c u l a t i o n s   f o r   t i m e  s t e p      180   ( at time 4.00679E+01 )

 node (global)
          strain       eps-xx      eps-yy      eps-zz      eps-xy      eps-yz      eps-zx       
       1-
 mid.  surface     2.6875E-01  2.3359E-01 -3.3799E-01  8.4881E-02 -5.4985E-02 -6.7984E-02
       2-
 mid.  surface     3.1652E-01  1.8189E-01 -5.3882E-01  6.1850E-02 -2.7208E-03  2.6423E-02
       8-
 mid.  surface     1.9822E-01  2.8265E-01 -4.3132E-01  5.8903E-03 -6.6241E-02  3.4484E-02
       9-
 mid.  surface     2.0450E-01  1.4734E-01 -3.9651E-01  1.9735E-02 -1.3004E-01  2.0627E-02
      10-
 mid.  surface     1.8975E-01  1.3390E-01 -3.0716E-01  7.9337E-03 -9.1512E-02  1.2005E-02
      11-
 mid.  surface     1.4278E-01  2.2438E-01 -4.1098E-01 -2.3419E-02 -3.4821E-02  3.6381E-02
      12-
 mid.  surface     1.3897E-01  2.1964E-01 -2.9516E-01  7.0476E-04 -1.0557E-01 -2.2109E-02
      17-
 mid.  surface     1.8078E-01  2.3501E-01 -4.7977E-01 -4.6322E-02 -4.4147E-02 -1.3874E-02
      18-
 mid.  surface     2.0452E-01  2.2124E-01 -4.0853E-01 -1.1064E-02 -8.5810E-02  6.6181E-03
      19-
 mid.  surface     1.7903E-01  1.6835E-01 -3.8118E-01 -1.3531E-02 -4.3953E-02 -1.0307E-02
      20-
 mid.  surface     2.3059E-01  2.7758E-01 -5.0845E-01  3.9807E-02  5.8237E-02  8.9426E-03
      21-
 mid.  surface     2.0132E-01  2.1164E-01 -4.7683E-01 -8.4474E-03  1.0709E-02  1.2708E-02
      22-
 mid.  surface     1.7385E-01  2.4637E-01 -3.7510E-01  4.6164E-04 -7.5891E-02 -3.1425E-02
      23-
 mid.  surface     2.1590E-01  2.8833E-01 -4.8439E-01  3.6743E-02  8.7955E-02 -1.9696E-02
      40-
 mid.  surface     1.9893E-01  1.7128E-01 -4.0306E-01 -1.2300E-02 -1.1530E-04 -1.8664E-02
      41-
 mid.  surface     2.1506E-01  2.1158E-01 -4.4254E-01 -8.4958E-03  1.1690E-01  9.9317E-03
      85-
 mid.  surface     1.8690E-01  2.7571E-01 -6.8889E-01 -1.6371E-02  1.5696E-01 -4.7088E-02
      86-
 mid.  surface     1.6903E-01  2.7198E-01 -4.6892E-01 -1.1832E-02  2.3317E-01 -5.1901E-02
     100-
 mid.  surface     2.1532E-01  2.4062E-01 -4.8630E-01 -1.9207E-03  4.1699E-02  4.0505E-02
     110-
 mid.  surface     2.0618E-01  1.4212E-01 -4.5438E-01  5.1775E-03 -1.9220E-01 -3.5861E-03



 n o d a l  s t r e s s  c a l c u l a t i o n s   f o r   t i m e  s t e p      195   ( at time 4.32227E+01 )

 node (global)
          stress       sig-xx      sig-yy      sig-zz      sig-xy      sig-yz      sig-zx       plastic
                                                                                                 strain 
       1-
 mid.  surface    -1.5208E+08 -9.3959E+07 -1.4922E+09 -2.9139E+07  5.1669E+07 -4.3978E+07  1.0579E+00
       2-
 mid.  surface     3.8240E+08  4.3486E+08 -4.7219E+07  2.2105E+07  1.1568E+08 -1.1822E+08  8.3947E-01
       8-
 mid.  surface    -1.3575E+09 -1.3074E+09 -1.8224E+09 -9.2584E+07  1.4672E+08  2.1041E+08  1.5930E-01
       9-
 mid.  surface    -4.5075E+09 -4.7277E+09 -6.4498E+09 -1.9845E+07 -2.9258E+07  2.0688E+07  7.7123E-01
      10-
 mid.  surface     1.5077E+09  1.4355E+09 -4.7153E+07 -6.4519E+07  2.3141E+05 -9.2206E+07  8.1961E-01
      11-
 mid.  surface     6.4651E+08  7.2554E+08 -5.2350E+08 -1.9029E+07  7.7621E+07 -1.1320E+08  5.6735E-01
      12-
 mid.  surface    -4.3170E+08 -4.0695E+08 -2.1776E+09 -6.2484E+07 -6.9737E+07  1.3499E+06  6.3787E-01
      17-
 mid.  surface    -6.1722E+08 -3.4043E+08 -1.0614E+09 -3.7708E+07  5.0970E+07 -3.9874E+07  7.6497E-01
      18-
 mid.  surface     1.0448E+09  1.1250E+09  3.2599E+08 -1.2343E+08 -5.8993E+07  5.8881E+07  5.7080E-01
      19-
 mid.  surface     1.7260E+08  2.5797E+08 -1.7360E+08 -1.2340E+07 -2.3296E+07 -7.5070E+07  7.6918E-01
      20-
 mid.  surface    -1.0893E+09 -9.8652E+08 -6.3784E+08  3.9776E+07 -3.7912E+07  9.5441E+07  5.7995E-01
      21-
 mid.  surface    -2.0154E+08 -2.4369E+08  6.2571E+08 -6.3835E+06 -2.9973E+07  8.6571E+07  2.6269E-01
      22-
 mid.  surface    -5.1720E+08 -6.3582E+08 -3.1974E+08 -2.2405E+07 -7.9409E+07  1.3558E+08 -2.4955E-01
      23-
 mid.  surface     6.3469E+07 -1.8733E+07 -2.0449E+08  3.7735E+07 -2.9799E+07  9.1542E+07  1.9635E-01
      40-
 mid.  surface     1.8649E+09  1.6470E+09  1.0246E+09  4.4377E+07 -3.2483E+07 -1.3035E+08  8.9096E-01
      41-
 mid.  surface     1.1401E+09  1.1624E+09  1.9114E+09  1.0360E+07 -2.3043E+07  4.6587E+07  2.1119E-01
      85-
 mid.  surface    -2.3882E+08 -3.1987E+08  1.5840E+09  5.9462E+07  1.0083E+08 -2.4388E+07 -3.7355E-01
      86-
 mid.  surface    -2.1734E+08 -2.7396E+08  5.9351E+08  2.0765E+07  2.8330E+07 -3.3537E+07 -1.7976E-01
     100-
 mid.  surface    -3.1454E+08 -2.3326E+08  1.1510E+09  4.7617E+07  1.7252E+08  1.0104E+08 -3.4864E-02
     110-
 mid.  surface    -1.9600E+09 -2.1952E+09 -2.5677E+09  1.0992E+08  1.0744E+07 -5.3445E+07  7.4642E-01



 n o d a l  s t r a i n  c a l c u l a t i o n s   f o r   t i m e  s t e p      195   ( at time 4.32227E+01 )

 node (global)
          strain       eps-xx      eps-yy      eps-zz      eps-xy      eps-yz      eps-zx       
       1-
 mid.  surface     2.8058E-01  2.4987E-01 -3.5472E-01  8.5215E-02 -5.0363E-02 -6.3597E-02
       2-
[...]
      23-
 mid.  surface     4.6731E-01  4.2065E-01 -9.1988E-01 -1.6846E-02  2.6597E-01  1.3946E-01
      40-
 mid.  surface     4.5899E-01  3.7999E-01 -9.6112E-01 -3.4819E-02  2.6291E-01  1.3181E-02
      41-
 mid.  surface     5.0632E-01  4.9122E-01 -1.1148E+00 -2.1643E-02  3.4003E-01  6.4038E-02
      85-
 mid.  surface     4.7935E-01  4.5047E-01 -9.7617E-01 -3.4587E-02  1.9240E-02  2.9111E-01
      86-
 mid.  surface     4.3257E-01  4.8567E-01 -9.0748E-01  4.7666E-03  1.0568E-01  2.3657E-01
     100-
 mid.  surface     5.4069E-01  4.6091E-01 -9.7375E-01 -2.2306E-03  6.5176E-01 -7.6220E-02
     110-
 mid.  surface     4.6964E-01  2.5684E-01 -7.0175E-01  2.3591E-02 -1.6947E-01 -8.3789E-02



 n o d a l  s t r e s s  c a l c u l a t i o n s   f o r   t i m e  s t e p      351   ( at time 9.36992E+01 )

 node (global)
          stress       sig-xx      sig-yy      sig-zz      sig-xy      sig-yz      sig-zx       plastic
                                                                                                 strain 
       1-
 mid.  surface     2.1668E+08  2.1668E+08  2.1668E+08  0.0000E+00  0.0000E+00  0.0000E+00  2.4549E+00
       2-
 mid.  surface     3.2780E+08  3.2780E+08  3.2780E+08  0.0000E+00  0.0000E+00  0.0000E+00  1.4834E+00
       8-
 mid.  surface     0.0000E+00  0.0000E+00  0.0000E+00  0.0000E+00  0.0000E+00  0.0000E+00  0.0000E+00
       9-
 mid.  surface     0.0000E+00  0.0000E+00  0.0000E+00  0.0000E+00  0.0000E+00  0.0000E+00  0.0000E+00
      10-
 mid.  surface     0.0000E+00  0.0000E+00  0.0000E+00  0.0000E+00  0.0000E+00  0.0000E+00  0.0000E+00
      11-
 mid.  surface    -3.7363E+08 -3.6458E+08 -6.1857E+08 -7.5353E+07 -5.5578E+07  1.0482E+07  8.0639E-01
      12-
 mid.  surface    -2.1779E+08 -3.8104E+08 -1.2110E+09 -7.5811E+07 -1.2015E+07 -5.2782E+07  1.9749E+00
      17-
 mid.  surface    -1.4913E+08 -6.0709E+07  7.9803E+08  1.1301E+08 -4.8137E+07 -4.7158E+07  2.2814E-01
      18-
 mid.  surface     0.0000E+00  0.0000E+00  0.0000E+00  0.0000E+00  0.0000E+00  0.0000E+00  0.0000E+00
      19-
 mid.  surface    -1.6987E+08 -1.8489E+08  1.1154E+08  5.4338E+07 -6.6117E+07 -8.1453E+07  3.1090E-01
      20-
 mid.  surface    -5.9685E+07  4.6959E+07  4.6541E+08  1.8289E+07 -9.6794E+06  4.0422E+07 -2.6254E-01
      21-
 mid.  surface     2.6003E+08  2.4532E+08  4.3880E+08  6.6711E+07  5.7841E+07 -7.2147E+06 -3.5258E-01
      22-
 mid.  surface     1.0799E+08 -3.9924E+07 -1.3064E+09 -1.4582E+08  1.0572E+08  7.1274E+07  3.0011E-01
      23-
 mid.  surface     2.3216E+08  2.5409E+08 -3.9016E+08 -1.3067E+08  7.3882E+07  1.3271E+08  1.9329E-01
      40-
 mid.  surface     0.0000E+00  0.0000E+00  0.0000E+00  0.0000E+00  0.0000E+00  0.0000E+00  0.0000E+00
      41-
 mid.  surface     0.0000E+00  0.0000E+00  0.0000E+00  0.0000E+00  0.0000E+00  0.0000E+00  0.0000E+00
      85-
 mid.  surface     2.1668E+08  2.1668E+08  2.1668E+08  0.0000E+00  0.0000E+00  0.0000E+00 -1.3230E-02
      86-
 mid.  surface    -2.3471E+08 -2.3471E+08 -2.3471E+08  0.0000E+00  0.0000E+00  0.0000E+00  2.9844E-01
     100-
 mid.  surface     0.0000E+00  0.0000E+00  0.0000E+00  0.0000E+00  0.0000E+00  0.0000E+00  0.0000E+00
     110-
 mid.  surface     0.0000E+00  0.0000E+00  0.0000E+00  0.0000E+00  0.0000E+00  0.0000E+00  0.0000E+00



 n o d a l  s t r a i n  c a l c u l a t i o n s   f o r   t i m e  s t e p      351   ( at time 9.36992E+01 )

 node (global)
          strain       eps-xx      eps-yy      eps-zz      eps-xy      eps-yz      eps-zx       
       1-
 mid.  surface     4.6949E-01  5.0575E-01 -1.0612E+00 -3.1955E-02 -8.0265E-02  2.8793E-02
       2-
 mid.  surface     4.9853E-01  4.3541E-01 -9.7162E-01 -8.1509E-02 -8.3445E-02 -1.5842E-02
       8-
 mid.  surface     0.0000E+00  0.0000E+00  0.0000E+00  0.0000E+00  0.0000E+00  0.0000E+00
       9-
 mid.  surface     0.0000E+00  0.0000E+00  0.0000E+00  0.0000E+00  0.0000E+00  0.0000E+00
      10-
 mid.  surface     0.0000E+00  0.0000E+00  0.0000E+00  0.0000E+00  0.0000E+00  0.0000E+00
      11-
 mid.  surface     2.2071E-01  2.0315E-01 -4.3076E-01 -3.7756E-02 -8.6169E-02  3.5930E-02
      12-
 mid.  surface     3.9016E-01  5.5701E-01 -9.0649E-01 -1.1998E-02 -9.3234E-02 -9.8400E-02
      17-
 mid.  surface     2.2649E-01  1.5568E-01 -4.3185E-01 -8.3839E-02 -1.3284E-01 -1.6637E-02
      18-
 mid.  surface     0.0000E+00  0.0000E+00  0.0000E+00  0.0000E+00  0.0000E+00  0.0000E+00
      19-
 mid.  surface     4.0443E-01  4.8044E-01 -8.7822E-01 -6.2173E-02 -8.9118E-02 -9.5434E-02
      20-
 mid.  surface     2.5990E-01  2.0775E-01 -4.7645E-01 -6.3604E-03 -6.5539E-02 -1.2295E-02
      21-
 mid.  surface     4.8675E-01  4.5510E-01 -9.0193E-01 -9.5934E-03  2.6062E-01  5.7468E-02
      22-
 mid.  surface     4.7469E-01  5.3384E-01 -9.1108E-01  5.1147E-02  3.9044E-01  1.1226E-01
      23-
 mid.  surface     2.5166E-01  2.5155E-01 -4.7804E-01  2.1162E-02  6.9727E-02  9.5793E-02
      40-
 mid.  surface     0.0000E+00  0.0000E+00  0.0000E+00  0.0000E+00  0.0000E+00  0.0000E+00
      41-
 mid.  surface     0.0000E+00  0.0000E+00  0.0000E+00  0.0000E+00  0.0000E+00  0.0000E+00
      85-
 mid.  surface     4.8933E-01  4.4057E-01 -9.4774E-01 -4.5993E-02  7.1317E-03  3.1526E-01
      86-
 mid.  surface     4.5978E-01  4.8899E-01 -9.8329E-01 -6.0189E-03  6.5624E-02  3.7985E-01
     100-
 mid.  surface     0.0000E+00  0.0000E+00  0.0000E+00  0.0000E+00  0.0000E+00  0.0000E+00
     110-
 mid.  surface     0.0000E+00  0.0000E+00  0.0000E+00  0.0000E+00  0.0000E+00  0.0000E+00



 n o d a l  s t r e s s  c a l c u l a t i o n s   f o r   t i m e  s t e p      359   ( at time 9.68540E+01 )

 node (global)
          stress       sig-xx      sig-yy      sig-zz      sig-xy      sig-yz      sig-zx       plastic
                                                                                                 strain 
       1-
 mid.  surface    -5.7829E+08 -9.6086E+08 -8.0729E+08 -1.9182E+07  3.2688E+06  1.2149E+08  2.4525E+00
       2-
 mid.  surface     2.7831E+08 -3.0044E+08 -6.8120E+07 -2.9019E+07  4.9450E+06  1.8379E+08  1.4799E+00
       8-
 mid.  surface     0.0000E+00  0.0000E+00  0.0000E+00  0.0000E+00  0.0000E+00  0.0000E+00  0.0000E+00
       9-
 mid.  surface     0.0000E+00  0.0000E+00  0.0000E+00  0.0000E+00  0.0000E+00  0.0000E+00  0.0000E+00
      10-
 mid.  surface     0.0000E+00  0.0000E+00  0.0000E+00  0.0000E+00  0.0000E+00  0.0000E+00  0.0000E+00
      11-
 mid.  surface    -4.3303E+08 -4.3441E+08 -4.5823E+08 -1.3809E+07 -2.9359E+07 -5.2763E+07  8.0721E-01
      12-
 mid.  surface     1.0840E+09  1.0820E+09 -2.2817E+07 -1.1898E+08  1.3930E+07 -9.7008E+07  2.0985E+00
      17-
 mid.  surface    -4.3362E+08 -3.0091E+08  3.3317E+08  7.1449E+07 -3.4113E+07 -2.3288E+07  1.5051E-01
      18-
 mid.  surface     0.0000E+00  0.0000E+00  0.0000E+00  0.0000E+00  0.0000E+00  0.0000E+00  0.0000E+00
      19-
 mid.  surface     3.0496E+08  1.1229E+08  1.6525E+08 -2.3400E+07 -2.7725E+07  7.9835E+06  3.1056E-01
      20-
 mid.  surface    -5.2725E+08 -3.9601E+08  2.3945E+08  7.7037E+07 -1.9224E+07  2.8534E+06 -3.3932E-01
      21-
 mid.  surface     5.8653E+08  7.8637E+08  6.8498E+08  1.9281E+07  2.9355E+07 -1.2361E+07 -3.4703E-01
      22-
 mid.  surface     6.1867E+08  9.6860E+08 -2.7459E+08 -8.0715E+07  6.5108E+07 -1.1525E+08  4.2906E-01
      23-
 mid.  surface     4.4609E+07  3.7249E+07  1.9033E+07  8.8923E+06  3.1125E+07  5.3440E+07  1.9758E-01
      40-
 mid.  surface     0.0000E+00  0.0000E+00  0.0000E+00  0.0000E+00  0.0000E+00  0.0000E+00  0.0000E+00
      41-
 mid.  surface     0.0000E+00  0.0000E+00  0.0000E+00  0.0000E+00  0.0000E+00  0.0000E+00  0.0000E+00
      85-
 mid.  surface    -1.1263E+09 -1.5089E+09 -1.3553E+09 -1.9182E+07  3.2688E+06  1.2149E+08 -1.5566E-02
      86-
 mid.  surface    -2.1686E+09 -1.7542E+09 -1.9206E+09  2.0778E+07 -3.5408E+06 -1.3160E+08  3.0097E-01
     100-
 mid.  surface     0.0000E+00  0.0000E+00  0.0000E+00  0.0000E+00  0.0000E+00  0.0000E+00  0.0000E+00
     110-
 mid.  surface     0.0000E+00  0.0000E+00  0.0000E+00  0.0000E+00  0.0000E+00  0.0000E+00  0.0000E+00



 n o d a l  s t r a i n  c a l c u l a t i o n s   f o r   t i m e  s t e p      359   ( at time 9.68540E+01 )

 node (global)
          strain       eps-xx      eps-yy      eps-zz      eps-xy      eps-yz      eps-zx       
       1-
 mid.  surface     4.3164E-01  5.0027E-01 -1.0431E+00 -5.7013E-02 -9.9083E-02  2.2963E-02
       2-
 mid.  surface     4.6849E-01  4.2196E-01 -9.4045E-01 -1.0995E-01 -1.2050E-01 -4.8981E-02
       8-
 mid.  surface     0.0000E+00  0.0000E+00  0.0000E+00  0.0000E+00  0.0000E+00  0.0000E+00
       9-
 mid.  surface     0.0000E+00  0.0000E+00  0.0000E+00  0.0000E+00  0.0000E+00  0.0000E+00
      10-
 mid.  surface     0.0000E+00  0.0000E+00  0.0000E+00  0.0000E+00  0.0000E+00  0.0000E+00
      11-
 mid.  surface     2.3062E-01  1.9277E-01 -4.1623E-01 -3.3868E-02 -1.0322E-01  1.5359E-04
      12-
 mid.  surface     3.8353E-01  5.7099E-01 -8.6016E-01  7.0962E-03 -1.1451E-01 -1.5350E-01
      17-
 mid.  surface     2.3304E-01  1.6432E-01 -4.7884E-01 -9.5077E-02 -1.6244E-01 -3.5559E-02
      18-
 mid.  surface     0.0000E+00  0.0000E+00  0.0000E+00  0.0000E+00  0.0000E+00  0.0000E+00
      19-
 mid.  surface     3.9417E-01  5.1604E-01 -9.2175E-01 -5.9449E-02 -1.2450E-01 -1.8090E-01
      20-
 mid.  surface     2.7248E-01  2.1222E-01 -5.3969E-01 -2.6693E-02 -6.3546E-02  6.2800E-03
      21-
 mid.  surface     4.8724E-01  4.8439E-01 -9.4054E-01 -2.0795E-02  3.0755E-01  1.4923E-01
      22-
 mid.  surface     4.8575E-01  5.3914E-01 -8.6513E-01  5.9065E-02  4.5898E-01  1.7418E-01
      23-
 mid.  surface     2.5617E-01  2.3881E-01 -4.6268E-01  1.5918E-02  4.5808E-02  1.5933E-01
      40-
 mid.  surface     0.0000E+00  0.0000E+00  0.0000E+00  0.0000E+00  0.0000E+00  0.0000E+00
      41-
 mid.  surface     0.0000E+00  0.0000E+00  0.0000E+00  0.0000E+00  0.0000E+00  0.0000E+00
      85-
 mid.  surface     4.8447E-01  4.3376E-01 -9.3036E-01 -6.2556E-02 -3.2457E-03  3.8143E-01
      86-
 mid.  surface     4.5368E-01  4.9091E-01 -9.8464E-01 -2.2148E-02  8.8817E-02  4.7834E-01
     100-
 mid.  surface     0.0000E+00  0.0000E+00  0.0000E+00  0.0000E+00  0.0000E+00  0.0000E+00
     110-
 mid.  surface     0.0000E+00  0.0000E+00  0.0000E+00  0.0000E+00  0.0000E+00  0.0000E+00



 n o d a l  s t r e s s  c a l c u l a t i o n s   f o r   t i m e  s t e p      580   ( at time 9.83143E+01 )

 node (global)
          stress       sig-xx      sig-yy      sig-zz      sig-xy      sig-yz      sig-zx       plastic
                                                                                                 strain 
       1-
 mid.  surface     6.9137E+07 -1.5232E+08  8.6611E+08 -3.3791E+07 -5.4104E+07 -4.7438E+08  2.4525E+00
       2-
 mid.  surface    -1.8369E+08  1.6700E+08 -6.9957E+08 -2.6994E+08  1.6947E+08  2.1103E+08  1.4799E+00
       8-
 mid.  surface     0.0000E+00  0.0000E+00  0.0000E+00  0.0000E+00  0.0000E+00  0.0000E+00  0.0000E+00
       9-
 mid.  surface     0.0000E+00  0.0000E+00  0.0000E+00  0.0000E+00  0.0000E+00  0.0000E+00  0.0000E+00
      10-
 mid.  surface     0.0000E+00  0.0000E+00  0.0000E+00  0.0000E+00  0.0000E+00  0.0000E+00  0.0000E+00
      11-
 mid.  surface     2.8354E+08  2.1791E+08  7.5363E+07 -1.3319E+07 -4.2663E+07  1.3679E+07  8.0721E-01
      12-
 mid.  surface     7.6565E+08  4.7770E+08  2.9453E+08  5.7703E+07 -1.0721E+08 -6.7047E+07  2.0985E+00
      17-
 mid.  surface    -2.6033E+08 -1.9973E+08 -6.8136E+07  1.2296E+07  3.9386E+07 -1.2628E+07  1.5051E-01
      18-
 mid.  surface     0.0000E+00  0.0000E+00  0.0000E+00  0.0000E+00  0.0000E+00  0.0000E+00  0.0000E+00
      19-
 mid.  surface    -2.9603E+08 -1.7117E+08 -9.4024E+08 -7.0899E+07  5.4244E+07  2.0975E+08  3.1056E-01
      20-
 mid.  surface    -3.5399E+08 -3.3627E+08  2.8171E+07  4.1486E+07  1.3380E+07 -3.4553E+07 -3.3932E-01
      21-
 mid.  surface    -3.1061E+08 -1.2503E+08 -4.5069E+08 -1.9681E+07  8.3189E+07  1.6994E+08 -3.4703E-01
      22-
 mid.  surface     3.8137E+08  1.2835E+08  4.5855E+08  1.2654E+08 -1.3201E+08 -1.0623E+08  4.2906E-01
      23-
 mid.  surface     2.7957E+08  2.2762E+08  6.1090E+08  4.7127E+07 -3.0931E+07 -3.6142E+07  1.9758E-01
      40-
 mid.  surface     0.0000E+00  0.0000E+00  0.0000E+00  0.0000E+00  0.0000E+00  0.0000E+00  0.0000E+00
      41-
 mid.  surface     0.0000E+00  0.0000E+00  0.0000E+00  0.0000E+00  0.0000E+00  0.0000E+00  0.0000E+00
      85-
 mid.  surface    -8.9849E+08 -4.7920E+08 -1.3140E+09 -2.4786E+08  1.1338E+08  2.2686E+08 -1.5566E-02
      86-
 mid.  surface    -5.7176E+08 -7.3171E+08  3.1521E+08 -1.3989E+07 -1.0439E+08 -4.6019E+08  3.0097E-01
     100-
 mid.  surface     0.0000E+00  0.0000E+00  0.0000E+00  0.0000E+00  0.0000E+00  0.0000E+00  0.0000E+00
     110-
 mid.  surface     0.0000E+00  0.0000E+00  0.0000E+00  0.0000E+00  0.0000E+00  0.0000E+00  0.0000E+00



 n o d a l  s t r a i n  c a l c u l a t i o n s   f o r   t i m e  s t e p      580   ( at time 9.83143E+01 )

 node (global)
          strain       eps-xx      eps-yy      eps-zz      eps-xy      eps-yz      eps-zx       
       1-
 mid.  surface     4.3133E-01  4.9672E-01 -1.0226E+00 -5.6636E-02 -9.6730E-02  2.5228E-02
       2-
 mid.  surface     4.6941E-01  4.2456E-01 -9.4473E-01 -1.1022E-01 -1.1391E-01 -5.6778E-02
       8-
 mid.  surface     0.0000E+00  0.0000E+00  0.0000E+00  0.0000E+00  0.0000E+00  0.0000E+00
       9-
 mid.  surface     0.0000E+00  0.0000E+00  0.0000E+00  0.0000E+00  0.0000E+00  0.0000E+00
      10-
 mid.  surface     0.0000E+00  0.0000E+00  0.0000E+00  0.0000E+00  0.0000E+00  0.0000E+00
      11-
 mid.  surface     2.3304E-01  1.9383E-01 -4.0832E-01 -3.3333E-02 -1.1087E-01 -8.8777E-03
      12-
 mid.  surface     3.8362E-01  5.7021E-01 -8.5358E-01  9.6782E-03 -1.1089E-01 -1.5497E-01
      17-
 mid.  surface     2.3247E-01  1.6612E-01 -4.8185E-01 -9.4861E-02 -1.7476E-01 -4.9376E-02
      18-
 mid.  surface     0.0000E+00  0.0000E+00  0.0000E+00  0.0000E+00  0.0000E+00  0.0000E+00
      19-
 mid.  surface     3.9297E-01  5.1866E-01 -9.3309E-01 -5.8533E-02 -1.2410E-01 -1.8849E-01
      20-
 mid.  surface     2.7014E-01  2.1212E-01 -5.4471E-01 -2.7954E-02 -5.7416E-02  1.8019E-03
      21-
 mid.  surface     4.8433E-01  4.8719E-01 -9.5653E-01 -2.1428E-02  3.1030E-01  1.5423E-01
      22-
 mid.  surface     4.8540E-01  5.3672E-01 -8.6226E-01  5.8115E-02  4.6699E-01  1.8950E-01
      23-
 mid.  surface     2.5672E-01  2.3867E-01 -4.5283E-01  1.5882E-02  4.2543E-02  1.6928E-01
      40-
 mid.  surface     0.0000E+00  0.0000E+00  0.0000E+00  0.0000E+00  0.0000E+00  0.0000E+00
      41-
 mid.  surface     0.0000E+00  0.0000E+00  0.0000E+00  0.0000E+00  0.0000E+00  0.0000E+00
      85-
 mid.  surface     4.8367E-01  4.3933E-01 -9.3493E-01 -6.3043E-02  2.7733E-03  3.9711E-01
      86-
 mid.  surface     4.5270E-01  4.9013E-01 -9.7134E-01 -2.1945E-02  8.3084E-02  4.7407E-01
     100-
 mid.  surface     0.0000E+00  0.0000E+00  0.0000E+00  0.0000E+00  0.0000E+00  0.0000E+00
     110-
 mid.  surface     0.0000E+00  0.0000E+00  0.0000E+00  0.0000E+00  0.0000E+00  0.0000E+00



 n o d a l  s t r e s s  c a l c u l a t i o n s   f o r   t i m e  s t e p      584   ( at time 1.00000E+02 )

 node (global)
          stress       sig-xx      sig-yy      sig-zz      sig-xy      sig-yz      sig-zx       plastic
                                                                                                 strain 
       1-
 mid.  surface     2.0836E+09  2.2098E+09  2.1037E+09 -1.7544E+08 -2.6673E+07 -2.2388E+07  2.4525E+00
       2-
 mid.  surface    -9.0445E+08 -1.0209E+09 -9.2301E+08  1.6196E+08  2.4624E+07  2.0668E+07  1.4799E+00
       8-
 mid.  surface     0.0000E+00  0.0000E+00  0.0000E+00  0.0000E+00  0.0000E+00  0.0000E+00  0.0000E+00
       9-
 mid.  surface     0.0000E+00  0.0000E+00  0.0000E+00  0.0000E+00  0.0000E+00  0.0000E+00  0.0000E+00
      10-
 mid.  surface     0.0000E+00  0.0000E+00  0.0000E+00  0.0000E+00  0.0000E+00  0.0000E+00  0.0000E+00
      11-
 mid.  surface     9.7720E+07  1.3881E+08 -1.4315E+08 -5.8639E+07  4.1535E+07 -3.5223E+06  8.0721E-01
      12-
 mid.  surface     9.8387E+08  9.6648E+08  6.0318E+08 -4.4730E+07  3.6884E+07 -1.5052E+07  2.0985E+00
      17-
 mid.  surface    -8.9916E+07 -1.2770E+08  1.3186E+08  5.4064E+07 -3.8160E+07  3.2848E+06  1.5051E-01
      18-
 mid.  surface     0.0000E+00  0.0000E+00  0.0000E+00  0.0000E+00  0.0000E+00  0.0000E+00  0.0000E+00
      19-
 mid.  surface    -5.3210E+08 -6.5826E+08 -4.6996E+08  1.0177E+08 -3.8454E+07 -5.4669E+06  3.1056E-01
      20-
 mid.  surface    -1.3850E+08 -1.7622E+08  1.1911E+08  7.2478E+07 -3.3503E+07  9.2870E+06 -3.3932E-01
      21-
 mid.  surface    -1.0816E+09 -1.1776E+09 -8.6910E+08  1.3505E+08 -2.5848E+07  1.3619E+07 -3.4703E-01
      22-
 mid.  surface     3.1850E+08  4.2268E+08  8.7676E+07 -1.4636E+08  2.8199E+07 -1.4716E+07  4.2906E-01
      23-
 mid.  surface     5.7992E+06  4.7155E+07 -8.9467E+07  1.6169E+07  6.0455E+07  2.0863E+07  1.9758E-01
      40-
 mid.  surface     0.0000E+00  0.0000E+00  0.0000E+00  0.0000E+00  0.0000E+00  0.0000E+00  0.0000E+00
      41-
 mid.  surface     0.0000E+00  0.0000E+00  0.0000E+00  0.0000E+00  0.0000E+00  0.0000E+00  0.0000E+00
      85-
 mid.  surface    -1.4942E+09 -1.3680E+09 -1.4740E+09 -1.7544E+08 -2.6673E+07 -2.2388E+07 -1.5566E-02
      86-
 mid.  surface     8.8017E+08  1.2239E+09  9.3493E+08 -4.7796E+08 -7.2666E+07 -6.0992E+07  3.0097E-01
     100-
 mid.  surface     0.0000E+00  0.0000E+00  0.0000E+00  0.0000E+00  0.0000E+00  0.0000E+00  0.0000E+00
     110-
 mid.  surface     0.0000E+00  0.0000E+00  0.0000E+00  0.0000E+00  0.0000E+00  0.0000E+00  0.0000E+00



 n o d a l  s t r a i n  c a l c u l a t i o n s   f o r   t i m e  s t e p      584   ( at time 1.00000E+02 )

 node (global)
          strain       eps-xx      eps-yy      eps-zz      eps-xy      eps-yz      eps-zx       
       1-
 mid.  surface     4.3292E-01  4.9129E-01 -9.9351E-01 -5.5559E-02 -9.0151E-02  3.2525E-02
       2-
 mid.  surface     4.7590E-01  4.2559E-01 -9.5866E-01 -1.0825E-01 -1.0291E-01 -7.7944E-02
       8-
 mid.  surface     0.0000E+00  0.0000E+00  0.0000E+00  0.0000E+00  0.0000E+00  0.0000E+00
       9-
 mid.  surface     0.0000E+00  0.0000E+00  0.0000E+00  0.0000E+00  0.0000E+00  0.0000E+00
      10-
 mid.  surface     0.0000E+00  0.0000E+00  0.0000E+00  0.0000E+00  0.0000E+00  0.0000E+00
      11-
 mid.  surface     2.3398E-01  1.9359E-01 -4.1274E-01 -3.3384E-02 -1.0971E-01 -1.6561E-02
      12-
 mid.  surface     3.8176E-01  5.6665E-01 -8.4384E-01  9.2348E-03 -1.1150E-01 -1.5373E-01
      17-
 mid.  surface     2.2976E-01  1.6541E-01 -4.8091E-01 -9.7400E-02 -1.7073E-01 -5.2730E-02
      18-
 mid.  surface     0.0000E+00  0.0000E+00  0.0000E+00  0.0000E+00  0.0000E+00  0.0000E+00
      19-
 mid.  surface     3.9017E-01  5.1882E-01 -9.3576E-01 -6.1735E-02 -1.2052E-01 -1.9272E-01
      20-
 mid.  surface     2.7051E-01  2.1474E-01 -5.4799E-01 -2.6656E-02 -5.8242E-02 -1.8839E-03
      21-
 mid.  surface     4.8173E-01  4.9070E-01 -9.6527E-01 -2.2391E-02  3.1279E-01  1.5533E-01
      22-
 mid.  surface     4.8263E-01  5.3792E-01 -8.5807E-01  5.8461E-02  4.5544E-01  1.9961E-01
      23-
 mid.  surface     2.5916E-01  2.3868E-01 -4.5825E-01  1.7994E-02  4.5989E-02  1.7373E-01
      40-
 mid.  surface     0.0000E+00  0.0000E+00  0.0000E+00  0.0000E+00  0.0000E+00  0.0000E+00
      41-
 mid.  surface     0.0000E+00  0.0000E+00  0.0000E+00  0.0000E+00  0.0000E+00  0.0000E+00
      85-
 mid.  surface     4.8192E-01  4.4605E-01 -9.4540E-01 -6.2279E-02  8.3421E-03  4.1614E-01
      86-
 mid.  surface     4.4846E-01  4.8968E-01 -9.4945E-01 -2.3450E-02  8.0194E-02  4.7674E-01
     100-
 mid.  surface     0.0000E+00  0.0000E+00  0.0000E+00  0.0000E+00  0.0000E+00  0.0000E+00
     110-
 mid.  surface     0.0000E+00  0.0000E+00  0.0000E+00  0.0000E+00  0.0000E+00  0.0000E+00
