 LS-DYNA keyword deck by LS-PrePost                                      
                    ls-dyna smp d R14 R14.1.1s_1_ef50e1 date 06/16/2024
 single point constraint forces

 output at time =   0.00000E+00
 node=     1 local x,y,z forces =    0.0000E+00    0.0000E+00    0.0000E+00  setid=       0
 node=     1 local x,y,z moments=    0.0000E+00    0.0000E+00    0.0000E+00  setid=       0
 node=     2 local x,y,z forces =    0.0000E+00    0.0000E+00    0.0000E+00  setid=       0
 node=     2 local x,y,z moments=    0.0000E+00    0.0000E+00    0.0000E+00  setid=       0
 node=     3 local x,y,z forces =    0.0000E+00    0.0000E+00    0.0000E+00  setid=       0
 node=     3 local x,y,z moments=    0.0000E+00    0.0000E+00    0.0000E+00  setid=       0
 node=     4 local x,y,z forces =    0.0000E+00    0.0000E+00    0.0000E+00  setid=       0
 node=     4 local x,y,z moments=    0.0000E+00    0.0000E+00    0.0000E+00  setid=       0
 node=     5 local x,y,z forces =    0.0000E+00    0.0000E+00    0.0000E+00  setid=       0
 node=     5 local x,y,z moments=    0.0000E+00    0.0000E+00    0.0000E+00  setid=       0
 node=     6 local x,y,z forces =    0.0000E+00    0.0000E+00    0.0000E+00  setid=       0
 node=     6 local x,y,z moments=    0.0000E+00    0.0000E+00    0.0000E+00  setid=       0
 node=     7 local x,y,z forces =    0.0000E+00    0.0000E+00    0.0000E+00  setid=       0
 node=     7 local x,y,z moments=    0.0000E+00    0.0000E+00    0.0000E+00  setid=       0
 node=     8 local x,y,z forces =    0.0000E+00    0.0000E+00    0.0000E+00  setid=       0
 node=     8 local x,y,z moments=    0.0000E+00    0.0000E+00    0.0000E+00  setid=       0
 node=     9 local x,y,z forces =    0.0000E+00    0.0000E+00    0.0000E+00  setid=       0
 node=     9 local x,y,z moments=    0.0000E+00    0.0000E+00    0.0000E+00  setid=       0
 node=    10 local x,y,z forces =    0.0000E+00    0.0000E+00    0.0000E+00  setid=       0
 node=    10 local x,y,z moments=    0.0000E+00    0.0000E+00    0.0000E+00  setid=       0
 node=    11 local x,y,z forces =    0.0000E+00    0.0000E+00    0.0000E+00  setid=       0
 node=    11 local x,y,z moments=    0.0000E+00    0.0000E+00    0.0000E+00  setid=       0
 node=    12 local x,y,z forces =    0.0000E+00    0.0000E+00    0.0000E+00  setid=       0
 node=    12 local x,y,z moments=    0.0000E+00    0.0000E+00    0.0000E+00  setid=       0
 node=    13 local x,y,z forces =    0.0000E+00    0.0000E+00    0.0000E+00  setid=       0
 node=    13 local x,y,z moments=    0.0000E+00    0.0000E+00    0.0000E+00  setid=       0
 node=    14 local x,y,z forces =    0.0000E+00    0.0000E+00    0.0000E+00  setid=       0
 node=    14 local x,y,z moments=    0.0000E+00    0.0000E+00    0.0000E+00  setid=       0
 node=    15 local x,y,z forces =    0.0000E+00    0.0000E+00    0.0000E+00  setid=       0
 node=    15 local x,y,z moments=    0.0000E+00    0.0000E+00    0.0000E+00  setid=       0
 node=    16 local x,y,z forces =    0.0000E+00    0.0000E+00    0.0000E+00  setid=       0
 node=    16 local x,y,z moments=    0.0000E+00    0.0000E+00    0.0000E+00  setid=       0
 node=    17 local x,y,z forces =    0.0000E+00    0.0000E+00    0.0000E+00  setid=       0
 node=    17 local x,y,z moments=    0.0000E+00    0.0000E+00    0.0000E+00  setid=       0
 node=    18 local x,y,z forces =    0.0000E+00    0.0000E+00    0.0000E+00  setid=       0
 node=    18 local x,y,z moments=    0.0000E+00    0.0000E+00    0.0000E+00  setid=       0
 node=    19 local x,y,z forces =    0.0000E+00    0.0000E+00    0.0000E+00  setid=       0
 node=    19 local x,y,z moments=    0.0000E+00    0.0000E+00    0.0000E+00  setid=       0
 node=    51 local x,y,z forces =    0.0000E+00    0.0000E+00    0.0000E+00  setid=       0
 node=    51 local x,y,z moments=    0.0000E+00    0.0000E+00    0.0000E+00  setid=       0
 node=    52 local x,y,z forces =    0.0000E+00    0.0000E+00    0.0000E+00  setid=       0
 node=    52 local x,y,z moments=    0.0000E+00    0.0000E+00    0.0000E+00  setid=       0
 node=    53 local x,y,z forces =    0.0000E+00    0.0000E+00    0.0000E+00  setid=       0
 node=    53 local x,y,z moments=    0.0000E+00    0.0000E+00    0.0000E+00  setid=       0
 node=    55 local x,y,z forces =    0.0000E+00    0.0000E+00    0.0000E+00  setid=       0
 node=    55 local x,y,z moments=    0.0000E+00    0.0000E+00    0.0000E+00  setid=       0
 node=    56 local x,y,z forces =    0.0000E+00    0.0000E+00    0.0000E+00  setid=       0
 node=    56 local x,y,z moments=    0.0000E+00    0.0000E+00    0.0000E+00  setid=       0
 node=    57 local x,y,z forces =    0.0000E+00    0.0000E+00    0.0000E+00  setid=       0
 node=    57 local x,y,z moments=    0.0000E+00    0.0000E+00    0.0000E+00  setid=       0
 node=    59 local x,y,z forces =    0.0000E+00    0.0000E+00    0.0000E+00  setid=       0
 node=    59 local x,y,z moments=    0.0000E+00    0.0000E+00    0.0000E+00  setid=       0
 node=    60 local x,y,z forces =    0.0000E+00    0.0000E+00    0.0000E+00  setid=       0
 node=    60 local x,y,z moments=    0.0000E+00    0.0000E+00    0.0000E+00  setid=       0
 node=    61 local x,y,z forces =    0.0000E+00    0.0000E+00    0.0000E+00  setid=       0
 node=    61 local x,y,z moments=    0.0000E+00    0.0000E+00    0.0000E+00  setid=       0
 node=    63 local x,y,z forces =    0.0000E+00    0.0000E+00    0.0000E+00  setid=       0
 node=    63 local x,y,z moments=    0.0000E+00    0.0000E+00    0.0000E+00  setid=       0
 node=    64 local x,y,z forces =    0.0000E+00    0.0000E+00    0.0000E+00  setid=       0
 node=    64 local x,y,z moments=    0.0000E+00    0.0000E+00    0.0000E+00  setid=       0
 node=    65 local x,y,z forces =    0.0000E+00    0.0000E+00    0.0000E+00  setid=       0
 node=    65 local x,y,z moments=    0.0000E+00    0.0000E+00    0.0000E+00  setid=       0
 node=    67 local x,y,z forces =    0.0000E+00    0.0000E+00    0.0000E+00  setid=       0
 node=    67 local x,y,z moments=    0.0000E+00    0.0000E+00    0.0000E+00  setid=       0
 node=    68 local x,y,z forces =    0.0000E+00    0.0000E+00    0.0000E+00  setid=       0
 node=    68 local x,y,z moments=    0.0000E+00    0.0000E+00    0.0000E+00  setid=       0
 node=    69 local x,y,z forces =    0.0000E+00    0.0000E+00    0.0000E+00  setid=       0
 node=    69 local x,y,z moments=    0.0000E+00    0.0000E+00    0.0000E+00  setid=       0
 node=    85 local x,y,z forces =    0.0000E+00    0.0000E+00    0.0000E+00  setid=       0
 node=    85 local x,y,z moments=    0.0000E+00    0.0000E+00    0.0000E+00  setid=       0
 node=    86 local x,y,z forces =    0.0000E+00    0.0000E+00    0.0000E+00  setid=       0
 node=    86 local x,y,z moments=    0.0000E+00    0.0000E+00    0.0000E+00  setid=       0
 node=    87 local x,y,z forces =    0.0000E+00    0.0000E+00    0.0000E+00  setid=       0
 node=    87 local x,y,z moments=    0.0000E+00    0.0000E+00    0.0000E+00  setid=       0
 node=    88 local x,y,z forces =    0.0000E+00    0.0000E+00    0.0000E+00  setid=       0
 node=    88 local x,y,z moments=    0.0000E+00    0.0000E+00    0.0000E+00  setid=       0
 node=    89 local x,y,z forces =    0.0000E+00    0.0000E+00    0.0000E+00  setid=       0
 node=    89 local x,y,z moments=    0.0000E+00    0.0000E+00    0.0000E+00  setid=       0
 node=    90 local x,y,z forces =    0.0000E+00    0.0000E+00    0.0000E+00  setid=       0
 node=    90 local x,y,z moments=    0.0000E+00    0.0000E+00    0.0000E+00  setid=       0
 node=    91 local x,y,z forces =    0.0000E+00    0.0000E+00    0.0000E+00  setid=       0
 node=    91 local x,y,z moments=    0.0000E+00    0.0000E+00    0.0000E+00  setid=       0
 node=    92 local x,y,z forces =    0.0000E+00    0.0000E+00    0.0000E+00  setid=       0
 node=    92 local x,y,z moments=    0.0000E+00    0.0000E+00    0.0000E+00  setid=       0
 node=    93 local x,y,z forces =    0.0000E+00    0.0000E+00    0.0000E+00  setid=       0
 node=    93 local x,y,z moments=    0.0000E+00    0.0000E+00    0.0000E+00  setid=       0
 node=    94 local x,y,z forces =    0.0000E+00    0.0000E+00    0.0000E+00  setid=       0
 node=    94 local x,y,z moments=    0.0000E+00    0.0000E+00    0.0000E+00  setid=       0
 node=    95 local x,y,z forces =    0.0000E+00    0.0000E+00    0.0000E+00  setid=       0
 node=    95 local x,y,z moments=    0.0000E+00    0.0000E+00    0.0000E+00  setid=       0
 node=    96 local x,y,z forces =    0.0000E+00    0.0000E+00    0.0000E+00  setid=       0
 node=    96 local x,y,z moments=    0.0000E+00    0.0000E+00    0.0000E+00  setid=       0
 node=    97 local x,y,z forces =    0.0000E+00    0.0000E+00    0.0000E+00  setid=       0
 node=    97 local x,y,z moments=    0.0000E+00    0.0000E+00    0.0000E+00  setid=       0
 node=    98 local x,y,z forces =    0.0000E+00    0.0000E+00    0.0000E+00  setid=       0
 node=    98 local x,y,z moments=    0.0000E+00    0.0000E+00    0.0000E+00  setid=       0
 node=    99 local x,y,z forces =    0.0000E+00    0.0000E+00    0.0000E+00  setid=       0
 node=    99 local x,y,z moments=    0.0000E+00    0.0000E+00    0.0000E+00  setid=       0
 node=   100 local x,y,z forces =    0.0000E+00    0.0000E+00    0.0000E+00  setid=       0
 node=   100 local x,y,z moments=    0.0000E+00    0.0000E+00    0.0000E+00  setid=       0
 node=   101 local x,y,z forces =    0.0000E+00    0.0000E+00    0.0000E+00  setid=       0
 node=   101 local x,y,z moments=    0.0000E+00    0.0000E+00    0.0000E+00  setid=       0
 node=   102 local x,y,z forces =    0.0000E+00    0.0000E+00    0.0000E+00  setid=       0
 node=   102 local x,y,z moments=    0.0000E+00    0.0000E+00    0.0000E+00  setid=       0
 node=   103 local x,y,z forces =    0.0000E+00    0.0000E+00    0.0000E+00  setid=       0
 node=   103 local x,y,z moments=    0.0000E+00    0.0000E+00    0.0000E+00  setid=       0
 node=   104 local x,y,z forces =    0.0000E+00    0.0000E+00    0.0000E+00  setid=       0
 node=   104 local x,y,z moments=    0.0000E+00    0.0000E+00    0.0000E+00  setid=       0
 node=   105 local x,y,z forces =    0.0000E+00    0.0000E+00    0.0000E+00  setid=       0
 node=   105 local x,y,z moments=    0.0000E+00    0.0000E+00    0.0000E+00  setid=       0
 node=   106 local x,y,z forces =    0.0000E+00    0.0000E+00    0.0000E+00  setid=       0
 node=   106 local x,y,z moments=    0.0000E+00    0.0000E+00    0.0000E+00  setid=       0
 node=   107 local x,y,z forces =    0.0000E+00    0.0000E+00    0.0000E+00  setid=       0
 node=   107 local x,y,z moments=    0.0000E+00    0.0000E+00    0.0000E+00  setid=       0
 node=   108 local x,y,z forces =    0.0000E+00    0.0000E+00    0.0000E+00  setid=       0
 node=   108 local x,y,z moments=    0.0000E+00    0.0000E+00    0.0000E+00  setid=       0
 node=   109 local x,y,z forces =    0.0000E+00    0.0000E+00    0.0000E+00  setid=       0
 node=   109 local x,y,z moments=    0.0000E+00    0.0000E+00    0.0000E+00  setid=       0
 node=   110 local x,y,z forces =    0.0000E+00    0.0000E+00    0.0000E+00  setid=       0
 node=   110 local x,y,z moments=    0.0000E+00    0.0000E+00    0.0000E+00  setid=       0
 node=   111 local x,y,z forces =    0.0000E+00    0.0000E+00    0.0000E+00  setid=       0
 node=   111 local x,y,z moments=    0.0000E+00    0.0000E+00    0.0000E+00  setid=       0
 node=   112 local x,y,z forces =    0.0000E+00    0.0000E+00    0.0000E+00  setid=       0
 node=   112 local x,y,z moments=    0.0000E+00    0.0000E+00    0.0000E+00  setid=       0
 node=   113 local x,y,z forces =    0.0000E+00    0.0000E+00    0.0000E+00  setid=       0
 node=   113 local x,y,z moments=    0.0000E+00    0.0000E+00    0.0000E+00  setid=       0
 node=   114 local x,y,z forces =    0.0000E+00    0.0000E+00    0.0000E+00  setid=       0
 node=   114 local x,y,z moments=    0.0000E+00    0.0000E+00    0.0000E+00  setid=       0
 node=   199 local x,y,z forces =    0.0000E+00    0.0000E+00    0.0000E+00  setid=       0
 node=   199 local x,y,z moments=    0.0000E+00    0.0000E+00    0.0000E+00  setid=       0
 node=   200 local x,y,z forces =    0.0000E+00    0.0000E+00    0.0000E+00  setid=       0
 node=   200 local x,y,z moments=    0.0000E+00    0.0000E+00    0.0000E+00  setid=       0
 node=   201 local x,y,z forces =    0.0000E+00    0.0000E+00    0.0000E+00  setid=       0
 node=   201 local x,y,z moments=    0.0000E+00    0.0000E+00    0.0000E+00  setid=       0
 node=   202 local x,y,z forces =    0.0000E+00    0.0000E+00    0.0000E+00  setid=       0
 node=   202 local x,y,z moments=    0.0000E+00    0.0000E+00    0.0000E+00  setid=       0
 node=   203 local x,y,z forces =    0.0000E+00    0.0000E+00    0.0000E+00  setid=       0
 node=   203 local x,y,z moments=    0.0000E+00    0.0000E+00    0.0000E+00  setid=       0
 node=   204 local x,y,z forces =    0.0000E+00    0.0000E+00    0.0000E+00  setid=       0
 node=   204 local x,y,z moments=    0.0000E+00    0.0000E+00    0.0000E+00  setid=       0
 node=   205 local x,y,z forces =    0.0000E+00    0.0000E+00    0.0000E+00  setid=       0
 node=   205 local x,y,z moments=    0.0000E+00    0.0000E+00    0.0000E+00  setid=       0
 node=   206 local x,y,z forces =    0.0000E+00    0.0000E+00    0.0000E+00  setid=       0
 node=   206 local x,y,z moments=    0.0000E+00    0.0000E+00    0.0000E+00  setid=       0
 node=   207 local x,y,z forces =    0.0000E+00    0.0000E+00    0.0000E+00  setid=       0
 node=   207 local x,y,z moments=    0.0000E+00    0.0000E+00    0.0000E+00  setid=       0
 node=   208 local x,y,z forces =    0.0000E+00    0.0000E+00    0.0000E+00  setid=       0
 node=   208 local x,y,z moments=    0.0000E+00    0.0000E+00    0.0000E+00  setid=       0
 node=   209 local x,y,z forces =    0.0000E+00    0.0000E+00    0.0000E+00  setid=       0
 node=   209 local x,y,z moments=    0.0000E+00    0.0000E+00    0.0000E+00  setid=       0
 node=   210 local x,y,z forces =    0.0000E+00    0.0000E+00    0.0000E+00  setid=       0
 node=   210 local x,y,z moments=    0.0000E+00    0.0000E+00    0.0000E+00  setid=       0
 node=   211 local x,y,z forces =    0.0000E+00    0.0000E+00    0.0000E+00  setid=       0
 node=   211 local x,y,z moments=    0.0000E+00    0.0000E+00    0.0000E+00  setid=       0
 node=   212 local x,y,z forces =    0.0000E+00    0.0000E+00    0.0000E+00  setid=       0
 node=   212 local x,y,z moments=    0.0000E+00    0.0000E+00    0.0000E+00  setid=       0
 node=   213 local x,y,z forces =    0.0000E+00    0.0000E+00    0.0000E+00  setid=       0
 node=   213 local x,y,z moments=    0.0000E+00    0.0000E+00    0.0000E+00  setid=       0
 node=   214 local x,y,z forces =    0.0000E+00    0.0000E+00    0.0000E+00  setid=       0
 node=   214 local x,y,z moments=    0.0000E+00    0.0000E+00    0.0000E+00  setid=       0
 node=   215 local x,y,z forces =    0.0000E+00    0.0000E+00    0.0000E+00  setid=       0
 node=   215 local x,y,z moments=    0.0000E+00    0.0000E+00    0.0000E+00  setid=       0
 node=   216 local x,y,z forces =    0.0000E+00    0.0000E+00    0.0000E+00  setid=       0
 node=   216 local x,y,z moments=    0.0000E+00    0.0000E+00    0.0000E+00  setid=       0
 node=   217 local x,y,z forces =    0.0000E+00    0.0000E+00    0.0000E+00  setid=       0
 node=   217 local x,y,z moments=    0.0000E+00    0.0000E+00    0.0000E+00  setid=       0
 node=   218 local x,y,z forces =    0.0000E+00    0.0000E+00    0.0000E+00  setid=       0
 node=   218 local x,y,z moments=    0.0000E+00    0.0000E+00    0.0000E+00  setid=       0
 node=   219 local x,y,z forces =    0.0000E+00    0.0000E+00    0.0000E+00  setid=       0
 node=   219 local x,y,z moments=    0.0000E+00    0.0000E+00    0.0000E+00  setid=       0
 node=   220 local x,y,z forces =    0.0000E+00    0.0000E+00    0.0000E+00  setid=       0
 node=   220 local x,y,z moments=    0.0000E+00    0.0000E+00    0.0000E+00  setid=       0
 node=   221 local x,y,z forces =    0.0000E+00    0.0000E+00    0.0000E+00  setid=       0
 node=   221 local x,y,z moments=    0.0000E+00    0.0000E+00    0.0000E+00  setid=       0
 node=   222 local x,y,z forces =    0.0000E+00    0.0000E+00    0.0000E+00  setid=       0
 node=   222 local x,y,z moments=    0.0000E+00    0.0000E+00    0.0000E+00  setid=       0
 node=   223 local x,y,z forces =    0.0000E+00    0.0000E+00    0.0000E+00  setid=       0
 node=   223 local x,y,z moments=    0.0000E+00    0.0000E+00    0.0000E+00  setid=       0
 node=   224 local x,y,z forces =    0.0000E+00    0.0000E+00    0.0000E+00  setid=       0
 node=   224 local x,y,z moments=    0.0000E+00    0.0000E+00    0.0000E+00  setid=       0
 node=   227 local x,y,z forces =    0.0000E+00    0.0000E+00    0.0000E+00  setid=       0
 node=   227 local x,y,z moments=    0.0000E+00    0.0000E+00    0.0000E+00  setid=       0
 node=   229 local x,y,z forces =    0.0000E+00    0.0000E+00    0.0000E+00  setid=       0
 node=   229 local x,y,z moments=    0.0000E+00    0.0000E+00    0.0000E+00  setid=       0
 node=   230 local x,y,z forces =    0.0000E+00    0.0000E+00    0.0000E+00  setid=       0
 node=   230 local x,y,z moments=    0.0000E+00    0.0000E+00    0.0000E+00  setid=       0
 node=   231 local x,y,z forces =    0.0000E+00    0.0000E+00    0.0000E+00  setid=       0
 node=   231 local x,y,z moments=    0.0000E+00    0.0000E+00    0.0000E+00  setid=       0
 node=   233 local x,y,z forces =    0.0000E+00    0.0000E+00    0.0000E+00  setid=       0
 node=   233 local x,y,z moments=    0.0000E+00    0.0000E+00    0.0000E+00  setid=       0
 node=   234 local x,y,z forces =    0.0000E+00    0.0000E+00    0.0000E+00  setid=       0
 node=   234 local x,y,z moments=    0.0000E+00    0.0000E+00    0.0000E+00  setid=       0
 node=   235 local x,y,z forces =    0.0000E+00    0.0000E+00    0.0000E+00  setid=       0
 node=   235 local x,y,z moments=    0.0000E+00    0.0000E+00    0.0000E+00  setid=       0
 node=   237 local x,y,z forces =    0.0000E+00    0.0000E+00    0.0000E+00  setid=       0
 node=   237 local x,y,z moments=    0.0000E+00    0.0000E+00    0.0000E+00  setid=       0
 node=   238 local x,y,z forces =    0.0000E+00    0.0000E+00    0.0000E+00  setid=       0
 node=   238 local x,y,z moments=    0.0000E+00    0.0000E+00    0.0000E+00  setid=       0
 node=   239 local x,y,z forces =    0.0000E+00    0.0000E+00    0.0000E+00  setid=       0
 node=   239 local x,y,z moments=    0.0000E+00    0.0000E+00    0.0000E+00  setid=       0
 node=   241 local x,y,z forces =    0.0000E+00    0.0000E+00    0.0000E+00  setid=       0
 node=   241 local x,y,z moments=    0.0000E+00    0.0000E+00    0.0000E+00  setid=       0
 node=   242 local x,y,z forces =    0.0000E+00    0.0000E+00    0.0000E+00  setid=       0
 node=   242 local x,y,z moments=    0.0000E+00    0.0000E+00    0.0000E+00  setid=       0
 node=   243 local x,y,z forces =    0.0000E+00    0.0000E+00    0.0000E+00  setid=       0
 node=   243 local x,y,z moments=    0.0000E+00    0.0000E+00    0.0000E+00  setid=       0
 node=   245 local x,y,z forces =    0.0000E+00    0.0000E+00    0.0000E+00  setid=       0
 node=   245 local x,y,z moments=    0.0000E+00    0.0000E+00    0.0000E+00  setid=       0
 node=   246 local x,y,z forces =    0.0000E+00    0.0000E+00    0.0000E+00  setid=       0
 node=   246 local x,y,z moments=    0.0000E+00    0.0000E+00    0.0000E+00  setid=       0
 node=   247 local x,y,z forces =    0.0000E+00    0.0000E+00    0.0000E+00  setid=       0
 node=   247 local x,y,z moments=    0.0000E+00    0.0000E+00    0.0000E+00  setid=       0
 node=   249 local x,y,z forces =    0.0000E+00    0.0000E+00    0.0000E+00  setid=       0
 node=   249 local x,y,z moments=    0.0000E+00    0.0000E+00    0.0000E+00  setid=       0
 node=   250 local x,y,z forces =    0.0000E+00    0.0000E+00    0.0000E+00  setid=       0
 node=   250 local x,y,z moments=    0.0000E+00    0.0000E+00    0.0000E+00  setid=       0
 node=   251 local x,y,z forces =    0.0000E+00    0.0000E+00    0.0000E+00  setid=       0
 node=   251 local x,y,z moments=    0.0000E+00    0.0000E+00    0.0000E+00  setid=       0
 node=   253 local x,y,z forces =    0.0000E+00    0.0000E+00    0.0000E+00  setid=       0
 node=   253 local x,y,z moments=    0.0000E+00    0.0000E+00    0.0000E+00  setid=       0
 node=   254 local x,y,z forces =    0.0000E+00    0.0000E+00    0.0000E+00  setid=       0
 node=   254 local x,y,z moments=    0.0000E+00    0.0000E+00    0.0000E+00  setid=       0
 node=   255 local x,y,z forces =    0.0000E+00    0.0000E+00    0.0000E+00  setid=       0
 node=   255 local x,y,z moments=    0.0000E+00    0.0000E+00    0.0000E+00  setid=       0
 node=   257 local x,y,z forces =    0.0000E+00    0.0000E+00    0.0000E+00  setid=       0
 node=   257 local x,y,z moments=    0.0000E+00    0.0000E+00    0.0000E+00  setid=       0
 node=   258 local x,y,z forces =    0.0000E+00    0.0000E+00    0.0000E+00  setid=       0
 node=   258 local x,y,z moments=    0.0000E+00    0.0000E+00    0.0000E+00  setid=       0
 node=   259 local x,y,z forces =    0.0000E+00    0.0000E+00    0.0000E+00  setid=       0
 node=   259 local x,y,z moments=    0.0000E+00    0.0000E+00    0.0000E+00  setid=       0
 node=   261 local x,y,z forces =    0.0000E+00    0.0000E+00    0.0000E+00  setid=       0
 node=   261 local x,y,z moments=    0.0000E+00    0.0000E+00    0.0000E+00  setid=       0
 node=   262 local x,y,z forces =    0.0000E+00    0.0000E+00    0.0000E+00  setid=       0
 node=   262 local x,y,z moments=    0.0000E+00    0.0000E+00    0.0000E+00  setid=       0
 node=   263 local x,y,z forces =    0.0000E+00    0.0000E+00    0.0000E+00  setid=       0
 node=   263 local x,y,z moments=    0.0000E+00    0.0000E+00    0.0000E+00  setid=       0
 node=   265 local x,y,z forces =    0.0000E+00    0.0000E+00    0.0000E+00  setid=       0
 node=   265 local x,y,z moments=    0.0000E+00    0.0000E+00    0.0000E+00  setid=       0
 node=   266 local x,y,z forces =    0.0000E+00    0.0000E+00    0.0000E+00  setid=       0
 node=   266 local x,y,z moments=    0.0000E+00    0.0000E+00    0.0000E+00  setid=       0
 node=   267 local x,y,z forces =    0.0000E+00    0.0000E+00    0.0000E+00  setid=       0
 node=   267 local x,y,z moments=    0.0000E+00    0.0000E+00    0.0000E+00  setid=       0
 node=   269 local x,y,z forces =    0.0000E+00    0.0000E+00    0.0000E+00  setid=       0
 node=   269 local x,y,z moments=    0.0000E+00    0.0000E+00    0.0000E+00  setid=       0
 node=   270 local x,y,z forces =    0.0000E+00    0.0000E+00    0.0000E+00  setid=       0
 node=   270 local x,y,z moments=    0.0000E+00    0.0000E+00    0.0000E+00  setid=       0
 node=   271 local x,y,z forces =    0.0000E+00    0.0000E+00    0.0000E+00  setid=       0
 node=   271 local x,y,z moments=    0.0000E+00    0.0000E+00    0.0000E+00  setid=       0
 node=   273 local x,y,z forces =    0.0000E+00    0.0000E+00    0.0000E+00  setid=       0
 node=   273 local x,y,z moments=    0.0000E+00    0.0000E+00    0.0000E+00  setid=       0
 node=   274 local x,y,z forces =    0.0000E+00    0.0000E+00    0.0000E+00  setid=       0
 node=   274 local x,y,z moments=    0.0000E+00    0.0000E+00    0.0000E+00  setid=       0
 node=   275 local x,y,z forces =    0.0000E+00    0.0000E+00    0.0000E+00  setid=       0
 node=   275 local x,y,z moments=    0.0000E+00    0.0000E+00    0.0000E+00  setid=       0
 node=   277 local x,y,z forces =    0.0000E+00    0.0000E+00    0.0000E+00  setid=       0
 node=   277 local x,y,z moments=    0.0000E+00    0.0000E+00    0.0000E+00  setid=       0
 node=   278 local x,y,z forces =    0.0000E+00    0.0000E+00    0.0000E+00  setid=       0
 node=   278 local x,y,z moments=    0.0000E+00    0.0000E+00    0.0000E+00  setid=       0
 node=   283 local x,y,z forces =    0.0000E+00    0.0000E+00    0.0000E+00  setid=       0
 node=   283 local x,y,z moments=    0.0000E+00    0.0000E+00    0.0000E+00  setid=       0
 node=   284 local x,y,z forces =    0.0000E+00    0.0000E+00    0.0000E+00  setid=       0
 node=   284 local x,y,z moments=    0.0000E+00    0.0000E+00    0.0000E+00  setid=       0
 node=   285 local x,y,z forces =    0.0000E+00    0.0000E+00    0.0000E+00  setid=       0
 node=   285 local x,y,z moments=    0.0000E+00    0.0000E+00    0.0000E+00  setid=       0
 node=   286 local x,y,z forces =    0.0000E+00    0.0000E+00    0.0000E+00  setid=       0
 node=   286 local x,y,z moments=    0.0000E+00    0.0000E+00    0.0000E+00  setid=       0
 node=   287 local x,y,z forces =    0.0000E+00    0.0000E+00    0.0000E+00  setid=       0
 node=   287 local x,y,z moments=    0.0000E+00    0.0000E+00    0.0000E+00  setid=       0
 node=   288 local x,y,z forces =    0.0000E+00    0.0000E+00    0.0000E+00  setid=       0
 node=   288 local x,y,z moments=    0.0000E+00    0.0000E+00    0.0000E+00  setid=       0
 node=   289 local x,y,z forces =    0.0000E+00    0.0000E+00    0.0000E+00  setid=       0
 node=   289 local x,y,z moments=    0.0000E+00    0.0000E+00    0.0000E+00  setid=       0
 node=   290 local x,y,z forces =    0.0000E+00    0.0000E+00    0.0000E+00  setid=       0
 node=   290 local x,y,z moments=    0.0000E+00    0.0000E+00    0.0000E+00  setid=       0
 node=   291 local x,y,z forces =    0.0000E+00    0.0000E+00    0.0000E+00  setid=       0
 node=   291 local x,y,z moments=    0.0000E+00    0.0000E+00    0.0000E+00  setid=       0
 node=   292 local x,y,z forces =    0.0000E+00    0.0000E+00    0.0000E+00  setid=       0
 node=   292 local x,y,z moments=    0.0000E+00    0.0000E+00    0.0000E+00  setid=       0
 node=   293 local x,y,z forces =    0.0000E+00    0.0000E+00    0.0000E+00  setid=       0
 node=   293 local x,y,z moments=    0.0000E+00    0.0000E+00    0.0000E+00  setid=       0
 node=   294 local x,y,z forces =    0.0000E+00    0.0000E+00    0.0000E+00  setid=       0
 node=   294 local x,y,z moments=    0.0000E+00    0.0000E+00    0.0000E+00  setid=       0
 node=   295 local x,y,z forces =    0.0000E+00    0.0000E+00    0.0000E+00  setid=       0
 node=   295 local x,y,z moments=    0.0000E+00    0.0000E+00    0.0000E+00  setid=       0
 node=   339 local x,y,z forces =    0.0000E+00    0.0000E+00    0.0000E+00  setid=       0
 node=   339 local x,y,z moments=    0.0000E+00    0.0000E+00    0.0000E+00  setid=       0
 node=   340 local x,y,z forces =    0.0000E+00    0.0000E+00    0.0000E+00  setid=       0
 node=   340 local x,y,z moments=    0.0000E+00    0.0000E+00    0.0000E+00  setid=       0
 node=   341 local x,y,z forces =    0.0000E+00    0.0000E+00    0.0000E+00  setid=       0
 node=   341 local x,y,z moments=    0.0000E+00    0.0000E+00    0.0000E+00  setid=       0
 node=   342 local x,y,z forces =    0.0000E+00    0.0000E+00    0.0000E+00  setid=       0
 node=   342 local x,y,z moments=    0.0000E+00    0.0000E+00    0.0000E+00  setid=       0
 node=   343 local x,y,z forces =    0.0000E+00    0.0000E+00    0.0000E+00  setid=       0
 node=   343 local x,y,z moments=    0.0000E+00    0.0000E+00    0.0000E+00  setid=       0
 node=   344 local x,y,z forces =    0.0000E+00    0.0000E+00    0.0000E+00  setid=       0
 node=   344 local x,y,z moments=    0.0000E+00    0.0000E+00    0.0000E+00  setid=       0
 node=   345 local x,y,z forces =    0.0000E+00    0.0000E+00    0.0000E+00  setid=       0
 node=   345 local x,y,z moments=    0.0000E+00    0.0000E+00    0.0000E+00  setid=       0
 node=   346 local x,y,z forces =    0.0000E+00    0.0000E+00    0.0000E+00  setid=       0
 node=   346 local x,y,z moments=    0.0000E+00    0.0000E+00    0.0000E+00  setid=       0
 node=   347 local x,y,z forces =    0.0000E+00    0.0000E+00    0.0000E+00  setid=       0
 node=   347 local x,y,z moments=    0.0000E+00    0.0000E+00    0.0000E+00  setid=       0
 node=   348 local x,y,z forces =    0.0000E+00    0.0000E+00    0.0000E+00  setid=       0
 node=   348 local x,y,z moments=    0.0000E+00    0.0000E+00    0.0000E+00  setid=       0
 node=   349 local x,y,z forces =    0.0000E+00    0.0000E+00    0.0000E+00  setid=       0
 node=   349 local x,y,z moments=    0.0000E+00    0.0000E+00    0.0000E+00  setid=       0
 node=   350 local x,y,z forces =    0.0000E+00    0.0000E+00    0.0000E+00  setid=       0
 node=   350 local x,y,z moments=    0.0000E+00    0.0000E+00    0.0000E+00  setid=       0
 node=   351 local x,y,z forces =    0.0000E+00    0.0000E+00    0.0000E+00  setid=       0
 node=   351 local x,y,z moments=    0.0000E+00    0.0000E+00    0.0000E+00  setid=       0
 node=   353 local x,y,z forces =    0.0000E+00    0.0000E+00    0.0000E+00  setid=       0
 node=   353 local x,y,z moments=    0.0000E+00    0.0000E+00    0.0000E+00  setid=       0
 node=   354 local x,y,z forces =    0.0000E+00    0.0000E+00    0.0000E+00  setid=       0
 node=   354 local x,y,z moments=    0.0000E+00    0.0000E+00    0.0000E+00  setid=       0
 node=   355 local x,y,z forces =    0.0000E+00    0.0000E+00    0.0000E+00  setid=       0
 node=   355 local x,y,z moments=    0.0000E+00    0.0000E+00    0.0000E+00  setid=       0
 node=   356 local x,y,z forces =    0.0000E+00    0.0000E+00    0.0000E+00  setid=       0
 node=   356 local x,y,z moments=    0.0000E+00    0.0000E+00    0.0000E+00  setid=       0
 node=   357 local x,y,z forces =    0.0000E+00    0.0000E+00    0.0000E+00  setid=       0
 node=   357 local x,y,z moments=    0.0000E+00    0.0000E+00    0.0000E+00  setid=       0
 node=   358 local x,y,z forces =    0.0000E+00    0.0000E+00    0.0000E+00  setid=       0
 node=   358 local x,y,z moments=    0.0000E+00    0.0000E+00    0.0000E+00  setid=       0
 node=   359 local x,y,z forces =    0.0000E+00    0.0000E+00    0.0000E+00  setid=       0
 node=   359 local x,y,z moments=    0.0000E+00    0.0000E+00    0.0000E+00  setid=       0
 node=   360 local x,y,z forces =    0.0000E+00    0.0000E+00    0.0000E+00  setid=       0
 node=   360 local x,y,z moments=    0.0000E+00    0.0000E+00    0.0000E+00  setid=       0
 node=   361 local x,y,z forces =    0.0000E+00    0.0000E+00    0.0000E+00  setid=       0
 node=   361 local x,y,z moments=    0.0000E+00    0.0000E+00    0.0000E+00  setid=       0
 node=   362 local x,y,z forces =    0.0000E+00    0.0000E+00    0.0000E+00  setid=       0
 node=   362 local x,y,z moments=    0.0000E+00    0.0000E+00    0.0000E+00  setid=       0
 node=   363 local x,y,z forces =    0.0000E+00    0.0000E+00    0.0000E+00  setid=       0
 node=   363 local x,y,z moments=    0.0000E+00    0.0000E+00    0.0000E+00  setid=       0
 node=   364 local x,y,z forces =    0.0000E+00    0.0000E+00    0.0000E+00  setid=       0
 node=   364 local x,y,z moments=    0.0000E+00    0.0000E+00    0.0000E+00  setid=       0
 node=   365 local x,y,z forces =    0.0000E+00    0.0000E+00    0.0000E+00  setid=       0
 node=   365 local x,y,z moments=    0.0000E+00    0.0000E+00    0.0000E+00  setid=       0
 node=   367 local x,y,z forces =    0.0000E+00    0.0000E+00    0.0000E+00  setid=       0
 node=   367 local x,y,z moments=    0.0000E+00    0.0000E+00    0.0000E+00  setid=       0
 node=   368 local x,y,z forces =    0.0000E+00    0.0000E+00    0.0000E+00  setid=       0
 node=   368 local x,y,z moments=    0.0000E+00    0.0000E+00    0.0000E+00  setid=       0
 node=   369 local x,y,z forces =    0.0000E+00    0.0000E+00    0.0000E+00  setid=       0
 node=   369 local x,y,z moments=    0.0000E+00    0.0000E+00    0.0000E+00  setid=       0
 node=   370 local x,y,z forces =    0.0000E+00    0.0000E+00    0.0000E+00  setid=       0
 node=   370 local x,y,z moments=    0.0000E+00    0.0000E+00    0.0000E+00  setid=       0
 node=   371 local x,y,z forces =    0.0000E+00    0.0000E+00    0.0000E+00  setid=       0
 node=   371 local x,y,z moments=    0.0000E+00    0.0000E+00    0.0000E+00  setid=       0
 node=   372 local x,y,z forces =    0.0000E+00    0.0000E+00    0.0000E+00  setid=       0
 node=   372 local x,y,z moments=    0.0000E+00    0.0000E+00    0.0000E+00  setid=       0
 node=   373 local x,y,z forces =    0.0000E+00    0.0000E+00    0.0000E+00  setid=       0
 node=   373 local x,y,z moments=    0.0000E+00    0.0000E+00    0.0000E+00  setid=       0
 node=   374 local x,y,z forces =    0.0000E+00    0.0000E+00    0.0000E+00  setid=       0
 node=   374 local x,y,z moments=    0.0000E+00    0.0000E+00    0.0000E+00  setid=       0
 node=   375 local x,y,z forces =    0.0000E+00    0.0000E+00    0.0000E+00  setid=       0
 node=   375 local x,y,z moments=    0.0000E+00    0.0000E+00    0.0000E+00  setid=       0
 node=   376 local x,y,z forces =    0.0000E+00    0.0000E+00    0.0000E+00  setid=       0
 node=   376 local x,y,z moments=    0.0000E+00    0.0000E+00    0.0000E+00  setid=       0
 node=   377 local x,y,z forces =    0.0000E+00    0.0000E+00    0.0000E+00  setid=       0
 node=   377 local x,y,z moments=    0.0000E+00    0.0000E+00    0.0000E+00  setid=       0
 node=   378 local x,y,z forces =    0.0000E+00    0.0000E+00    0.0000E+00  setid=       0
 node=   378 local x,y,z moments=    0.0000E+00    0.0000E+00    0.0000E+00  setid=       0
 node=   379 local x,y,z forces =    0.0000E+00    0.0000E+00    0.0000E+00  setid=       0
 node=   379 local x,y,z moments=    0.0000E+00    0.0000E+00    0.0000E+00  setid=       0
 node=   591 local x,y,z forces =    0.0000E+00    0.0000E+00    0.0000E+00  setid=       0
 node=   591 local x,y,z moments=    0.0000E+00    0.0000E+00    0.0000E+00  setid=       0
 node=   592 local x,y,z forces =    0.0000E+00    0.0000E+00    0.0000E+00  setid=       0
 node=   592 local x,y,z moments=    0.0000E+00    0.0000E+00    0.0000E+00  setid=       0
 node=   593 local x,y,z forces =    0.0000E+00    0.0000E+00    0.0000E+00  setid=       0
 node=   593 local x,y,z moments=    0.0000E+00    0.0000E+00    0.0000E+00  setid=       0
 node=   594 local x,y,z forces =    0.0000E+00    0.0000E+00    0.0000E+00  setid=       0
 node=   594 local x,y,z moments=    0.0000E+00    0.0000E+00    0.0000E+00  setid=       0
 node=   595 local x,y,z forces =    0.0000E+00    0.0000E+00    0.0000E+00  setid=       0
 node=   595 local x,y,z moments=    0.0000E+00    0.0000E+00    0.0000E+00  setid=       0
 node=   596 local x,y,z forces =    0.0000E+00    0.0000E+00    0.0000E+00  setid=       0
 node=   596 local x,y,z moments=    0.0000E+00    0.0000E+00    0.0000E+00  setid=       0
 node=   597 local x,y,z forces =    0.0000E+00    0.0000E+00    0.0000E+00  setid=       0
 node=   597 local x,y,z moments=    0.0000E+00    0.0000E+00    0.0000E+00  setid=       0
 node=   598 local x,y,z forces =    0.0000E+00    0.0000E+00    0.0000E+00  setid=       0
 node=   598 local x,y,z moments=    0.0000E+00    0.0000E+00    0.0000E+00  setid=       0
 node=   599 local x,y,z forces =    0.0000E+00    0.0000E+00    0.0000E+00  setid=       0
 node=   599 local x,y,z moments=    0.0000E+00    0.0000E+00    0.0000E+00  setid=       0
 node=   600 local x,y,z forces =    0.0000E+00    0.0000E+00    0.0000E+00  setid=       0
 node=   600 local x,y,z moments=    0.0000E+00    0.0000E+00    0.0000E+00  setid=       0
 node=   601 local x,y,z forces =    0.0000E+00    0.0000E+00    0.0000E+00  setid=       0
 node=   601 local x,y,z moments=    0.0000E+00    0.0000E+00    0.0000E+00  setid=       0
 node=   602 local x,y,z forces =    0.0000E+00    0.0000E+00    0.0000E+00  setid=       0
 node=   602 local x,y,z moments=    0.0000E+00    0.0000E+00    0.0000E+00  setid=       0
 node=   603 local x,y,z forces =    0.0000E+00    0.0000E+00    0.0000E+00  setid=       0
 node=   603 local x,y,z moments=    0.0000E+00    0.0000E+00    0.0000E+00  setid=       0
 node=   604 local x,y,z forces =    0.0000E+00    0.0000E+00    0.0000E+00  setid=       0
 node=   604 local x,y,z moments=    0.0000E+00    0.0000E+00    0.0000E+00  setid=       0
 node=   605 local x,y,z forces =    0.0000E+00    0.0000E+00    0.0000E+00  setid=       0
 node=   605 local x,y,z moments=    0.0000E+00    0.0000E+00    0.0000E+00  setid=       0
 node=   606 local x,y,z forces =    0.0000E+00    0.0000E+00    0.0000E+00  setid=       0
 node=   606 local x,y,z moments=    0.0000E+00    0.0000E+00    0.0000E+00  setid=       0
 node=   607 local x,y,z forces =    0.0000E+00    0.0000E+00    0.0000E+00  setid=       0
 node=   607 local x,y,z moments=    0.0000E+00    0.0000E+00    0.0000E+00  setid=       0
 node=   612 local x,y,z forces =    0.0000E+00    0.0000E+00    0.0000E+00  setid=       0
 node=   612 local x,y,z moments=    0.0000E+00    0.0000E+00    0.0000E+00  setid=       0
 node=   613 local x,y,z forces =    0.0000E+00    0.0000E+00    0.0000E+00  setid=       0
 node=   613 local x,y,z moments=    0.0000E+00    0.0000E+00    0.0000E+00  setid=       0
 node=   614 local x,y,z forces =    0.0000E+00    0.0000E+00    0.0000E+00  setid=       0
 node=   614 local x,y,z moments=    0.0000E+00    0.0000E+00    0.0000E+00  setid=       0
 node=   615 local x,y,z forces =    0.0000E+00    0.0000E+00    0.0000E+00  setid=       0
 node=   615 local x,y,z moments=    0.0000E+00    0.0000E+00    0.0000E+00  setid=       0
 node=   616 local x,y,z forces =    0.0000E+00    0.0000E+00    0.0000E+00  setid=       0
 node=   616 local x,y,z moments=    0.0000E+00    0.0000E+00    0.0000E+00  setid=       0
 node=   617 local x,y,z forces =    0.0000E+00    0.0000E+00    0.0000E+00  setid=       0
 node=   617 local x,y,z moments=    0.0000E+00    0.0000E+00    0.0000E+00  setid=       0
 node=   618 local x,y,z forces =    0.0000E+00    0.0000E+00    0.0000E+00  setid=       0
 node=   618 local x,y,z moments=    0.0000E+00    0.0000E+00    0.0000E+00  setid=       0
 node=   619 local x,y,z forces =    0.0000E+00    0.0000E+00    0.0000E+00  setid=       0
 node=   619 local x,y,z moments=    0.0000E+00    0.0000E+00    0.0000E+00  setid=       0
 node=   620 local x,y,z forces =    0.0000E+00    0.0000E+00    0.0000E+00  setid=       0
 node=   620 local x,y,z moments=    0.0000E+00    0.0000E+00    0.0000E+00  setid=       0
 node=   621 local x,y,z forces =    0.0000E+00    0.0000E+00    0.0000E+00  setid=       0
 node=   621 local x,y,z moments=    0.0000E+00    0.0000E+00    0.0000E+00  setid=       0
 node=   622 local x,y,z forces =    0.0000E+00    0.0000E+00    0.0000E+00  setid=       0
 node=   622 local x,y,z moments=    0.0000E+00    0.0000E+00    0.0000E+00  setid=       0
 node=   623 local x,y,z forces =    0.0000E+00    0.0000E+00    0.0000E+00  setid=       0
 node=   623 local x,y,z moments=    0.0000E+00    0.0000E+00    0.0000E+00  setid=       0
 node=   624 local x,y,z forces =    0.0000E+00    0.0000E+00    0.0000E+00  setid=       0
 node=   624 local x,y,z moments=    0.0000E+00    0.0000E+00    0.0000E+00  setid=       0
 node=   625 local x,y,z forces =    0.0000E+00    0.0000E+00    0.0000E+00  setid=       0
 node=   625 local x,y,z moments=    0.0000E+00    0.0000E+00    0.0000E+00  setid=       0
 node=   626 local x,y,z forces =    0.0000E+00    0.0000E+00    0.0000E+00  setid=       0
 node=   626 local x,y,z moments=    0.0000E+00    0.0000E+00    0.0000E+00  setid=       0
 node=   627 local x,y,z forces =    0.0000E+00    0.0000E+00    0.0000E+00  setid=       0
 node=   627 local x,y,z moments=    0.0000E+00    0.0000E+00    0.0000E+00  setid=       0
 node=   628 local x,y,z forces =    0.0000E+00    0.0000E+00    0.0000E+00  setid=       0
 node=   628 local x,y,z moments=    0.0000E+00    0.0000E+00    0.0000E+00  setid=       0
 node=   629 local x,y,z forces =    0.0000E+00    0.0000E+00    0.0000E+00  setid=       0
 node=   629 local x,y,z moments=    0.0000E+00    0.0000E+00    0.0000E+00  setid=       0
 node=   630 local x,y,z forces =    0.0000E+00    0.0000E+00    0.0000E+00  setid=       0
 node=   630 local x,y,z moments=    0.0000E+00    0.0000E+00    0.0000E+00  setid=       0
 node=   631 local x,y,z forces =    0.0000E+00    0.0000E+00    0.0000E+00  setid=       0
 node=   631 local x,y,z moments=    0.0000E+00    0.0000E+00    0.0000E+00  setid=       0
 node=   632 local x,y,z forces =    0.0000E+00    0.0000E+00    0.0000E+00  setid=       0
 node=   632 local x,y,z moments=    0.0000E+00    0.0000E+00    0.0000E+00  setid=       0
 node=   633 local x,y,z forces =    0.0000E+00    0.0000E+00    0.0000E+00  setid=       0
 node=   633 local x,y,z moments=    0.0000E+00    0.0000E+00    0.0000E+00  setid=       0
 node=   634 local x,y,z forces =    0.0000E+00    0.0000E+00    0.0000E+00  setid=       0
 node=   634 local x,y,z moments=    0.0000E+00    0.0000E+00    0.0000E+00  setid=       0
 node=   635 local x,y,z forces =    0.0000E+00    0.0000E+00    0.0000E+00  setid=       0
 node=   635 local x,y,z moments=    0.0000E+00    0.0000E+00    0.0000E+00  setid=       0
 node=   636 local x,y,z forces =    0.0000E+00    0.0000E+00    0.0000E+00  setid=       0
 node=   636 local x,y,z moments=    0.0000E+00    0.0000E+00    0.0000E+00  setid=       0
 node=   637 local x,y,z forces =    0.0000E+00    0.0000E+00    0.0000E+00  setid=       0
 node=   637 local x,y,z moments=    0.0000E+00    0.0000E+00    0.0000E+00  setid=       0
 node=   638 local x,y,z forces =    0.0000E+00    0.0000E+00    0.0000E+00  setid=       0
 node=   638 local x,y,z moments=    0.0000E+00    0.0000E+00    0.0000E+00  setid=       0
 node=   639 local x,y,z forces =    0.0000E+00    0.0000E+00    0.0000E+00  setid=       0
 node=   639 local x,y,z moments=    0.0000E+00    0.0000E+00    0.0000E+00  setid=       0
 node=   640 local x,y,z forces =    0.0000E+00    0.0000E+00    0.0000E+00  setid=       0
 node=   640 local x,y,z moments=    0.0000E+00    0.0000E+00    0.0000E+00  setid=       0
 node=   641 local x,y,z forces =    0.0000E+00    0.0000E+00    0.0000E+00  setid=       0
 node=   641 local x,y,z moments=    0.0000E+00    0.0000E+00    0.0000E+00  setid=       0
 node=   642 local x,y,z forces =    0.0000E+00    0.0000E+00    0.0000E+00  setid=       0
 node=   642 local x,y,z moments=    0.0000E+00    0.0000E+00    0.0000E+00  setid=       0
 node=   643 local x,y,z forces =    0.0000E+00    0.0000E+00    0.0000E+00  setid=       0
 node=   643 local x,y,z moments=    0.0000E+00    0.0000E+00    0.0000E+00  setid=       0
 node=   644 local x,y,z forces =    0.0000E+00    0.0000E+00    0.0000E+00  setid=       0
 node=   644 local x,y,z moments=    0.0000E+00    0.0000E+00    0.0000E+00  setid=       0
 node=   645 local x,y,z forces =    0.0000E+00    0.0000E+00    0.0000E+00  setid=       0
 node=   645 local x,y,z moments=    0.0000E+00    0.0000E+00    0.0000E+00  setid=       0
 node=   646 local x,y,z forces =    0.0000E+00    0.0000E+00    0.0000E+00  setid=       0
 node=   646 local x,y,z moments=    0.0000E+00    0.0000E+00    0.0000E+00  setid=       0
 node=   647 local x,y,z forces =    0.0000E+00    0.0000E+00    0.0000E+00  setid=       0
 node=   647 local x,y,z moments=    0.0000E+00    0.0000E+00    0.0000E+00  setid=       0
 node=   648 local x,y,z forces =    0.0000E+00    0.0000E+00    0.0000E+00  setid=       0
 node=   648 local x,y,z moments=    0.0000E+00    0.0000E+00    0.0000E+00  setid=       0
 node=   649 local x,y,z forces =    0.0000E+00    0.0000E+00    0.0000E+00  setid=       0
 node=   649 local x,y,z moments=    0.0000E+00    0.0000E+00    0.0000E+00  setid=       0
 node=   650 local x,y,z forces =    0.0000E+00    0.0000E+00    0.0000E+00  setid=       0
 node=   650 local x,y,z moments=    0.0000E+00    0.0000E+00    0.0000E+00  setid=       0
 node=   657 local x,y,z forces =    0.0000E+00    0.0000E+00    0.0000E+00  setid=       0
 node=   657 local x,y,z moments=    0.0000E+00    0.0000E+00    0.0000E+00  setid=       0
 node=   658 local x,y,z forces =    0.0000E+00    0.0000E+00    0.0000E+00  setid=       0
 node=   658 local x,y,z moments=    0.0000E+00    0.0000E+00    0.0000E+00  setid=       0
 node=   671 local x,y,z forces =    0.0000E+00    0.0000E+00    0.0000E+00  setid=       0
 node=   671 local x,y,z moments=    0.0000E+00    0.0000E+00    0.0000E+00  setid=       0
 node=   672 local x,y,z forces =    0.0000E+00    0.0000E+00    0.0000E+00  setid=       0
 node=   672 local x,y,z moments=    0.0000E+00    0.0000E+00    0.0000E+00  setid=       0
 node=   673 local x,y,z forces =    0.0000E+00    0.0000E+00    0.0000E+00  setid=       0
 node=   673 local x,y,z moments=    0.0000E+00    0.0000E+00    0.0000E+00  setid=       0
 node=   674 local x,y,z forces =    0.0000E+00    0.0000E+00    0.0000E+00  setid=       0
 node=   674 local x,y,z moments=    0.0000E+00    0.0000E+00    0.0000E+00  setid=       0
 node=   681 local x,y,z forces =    0.0000E+00    0.0000E+00    0.0000E+00  setid=       0
 node=   681 local x,y,z moments=    0.0000E+00    0.0000E+00    0.0000E+00  setid=       0
 node=   682 local x,y,z forces =    0.0000E+00    0.0000E+00    0.0000E+00  setid=       0
 node=   682 local x,y,z moments=    0.0000E+00    0.0000E+00    0.0000E+00  setid=       0
 node=   695 local x,y,z forces =    0.0000E+00    0.0000E+00    0.0000E+00  setid=       0
 node=   695 local x,y,z moments=    0.0000E+00    0.0000E+00    0.0000E+00  setid=       0
 node=   696 local x,y,z forces =    0.0000E+00    0.0000E+00    0.0000E+00  setid=       0
 node=   696 local x,y,z moments=    0.0000E+00    0.0000E+00    0.0000E+00  setid=       0
 node=   697 local x,y,z forces =    0.0000E+00    0.0000E+00    0.0000E+00  setid=       0
 node=   697 local x,y,z moments=    0.0000E+00    0.0000E+00    0.0000E+00  setid=       0
 node=   698 local x,y,z forces =    0.0000E+00    0.0000E+00    0.0000E+00  setid=       0
 node=   698 local x,y,z moments=    0.0000E+00    0.0000E+00    0.0000E+00  setid=       0
 node=   711 local x,y,z forces =    0.0000E+00    0.0000E+00    0.0000E+00  setid=       0
 node=   711 local x,y,z moments=    0.0000E+00    0.0000E+00    0.0000E+00  setid=       0
 node=   712 local x,y,z forces =    0.0000E+00    0.0000E+00    0.0000E+00  setid=       0
 node=   712 local x,y,z moments=    0.0000E+00    0.0000E+00    0.0000E+00  setid=       0
 node=   713 local x,y,z forces =    0.0000E+00    0.0000E+00    0.0000E+00  setid=       0
 node=   713 local x,y,z moments=    0.0000E+00    0.0000E+00    0.0000E+00  setid=       0
 node=   714 local x,y,z forces =    0.0000E+00    0.0000E+00    0.0000E+00  setid=       0
 node=   714 local x,y,z moments=    0.0000E+00    0.0000E+00    0.0000E+00  setid=       0
 node=   721 local x,y,z forces =    0.0000E+00    0.0000E+00    0.0000E+00  setid=       0
 node=   721 local x,y,z moments=    0.0000E+00    0.0000E+00    0.0000E+00  setid=       0
 node=   722 local x,y,z forces =    0.0000E+00    0.0000E+00    0.0000E+00  setid=       0
 node=   722 local x,y,z moments=    0.0000E+00    0.0000E+00    0.0000E+00  setid=       0
 node=   735 local x,y,z forces =    0.0000E+00    0.0000E+00    0.0000E+00  setid=       0
 node=   735 local x,y,z moments=    0.0000E+00    0.0000E+00    0.0000E+00  setid=       0
 node=   736 local x,y,z forces =    0.0000E+00    0.0000E+00    0.0000E+00  setid=       0
 node=   736 local x,y,z moments=    0.0000E+00    0.0000E+00    0.0000E+00  setid=       0
 node=   737 local x,y,z forces =    0.0000E+00    0.0000E+00    0.0000E+00  setid=       0
 node=   737 local x,y,z moments=    0.0000E+00    0.0000E+00    0.0000E+00  setid=       0
 node=   738 local x,y,z forces =    0.0000E+00    0.0000E+00    0.0000E+00  setid=       0
 node=   738 local x,y,z moments=    0.0000E+00    0.0000E+00    0.0000E+00  setid=       0
 node=   745 local x,y,z forces =    0.0000E+00    0.0000E+00    0.0000E+00  setid=       0
 node=   745 local x,y,z moments=    0.0000E+00    0.0000E+00    0.0000E+00  setid=       0
 node=   746 local x,y,z forces =    0.0000E+00    0.0000E+00    0.0000E+00  setid=       0
 node=   746 local x,y,z moments=    0.0000E+00    0.0000E+00    0.0000E+00  setid=       0
 node=   753 local x,y,z forces =    0.0000E+00    0.0000E+00    0.0000E+00  setid=       0
 node=   753 local x,y,z moments=    0.0000E+00    0.0000E+00    0.0000E+00  setid=       0
 node=   754 local x,y,z forces =    0.0000E+00    0.0000E+00    0.0000E+00  setid=       0
 node=   754 local x,y,z moments=    0.0000E+00    0.0000E+00    0.0000E+00  setid=       0
 node=   761 local x,y,z forces =    0.0000E+00    0.0000E+00    0.0000E+00  setid=       0
 node=   761 local x,y,z moments=    0.0000E+00    0.0000E+00    0.0000E+00  setid=       0
 node=   762 local x,y,z forces =    0.0000E+00    0.0000E+00    0.0000E+00  setid=       0
 node=   762 local x,y,z moments=    0.0000E+00    0.0000E+00    0.0000E+00  setid=       0
 node=   769 local x,y,z forces =    0.0000E+00    0.0000E+00    0.0000E+00  setid=       0
 node=   769 local x,y,z moments=    0.0000E+00    0.0000E+00    0.0000E+00  setid=       0
 node=   770 local x,y,z forces =    0.0000E+00    0.0000E+00    0.0000E+00  setid=       0
 node=   770 local x,y,z moments=    0.0000E+00    0.0000E+00    0.0000E+00  setid=       0
 node=   780 local x,y,z forces =    0.0000E+00    0.0000E+00    0.0000E+00  setid=       0
 node=   780 local x,y,z moments=    0.0000E+00    0.0000E+00    0.0000E+00  setid=       0
 node=   781 local x,y,z forces =    0.0000E+00    0.0000E+00    0.0000E+00  setid=       0
 node=   781 local x,y,z moments=    0.0000E+00    0.0000E+00    0.0000E+00  setid=       0
 node=   782 local x,y,z forces =    0.0000E+00    0.0000E+00    0.0000E+00  setid=       0
 node=   782 local x,y,z moments=    0.0000E+00    0.0000E+00    0.0000E+00  setid=       0
 node=   795 local x,y,z forces =    0.0000E+00    0.0000E+00    0.0000E+00  setid=       0
 node=   795 local x,y,z moments=    0.0000E+00    0.0000E+00    0.0000E+00  setid=       0
 node=   796 local x,y,z forces =    0.0000E+00    0.0000E+00    0.0000E+00  setid=       0
 node=   796 local x,y,z moments=    0.0000E+00    0.0000E+00    0.0000E+00  setid=       0
 node=   797 local x,y,z forces =    0.0000E+00    0.0000E+00    0.0000E+00  setid=       0
 node=   797 local x,y,z moments=    0.0000E+00    0.0000E+00    0.0000E+00  setid=       0
 node=   798 local x,y,z forces =    0.0000E+00    0.0000E+00    0.0000E+00  setid=       0
 node=   798 local x,y,z moments=    0.0000E+00    0.0000E+00    0.0000E+00  setid=       0
 node=   802 local x,y,z forces =    0.0000E+00    0.0000E+00    0.0000E+00  setid=       0
 node=   802 local x,y,z moments=    0.0000E+00    0.0000E+00    0.0000E+00  setid=       0
 node=   809 local x,y,z forces =    0.0000E+00    0.0000E+00    0.0000E+00  setid=       0
 node=   809 local x,y,z moments=    0.0000E+00    0.0000E+00    0.0000E+00  setid=       0
 node=   814 local x,y,z forces =    0.0000E+00    0.0000E+00    0.0000E+00  setid=       0
 node=   814 local x,y,z moments=    0.0000E+00    0.0000E+00    0.0000E+00  setid=       0
 node=   824 local x,y,z forces =    0.0000E+00    0.0000E+00    0.0000E+00  setid=       0
 node=   824 local x,y,z moments=    0.0000E+00    0.0000E+00    0.0000E+00  setid=       0
 node=   825 local x,y,z forces =    0.0000E+00    0.0000E+00    0.0000E+00  setid=       0
 node=   825 local x,y,z moments=    0.0000E+00    0.0000E+00    0.0000E+00  setid=       0
 node=   826 local x,y,z forces =    0.0000E+00    0.0000E+00    0.0000E+00  setid=       0
 node=   826 local x,y,z moments=    0.0000E+00    0.0000E+00    0.0000E+00  setid=       0
 node=   833 local x,y,z forces =    0.0000E+00    0.0000E+00    0.0000E+00  setid=       0
 node=   833 local x,y,z moments=    0.0000E+00    0.0000E+00    0.0000E+00  setid=       0
 node=   834 local x,y,z forces =    0.0000E+00    0.0000E+00    0.0000E+00  setid=       0
 node=   834 local x,y,z moments=    0.0000E+00    0.0000E+00    0.0000E+00  setid=       0
 node=   838 local x,y,z forces =    0.0000E+00    0.0000E+00    0.0000E+00  setid=       0
 node=   838 local x,y,z moments=    0.0000E+00    0.0000E+00    0.0000E+00  setid=       0
 node=   842 local x,y,z forces =    0.0000E+00    0.0000E+00    0.0000E+00  setid=       0
 node=   842 local x,y,z moments=    0.0000E+00    0.0000E+00    0.0000E+00  setid=       0
 node=   849 local x,y,z forces =    0.0000E+00    0.0000E+00    0.0000E+00  setid=       0
 node=   849 local x,y,z moments=    0.0000E+00    0.0000E+00    0.0000E+00  setid=       0
 node=   850 local x,y,z forces =    0.0000E+00    0.0000E+00    0.0000E+00  setid=       0
 node=   850 local x,y,z moments=    0.0000E+00    0.0000E+00    0.0000E+00  setid=       0
 node=   857 local x,y,z forces =    0.0000E+00    0.0000E+00    0.0000E+00  setid=       0
 node=   857 local x,y,z moments=    0.0000E+00    0.0000E+00    0.0000E+00  setid=       0
 node=   862 local x,y,z forces =    0.0000E+00    0.0000E+00    0.0000E+00  setid=       0
 node=   862 local x,y,z moments=    0.0000E+00    0.0000E+00    0.0000E+00  setid=       0
 node=   869 local x,y,z forces =    0.0000E+00    0.0000E+00    0.0000E+00  setid=       0
 node=   869 local x,y,z moments=    0.0000E+00    0.0000E+00    0.0000E+00  setid=       0
 node=   874 local x,y,z forces =    0.0000E+00    0.0000E+00    0.0000E+00  setid=       0
 node=   874 local x,y,z moments=    0.0000E+00    0.0000E+00    0.0000E+00  setid=       0
 node=   878 local x,y,z forces =    0.0000E+00    0.0000E+00    0.0000E+00  setid=       0
 node=   878 local x,y,z moments=    0.0000E+00    0.0000E+00    0.0000E+00  setid=       0
 node=   885 local x,y,z forces =    0.0000E+00    0.0000E+00    0.0000E+00  setid=       0
 node=   885 local x,y,z moments=    0.0000E+00    0.0000E+00    0.0000E+00  setid=       0
 node=   890 local x,y,z forces =    0.0000E+00    0.0000E+00    0.0000E+00  setid=       0
 node=   890 local x,y,z moments=    0.0000E+00    0.0000E+00    0.0000E+00  setid=       0
             force resultants   =    0.0000E+00    0.0000E+00    0.0000E+00
 output at time =   5.00000E-01
 node=     1 local x,y,z forces =    0.0000E+00    3.5273E+00    3.0660E+01  setid=       0
 node=     1 local x,y,z moments=    5.3996E-03    4.4981E-03   -5.7751E-04  setid=       0
 node=     2 local x,y,z forces =    0.0000E+00    7.1836E+00    4.2914E+01  setid=       0
 node=     2 local x,y,z moments=    5.2787E-03    9.0447E-05    1.8491E-05  setid=       0
 node=     3 local x,y,z forces =    0.0000E+00    7.9428E+00    2.9248E+01  setid=       0
 node=     3 local x,y,z moments=    1.9856E-03    6.1340E-05    2.0001E-05  setid=       0
 node=     4 local x,y,z forces =    0.0000E+00    8.2515E+00    2.7810E+01  setid=       0
 node=     4 local x,y,z moments=    2.1254E-03    2.3226E-04    7.7342E-06  setid=       0
 node=     5 local x,y,z forces =    4.0857E+00    4.2039E+00    1.3959E+01  setid=       0
 node=     5 local x,y,z moments=    1.0924E-03   -1.1074E-03    1.4271E-05  setid=       0
 node=     6 local x,y,z forces =    8.0473E+00    0.0000E+00    2.7078E+01  setid=       0
 node=     6 local x,y,z moments=   -1.1843E-04   -1.9698E-03   -1.9135E-05  setid=       0
 node=     7 local x,y,z forces =    7.6621E+00    0.0000E+00    2.8240E+01  setid=       0
 node=     7 local x,y,z moments=    1.5945E-04   -1.7967E-03   -4.1596E-05  setid=       0
 node=     8 local x,y,z forces =    6.8823E+00    0.0000E+00    4.2360E+01  setid=       0
 node=     8 local x,y,z moments=    2.2380E-04   -5.3281E-03   -7.7256E-05  setid=       0
 node=     9 local x,y,z forces =    3.6401E+00    0.0000E+00    2.8597E+01  setid=       0
 node=     9 local x,y,z moments=   -3.9843E-03   -5.1364E-03    4.7921E-04  setid=       0
 node=    10 local x,y,z forces =    0.0000E+00    0.0000E+00    5.6101E+01  setid=       0
 node=    10 local x,y,z moments=   -6.9966E-03    3.5340E-03    0.0000E+00  setid=       0
 node=    11 local x,y,z forces =    0.0000E+00    0.0000E+00    5.2056E+01  setid=       0
 node=    11 local x,y,z moments=   -3.9861E-03    4.7591E-03    0.0000E+00  setid=       0
 node=    12 local x,y,z forces =    0.0000E+00    0.0000E+00    5.8789E+01  setid=       0
 node=    12 local x,y,z moments=   -2.7236E-03    7.9192E-03    0.0000E+00  setid=       0
 node=    13 local x,y,z forces =    0.0000E+00    0.0000E+00    3.5098E+01  setid=       0
 node=    13 local x,y,z moments=    6.7706E-05   -4.2124E-04    0.0000E+00  setid=       0
 node=    14 local x,y,z forces =    0.0000E+00    0.0000E+00    5.3056E+01  setid=       0
 node=    14 local x,y,z moments=    6.8236E-04   -3.4992E-04    0.0000E+00  setid=       0
 node=    15 local x,y,z forces =    0.0000E+00    0.0000E+00    5.1856E+01  setid=       0
 node=    15 local x,y,z moments=    4.6516E-04   -1.2569E-03    0.0000E+00  setid=       0
 node=    16 local x,y,z forces =    0.0000E+00    0.0000E+00    5.2080E+01  setid=       0
 node=    16 local x,y,z moments=   -8.7687E-04    4.3120E-04    0.0000E+00  setid=       0
 node=    17 local x,y,z forces =    0.0000E+00    0.0000E+00    7.3734E+01  setid=       0
 node=    17 local x,y,z moments=   -2.2563E-04   -9.2319E-04    0.0000E+00  setid=       0
 node=    18 local x,y,z forces =    0.0000E+00    0.0000E+00    8.0971E+01  setid=       0
 node=    18 local x,y,z moments=    1.9698E-03   -6.0221E-04    0.0000E+00  setid=       0
 node=    19 local x,y,z forces =    0.0000E+00    0.0000E+00    8.1714E+01  setid=       0
 node=    19 local x,y,z moments=   -7.3103E-04   -2.9232E-03    0.0000E+00  setid=       0
 node=    51 local x,y,z forces =    1.5747E+01    0.0000E+00    0.0000E+00  setid=       0
 node=    51 local x,y,z moments=    0.0000E+00   -3.8834E-05   -2.3495E-05  setid=       0
 node=    52 local x,y,z forces =    7.9977E+00    8.2081E+00    0.0000E+00  setid=       0
 node=    52 local x,y,z moments=   -1.5954E-05    1.1246E-05    3.0312E-05  setid=       0
 node=    53 local x,y,z forces =    0.0000E+00    1.6131E+01    0.0000E+00  setid=       0
 node=    53 local x,y,z moments=   -4.0876E-05    0.0000E+00    1.7412E-05  setid=       0
 node=    55 local x,y,z forces =    1.4159E+01    0.0000E+00    0.0000E+00  setid=       0
 node=    55 local x,y,z moments=    0.0000E+00   -1.6526E-04    4.1380E-05  setid=       0
 node=    56 local x,y,z forces =    7.2227E+00    7.4238E+00    0.0000E+00  setid=       0
 node=    56 local x,y,z moments=    2.5188E-05   -2.0568E-05    4.4379E-05  setid=       0
 node=    57 local x,y,z forces =    0.0000E+00    1.4665E+01    0.0000E+00  setid=       0
 node=    57 local x,y,z moments=   -2.8671E-05    0.0000E+00    1.9482E-05  setid=       0
 node=    59 local x,y,z forces =    1.1221E+01    0.0000E+00    0.0000E+00  setid=       0
 node=    59 local x,y,z moments=    0.0000E+00   -2.6556E-04   -5.4338E-05  setid=       0
 node=    60 local x,y,z forces =    5.4532E+00    5.5507E+00    0.0000E+00  setid=       0
 node=    60 local x,y,z moments=    2.3492E-04   -1.7154E-04    5.5577E-05  setid=       0
 node=    61 local x,y,z forces =    0.0000E+00    1.1221E+01    0.0000E+00  setid=       0
 node=    61 local x,y,z moments=    2.9767E-04    0.0000E+00    3.4564E-05  setid=       0
 node=    63 local x,y,z forces =    8.7185E+00    0.0000E+00    0.0000E+00  setid=       0
 node=    63 local x,y,z moments=    0.0000E+00    1.9626E-04   -1.0113E-04  setid=       0
 node=    64 local x,y,z forces =    4.1295E+00    4.0496E+00    0.0000E+00  setid=       0
 node=    64 local x,y,z moments=   -2.2508E-04    3.5997E-04    3.5781E-06  setid=       0
 node=    65 local x,y,z forces =    0.0000E+00    7.9586E+00    0.0000E+00  setid=       0
 node=    65 local x,y,z moments=   -2.8112E-04    0.0000E+00    8.2173E-05  setid=       0
 node=    67 local x,y,z forces =    8.7528E+00    0.0000E+00    0.0000E+00  setid=       0
 node=    67 local x,y,z moments=    0.0000E+00    1.9253E-03    1.2821E-04  setid=       0
 node=    68 local x,y,z forces =    4.4422E+00    4.3205E+00    0.0000E+00  setid=       0
 node=    68 local x,y,z moments=   -1.3231E-03    1.5797E-03   -2.6581E-05  setid=       0
 node=    69 local x,y,z forces =    0.0000E+00    8.2364E+00    0.0000E+00  setid=       0
 node=    69 local x,y,z moments=   -2.1331E-03    0.0000E+00   -1.2636E-04  setid=       0
 node=    85 local x,y,z forces =    0.0000E+00    1.4988E+01    0.0000E+00  setid=       0
 node=    85 local x,y,z moments=   -3.6279E-04    0.0000E+00    1.2023E-04  setid=       0
 node=    86 local x,y,z forces =    0.0000E+00    6.6997E+00    0.0000E+00  setid=       0
 node=    86 local x,y,z moments=    1.7999E-04    0.0000E+00   -1.0987E-03  setid=       0
 node=    87 local x,y,z forces =    0.0000E+00    1.5592E+01    0.0000E+00  setid=       0
 node=    87 local x,y,z moments=   -7.2025E-04    0.0000E+00    2.9230E-04  setid=       0
 node=    88 local x,y,z forces =    0.0000E+00    5.8756E+00    0.0000E+00  setid=       0
 node=    88 local x,y,z moments=    1.4711E-04    0.0000E+00   -9.4450E-04  setid=       0
 node=    89 local x,y,z forces =    0.0000E+00    1.4417E+01    0.0000E+00  setid=       0
 node=    89 local x,y,z moments=   -8.0456E-04    0.0000E+00    3.4160E-04  setid=       0
 node=    90 local x,y,z forces =    0.0000E+00    5.0002E+00    0.0000E+00  setid=       0
 node=    90 local x,y,z moments=    1.0447E-04    0.0000E+00   -7.9126E-04  setid=       0
 node=    91 local x,y,z forces =    0.0000E+00    1.1072E+01    0.0000E+00  setid=       0
 node=    91 local x,y,z moments=   -6.4558E-04    0.0000E+00    6.7493E-05  setid=       0
 node=    92 local x,y,z forces =    0.0000E+00    3.6414E+00    0.0000E+00  setid=       0
 node=    92 local x,y,z moments=    1.9695E-04    0.0000E+00   -6.4283E-04  setid=       0
 node=    93 local x,y,z forces =    0.0000E+00    1.0113E+01    0.0000E+00  setid=       0
 node=    93 local x,y,z moments=   -2.3643E-03    0.0000E+00   -4.2015E-04  setid=       0
 node=    94 local x,y,z forces =    0.0000E+00    3.7991E+00    0.0000E+00  setid=       0
 node=    94 local x,y,z moments=   -1.3242E-03    0.0000E+00   -2.2948E-04  setid=       0
 node=    95 local x,y,z forces =    1.5145E+01    0.0000E+00    0.0000E+00  setid=       0
 node=    95 local x,y,z moments=    0.0000E+00   -2.3419E-04   -6.9236E-05  setid=       0
 node=    96 local x,y,z forces =    1.3750E+01    0.0000E+00    0.0000E+00  setid=       0
 node=    96 local x,y,z moments=    0.0000E+00   -5.3113E-04    1.6015E-05  setid=       0
 node=    97 local x,y,z forces =    1.1846E+01    0.0000E+00    0.0000E+00  setid=       0
 node=    97 local x,y,z moments=    0.0000E+00   -4.5600E-04   -1.9254E-04  setid=       0
 node=    98 local x,y,z forces =    9.6708E+00    0.0000E+00    0.0000E+00  setid=       0
 node=    98 local x,y,z moments=    0.0000E+00   -4.7798E-04   -1.4305E-04  setid=       0
 node=    99 local x,y,z forces =    9.4312E+00    0.0000E+00    0.0000E+00  setid=       0
 node=    99 local x,y,z moments=    0.0000E+00    5.4433E-04    1.6612E-04  setid=       0
 node=   100 local x,y,z forces =    1.4095E+01    0.0000E+00    0.0000E+00  setid=       0
 node=   100 local x,y,z moments=    0.0000E+00   -3.6917E-04   -1.0346E-04  setid=       0
 node=   101 local x,y,z forces =    1.3541E+01    0.0000E+00    0.0000E+00  setid=       0
 node=   101 local x,y,z moments=    0.0000E+00   -6.6817E-04    3.6737E-05  setid=       0
 node=   102 local x,y,z forces =    1.3120E+01    0.0000E+00    0.0000E+00  setid=       0
 node=   102 local x,y,z moments=    0.0000E+00   -1.5918E-04   -3.7753E-04  setid=       0
 node=   103 local x,y,z forces =    1.0691E+01    0.0000E+00    0.0000E+00  setid=       0
 node=   103 local x,y,z moments=    0.0000E+00   -3.1383E-04    3.2415E-05  setid=       0
 node=   104 local x,y,z forces =    1.0048E+01    0.0000E+00    0.0000E+00  setid=       0
 node=   104 local x,y,z moments=    0.0000E+00    1.0540E-03    2.3921E-04  setid=       0
 node=   105 local x,y,z forces =    0.0000E+00    1.5691E+01    0.0000E+00  setid=       0
 node=   105 local x,y,z moments=   -8.6892E-05    0.0000E+00    6.7225E-05  setid=       0
 node=   106 local x,y,z forces =    0.0000E+00    1.4631E+01    0.0000E+00  setid=       0
 node=   106 local x,y,z moments=   -1.1878E-04    0.0000E+00    1.2258E-04  setid=       0
 node=   107 local x,y,z forces =    0.0000E+00    1.1915E+01    0.0000E+00  setid=       0
 node=   107 local x,y,z moments=    7.5659E-05    0.0000E+00    1.5696E-04  setid=       0
 node=   108 local x,y,z forces =    0.0000E+00    8.8665E+00    0.0000E+00  setid=       0
 node=   108 local x,y,z moments=   -3.1053E-04    0.0000E+00    2.0821E-04  setid=       0
 node=   109 local x,y,z forces =    0.0000E+00    8.7749E+00    0.0000E+00  setid=       0
 node=   109 local x,y,z moments=   -2.0725E-03    0.0000E+00   -1.8869E-04  setid=       0
 node=   110 local x,y,z forces =    7.4440E+00    0.0000E+00    0.0000E+00  setid=       0
 node=   110 local x,y,z moments=    0.0000E+00    3.1792E-04    1.0383E-03  setid=       0
 node=   111 local x,y,z forces =    7.2885E+00    0.0000E+00    0.0000E+00  setid=       0
 node=   111 local x,y,z moments=    0.0000E+00    6.0370E-04    1.1216E-03  setid=       0
 node=   112 local x,y,z forces =    6.3757E+00    0.0000E+00    0.0000E+00  setid=       0
 node=   112 local x,y,z moments=    0.0000E+00    7.1611E-04    1.0522E-03  setid=       0
 node=   113 local x,y,z forces =    3.7973E+00    0.0000E+00    0.0000E+00  setid=       0
 node=   113 local x,y,z moments=    0.0000E+00    4.1391E-04    7.7330E-04  setid=       0
 node=   114 local x,y,z forces =    4.9090E+00    0.0000E+00    0.0000E+00  setid=       0
 node=   114 local x,y,z moments=    0.0000E+00    1.1342E-03    3.5836E-05  setid=       0
 node=   199 local x,y,z forces =    0.0000E+00    5.8138E+00    0.0000E+00  setid=       0
 node=   199 local x,y,z moments=    5.9317E-05    0.0000E+00    2.7636E-05  setid=       0
 node=   200 local x,y,z forces =    0.0000E+00    4.9685E+00    0.0000E+00  setid=       0
 node=   200 local x,y,z moments=   -3.3404E-05    0.0000E+00    2.2187E-05  setid=       0
 node=   201 local x,y,z forces =    0.0000E+00   -9.4310E-02    0.0000E+00  setid=       0
 node=   201 local x,y,z moments=   -2.2666E-04    0.0000E+00    6.1298E-05  setid=       0
 node=   202 local x,y,z forces =    0.0000E+00   -2.3401E-01    0.0000E+00  setid=       0
 node=   202 local x,y,z moments=   -2.9254E-04    0.0000E+00    4.9499E-05  setid=       0
 node=   203 local x,y,z forces =    0.0000E+00   -2.9306E+00    0.0000E+00  setid=       0
 node=   203 local x,y,z moments=   -3.0857E-04    0.0000E+00    5.6410E-05  setid=       0
 node=   204 local x,y,z forces =    0.0000E+00   -2.8110E+00    0.0000E+00  setid=       0
 node=   204 local x,y,z moments=   -3.2242E-04    0.0000E+00    6.1110E-05  setid=       0
 node=   205 local x,y,z forces =    0.0000E+00   -4.1491E+00    0.0000E+00  setid=       0
 node=   205 local x,y,z moments=   -3.1580E-04    0.0000E+00    4.8432E-05  setid=       0
 node=   206 local x,y,z forces =    0.0000E+00   -3.9221E+00    0.0000E+00  setid=       0
 node=   206 local x,y,z moments=   -2.9971E-04    0.0000E+00    4.8220E-05  setid=       0
 node=   207 local x,y,z forces =    0.0000E+00   -4.5130E+00    0.0000E+00  setid=       0
 node=   207 local x,y,z moments=   -2.9293E-04    0.0000E+00    3.7774E-05  setid=       0
 node=   208 local x,y,z forces =    0.0000E+00   -4.2596E+00    0.0000E+00  setid=       0
 node=   208 local x,y,z moments=   -2.5724E-04    0.0000E+00    3.4473E-05  setid=       0
 node=   209 local x,y,z forces =    0.0000E+00   -4.4154E+00    0.0000E+00  setid=       0
 node=   209 local x,y,z moments=   -2.6244E-04    0.0000E+00    2.9722E-05  setid=       0
 node=   210 local x,y,z forces =    0.0000E+00   -4.1598E+00    0.0000E+00  setid=       0
 node=   210 local x,y,z moments=   -2.1181E-04    0.0000E+00    2.4661E-05  setid=       0
 node=   211 local x,y,z forces =    0.0000E+00   -4.0632E+00    0.0000E+00  setid=       0
 node=   211 local x,y,z moments=   -2.3214E-04    0.0000E+00    2.4407E-05  setid=       0
 node=   212 local x,y,z forces =    0.0000E+00   -3.8116E+00    0.0000E+00  setid=       0
 node=   212 local x,y,z moments=   -1.6876E-04    0.0000E+00    1.8593E-05  setid=       0
 node=   213 local x,y,z forces =    0.0000E+00   -3.5611E+00    0.0000E+00  setid=       0
 node=   213 local x,y,z moments=   -2.0854E-04    0.0000E+00    2.0662E-05  setid=       0
 node=   214 local x,y,z forces =    0.0000E+00   -3.3181E+00    0.0000E+00  setid=       0
 node=   214 local x,y,z moments=   -1.3542E-04    0.0000E+00    1.4747E-05  setid=       0
 node=   215 local x,y,z forces =    0.0000E+00   -2.9401E+00    0.0000E+00  setid=       0
 node=   215 local x,y,z moments=   -1.9956E-04    0.0000E+00    1.6938E-05  setid=       0
 node=   216 local x,y,z forces =    0.0000E+00   -2.7087E+00    0.0000E+00  setid=       0
 node=   216 local x,y,z moments=   -1.2309E-04    0.0000E+00    1.1527E-05  setid=       0
 node=   217 local x,y,z forces =    0.0000E+00   -2.1487E+00    0.0000E+00  setid=       0
 node=   217 local x,y,z moments=   -2.1941E-04    0.0000E+00    1.1825E-05  setid=       0
 node=   218 local x,y,z forces =    0.0000E+00   -1.9143E+00    0.0000E+00  setid=       0
 node=   218 local x,y,z moments=   -1.4936E-04    0.0000E+00    7.6275E-06  setid=       0
 node=   219 local x,y,z forces =    0.0000E+00   -9.4834E-01    0.0000E+00  setid=       0
 node=   219 local x,y,z moments=   -2.7299E-04    0.0000E+00    6.8953E-06  setid=       0
 node=   220 local x,y,z forces =    0.0000E+00   -6.8036E-01    0.0000E+00  setid=       0
 node=   220 local x,y,z moments=   -2.1551E-04    0.0000E+00   -1.0378E-06  setid=       0
 node=   221 local x,y,z forces =    0.0000E+00    8.8681E-01    0.0000E+00  setid=       0
 node=   221 local x,y,z moments=   -2.1257E-04    0.0000E+00    2.9248E-06  setid=       0
 node=   222 local x,y,z forces =    0.0000E+00    9.8892E-01    0.0000E+00  setid=       0
 node=   222 local x,y,z moments=   -1.3043E-04    0.0000E+00   -5.2199E-05  setid=       0
 node=   223 local x,y,z forces =    0.0000E+00    4.0432E+00    0.0000E+00  setid=       0
 node=   223 local x,y,z moments=   -1.2673E-03    0.0000E+00   -1.5832E-04  setid=       0
 node=   224 local x,y,z forces =    0.0000E+00    1.6887E+00    0.0000E+00  setid=       0
 node=   224 local x,y,z moments=   -1.3168E-03    0.0000E+00   -2.5102E-04  setid=       0
 node=   227 local x,y,z forces =    0.0000E+00    5.9273E+00    0.0000E+00  setid=       0
 node=   227 local x,y,z moments=    5.5727E-05    0.0000E+00   -2.7078E-06  setid=       0
 node=   229 local x,y,z forces =    6.2000E+00    0.0000E+00    0.0000E+00  setid=       0
 node=   229 local x,y,z moments=    0.0000E+00   -1.1617E-05    1.3436E-05  setid=       0
 node=   230 local x,y,z forces =    3.2510E+00    3.0537E+00    0.0000E+00  setid=       0
 node=   230 local x,y,z moments=   -1.4277E-04    6.9468E-04   -3.9728E-05  setid=       0
 node=   231 local x,y,z forces =    0.0000E+00   -3.3870E-02    0.0000E+00  setid=       0
 node=   231 local x,y,z moments=   -1.9226E-04    0.0000E+00    8.5431E-06  setid=       0
 node=   233 local x,y,z forces =    2.0260E-01    0.0000E+00    0.0000E+00  setid=       0
 node=   233 local x,y,z moments=    0.0000E+00    2.2221E-04    8.1794E-06  setid=       0
 node=   234 local x,y,z forces =    2.3428E-01    6.6337E-02    0.0000E+00  setid=       0
 node=   234 local x,y,z moments=   -2.5606E-04    7.7188E-04   -3.7808E-05  setid=       0
 node=   235 local x,y,z forces =    0.0000E+00   -2.9587E+00    0.0000E+00  setid=       0
 node=   235 local x,y,z moments=   -2.5014E-04    0.0000E+00    1.1790E-05  setid=       0
 node=   237 local x,y,z forces =   -2.8145E+00    0.0000E+00    0.0000E+00  setid=       0
 node=   237 local x,y,z moments=    0.0000E+00    4.0176E-04   -3.0905E-06  setid=       0
 node=   238 local x,y,z forces =   -1.3166E+00   -1.4084E+00    0.0000E+00  setid=       0
 node=   238 local x,y,z moments=   -2.7983E-04    8.5310E-04   -2.3975E-05  setid=       0
 node=   239 local x,y,z forces =    0.0000E+00   -4.2249E+00    0.0000E+00  setid=       0
 node=   239 local x,y,z moments=   -2.2967E-04    0.0000E+00    1.1420E-05  setid=       0
 node=   241 local x,y,z forces =   -4.1373E+00    0.0000E+00    0.0000E+00  setid=       0
 node=   241 local x,y,z moments=    0.0000E+00    5.1468E-04   -8.4553E-06  setid=       0
 node=   242 local x,y,z forces =   -2.0120E+00   -2.0686E+00    0.0000E+00  setid=       0
 node=   242 local x,y,z moments=   -2.6513E-04    9.1192E-04   -1.6411E-05  setid=       0
 node=   243 local x,y,z forces =    0.0000E+00   -4.6121E+00    0.0000E+00  setid=       0
 node=   243 local x,y,z moments=   -1.8525E-04    0.0000E+00    1.1718E-05  setid=       0
 node=   245 local x,y,z forces =   -4.5479E+00    0.0000E+00    0.0000E+00  setid=       0
 node=   245 local x,y,z moments=    0.0000E+00    5.8691E-04   -1.0356E-05  setid=       0
 node=   246 local x,y,z forces =   -2.2400E+00   -2.2893E+00    0.0000E+00  setid=       0
 node=   246 local x,y,z moments=   -2.3842E-04    9.5472E-04   -1.3588E-05  setid=       0
 node=   247 local x,y,z forces =    0.0000E+00   -4.5298E+00    0.0000E+00  setid=       0
 node=   247 local x,y,z moments=   -1.3738E-04    0.0000E+00    1.1727E-05  setid=       0
 node=   249 local x,y,z forces =   -4.4663E+00    0.0000E+00    0.0000E+00  setid=       0
 node=   249 local x,y,z moments=    0.0000E+00    6.3719E-04   -1.1549E-05  setid=       0
 node=   250 local x,y,z forces =   -2.2143E+00   -2.2651E+00    0.0000E+00  setid=       0
 node=   250 local x,y,z moments=   -2.0998E-04    9.8879E-04   -1.2691E-05  setid=       0
 node=   251 local x,y,z forces =    0.0000E+00   -4.1923E+00    0.0000E+00  setid=       0
 node=   251 local x,y,z moments=   -9.3259E-05    0.0000E+00    1.2754E-05  setid=       0
 node=   253 local x,y,z forces =   -4.1200E+00    0.0000E+00    0.0000E+00  setid=       0
 node=   253 local x,y,z moments=    0.0000E+00    6.7586E-04   -1.3625E-05  setid=       0
 node=   254 local x,y,z forces =   -2.0544E+00   -2.1099E+00    0.0000E+00  setid=       0
 node=   254 local x,y,z moments=   -1.8390E-04    1.0186E-03   -1.2633E-05  setid=       0
 node=   255 local x,y,z forces =    0.0000E+00   -3.7073E+00    0.0000E+00  setid=       0
 node=   255 local x,y,z moments=   -5.8705E-05    0.0000E+00    1.5553E-05  setid=       0
 node=   257 local x,y,z forces =   -3.6205E+00    0.0000E+00    0.0000E+00  setid=       0
 node=   257 local x,y,z moments=    0.0000E+00    7.1185E-04   -1.7291E-05  setid=       0
 node=   258 local x,y,z forces =   -1.8211E+00   -1.8836E+00    0.0000E+00  setid=       0
 node=   258 local x,y,z moments=   -1.6278E-04    1.0462E-03   -1.3151E-05  setid=       0
 node=   259 local x,y,z forces =    0.0000E+00   -3.1074E+00    0.0000E+00  setid=       0
 node=   259 local x,y,z moments=   -4.0377E-05    0.0000E+00    2.1133E-05  setid=       0
 node=   261 local x,y,z forces =   -2.9997E+00    0.0000E+00    0.0000E+00  setid=       0
 node=   261 local x,y,z moments=    0.0000E+00    7.5560E-04   -2.3417E-05  setid=       0
 node=   262 local x,y,z forces =   -1.5372E+00   -1.6111E+00    0.0000E+00  setid=       0
 node=   262 local x,y,z moments=   -1.4872E-04    1.0711E-03   -1.4455E-05  setid=       0
 node=   263 local x,y,z forces =    0.0000E+00   -2.3541E+00    0.0000E+00  setid=       0
 node=   263 local x,y,z moments=   -4.9178E-05    0.0000E+00    3.1723E-05  setid=       0
 node=   265 local x,y,z forces =   -2.2179E+00    0.0000E+00    0.0000E+00  setid=       0
 node=   265 local x,y,z moments=    0.0000E+00    8.2740E-04   -3.3763E-05  setid=       0
 node=   266 local x,y,z forces =   -1.1972E+00   -1.2888E+00    0.0000E+00  setid=       0
 node=   266 local x,y,z moments=   -1.4348E-04    1.0920E-03   -1.6956E-05  setid=       0
 node=   267 local x,y,z forces =    0.0000E+00   -1.3156E+00    0.0000E+00  setid=       0
 node=   267 local x,y,z moments=   -8.1097E-05    0.0000E+00    5.4902E-05  setid=       0
 node=   269 local x,y,z forces =   -1.1242E+00    0.0000E+00    0.0000E+00  setid=       0
 node=   269 local x,y,z moments=    0.0000E+00    9.8115E-04   -5.4183E-05  setid=       0
 node=   270 local x,y,z forces =   -7.7922E-01   -9.0772E-01    0.0000E+00  setid=       0
 node=   270 local x,y,z moments=   -1.3376E-04    1.1094E-03   -2.3181E-05  setid=       0
 node=   271 local x,y,z forces =    0.0000E+00    1.6635E-01    0.0000E+00  setid=       0
 node=   271 local x,y,z moments=   -7.3394E-05    0.0000E+00    1.1439E-04  setid=       0
 node=   273 local x,y,z forces =    5.0550E-01    0.0000E+00    0.0000E+00  setid=       0
 node=   273 local x,y,z moments=    0.0000E+00    1.3252E-03   -1.1620E-04  setid=       0
 node=   274 local x,y,z forces =   -5.7417E-01   -7.8119E-01    0.0000E+00  setid=       0
 node=   274 local x,y,z moments=   -3.3727E-05    1.0545E-03   -3.6069E-05  setid=       0
 node=   275 local x,y,z forces =    0.0000E+00    3.2124E+00    0.0000E+00  setid=       0
 node=   275 local x,y,z moments=   -1.2507E-03    0.0000E+00    4.6693E-04  setid=       0
 node=   277 local x,y,z forces =    3.4134E+00    0.0000E+00    0.0000E+00  setid=       0
 node=   277 local x,y,z moments=    0.0000E+00    3.1603E-03   -2.6281E-04  setid=       0
 node=   278 local x,y,z forces =   -1.7015E+00   -2.0794E+00    0.0000E+00  setid=       0
 node=   278 local x,y,z moments=   -4.0159E-04    1.3961E-03   -5.7903E-05  setid=       0
 node=   283 local x,y,z forces =    6.0824E+00    0.0000E+00    0.0000E+00  setid=       0
 node=   283 local x,y,z moments=    0.0000E+00   -1.5901E-03   -5.6634E-06  setid=       0
 node=   284 local x,y,z forces =    1.9298E-02    0.0000E+00    0.0000E+00  setid=       0
 node=   284 local x,y,z moments=    0.0000E+00   -1.2427E-03   -3.6209E-05  setid=       0
 node=   285 local x,y,z forces =   -2.8850E+00    0.0000E+00    0.0000E+00  setid=       0
 node=   285 local x,y,z moments=    0.0000E+00   -1.0586E-03   -4.3343E-05  setid=       0
 node=   286 local x,y,z forces =   -4.1329E+00    0.0000E+00    0.0000E+00  setid=       0
 node=   286 local x,y,z moments=    0.0000E+00   -9.6946E-04   -4.0478E-05  setid=       0
 node=   287 local x,y,z forces =   -4.5097E+00    0.0000E+00    0.0000E+00  setid=       0
 node=   287 local x,y,z moments=    0.0000E+00   -9.2346E-04   -3.4925E-05  setid=       0
 node=   288 local x,y,z forces =   -4.4125E+00    0.0000E+00    0.0000E+00  setid=       0
 node=   288 local x,y,z moments=    0.0000E+00   -9.0343E-04   -3.0701E-05  setid=       0
 node=   289 local x,y,z forces =   -4.0546E+00    0.0000E+00    0.0000E+00  setid=       0
 node=   289 local x,y,z moments=    0.0000E+00   -9.0343E-04   -2.8243E-05  setid=       0
 node=   290 local x,y,z forces =   -3.5435E+00    0.0000E+00    0.0000E+00  setid=       0
 node=   290 local x,y,z moments=    0.0000E+00   -9.1836E-04   -2.6560E-05  setid=       0
 node=   291 local x,y,z forces =   -2.9110E+00    0.0000E+00    0.0000E+00  setid=       0
 node=   291 local x,y,z moments=    0.0000E+00   -9.4321E-04   -2.4026E-05  setid=       0
 node=   292 local x,y,z forces =   -2.1060E+00    0.0000E+00    0.0000E+00  setid=       0
 node=   292 local x,y,z moments=    0.0000E+00   -9.6702E-04   -1.9721E-05  setid=       0
 node=   293 local x,y,z forces =   -8.8204E-01    0.0000E+00    0.0000E+00  setid=       0
 node=   293 local x,y,z moments=    0.0000E+00   -9.4186E-04   -1.5959E-05  setid=       0
[...]
 node=   595 local x,y,z forces =    0.0000E+00   -3.1910E+00    0.0000E+00  setid=       0
 node=   595 local x,y,z moments=   -1.7317E-03    0.0000E+00    1.0576E-03  setid=       0
 node=   596 local x,y,z forces =    0.0000E+00   -1.6502E+00    0.0000E+00  setid=       0
 node=   596 local x,y,z moments=   -6.3212E-04    0.0000E+00    8.5899E-04  setid=       0
 node=   597 local x,y,z forces =    0.0000E+00   -3.2130E-01    0.0000E+00  setid=       0
 node=   597 local x,y,z moments=   -2.9504E-04    0.0000E+00    7.4496E-04  setid=       0
 node=   598 local x,y,z forces =    0.0000E+00    5.0444E-01    0.0000E+00  setid=       0
 node=   598 local x,y,z moments=   -1.3802E-04    0.0000E+00    7.5004E-04  setid=       0
 node=   599 local x,y,z forces =    0.0000E+00    7.7210E-01    0.0000E+00  setid=       0
 node=   599 local x,y,z moments=   -3.9381E-04    0.0000E+00    7.9239E-04  setid=       0
 node=   600 local x,y,z forces =    0.0000E+00    4.5418E-01    0.0000E+00  setid=       0
 node=   600 local x,y,z moments=   -8.0854E-04    0.0000E+00    8.8765E-04  setid=       0
 node=   601 local x,y,z forces =    0.0000E+00   -4.0977E-01    0.0000E+00  setid=       0
 node=   601 local x,y,z moments=   -1.4863E-03    0.0000E+00    9.5558E-04  setid=       0
 node=   602 local x,y,z forces =    0.0000E+00   -2.0207E+00    0.0000E+00  setid=       0
 node=   602 local x,y,z moments=   -1.8678E-03    0.0000E+00    1.2319E-03  setid=       0
 node=   603 local x,y,z forces =    0.0000E+00   -4.4238E+00    0.0000E+00  setid=       0
 node=   603 local x,y,z moments=   -2.9373E-03    0.0000E+00    8.3186E-04  setid=       0
 node=   604 local x,y,z forces =    0.0000E+00   -8.7503E+00    0.0000E+00  setid=       0
 node=   604 local x,y,z moments=   -2.4217E-03    0.0000E+00    3.3797E-03  setid=       0
 node=   605 local x,y,z forces =    0.0000E+00   -1.3649E+01    0.0000E+00  setid=       0
 node=   605 local x,y,z moments=   -1.5644E-03    0.0000E+00    6.2781E-03  setid=       0
 node=   606 local x,y,z forces =    0.0000E+00   -1.3860E+01    0.0000E+00  setid=       0
 node=   606 local x,y,z moments=   -2.9636E-03    0.0000E+00    1.0999E-03  setid=       0
 node=   607 local x,y,z forces =    0.0000E+00   -1.3814E+01    0.0000E+00  setid=       0
 node=   607 local x,y,z moments=    6.0136E-03    0.0000E+00   -6.1672E-03  setid=       0
 node=   612 local x,y,z forces =    0.0000E+00    3.9909E+00    0.0000E+00  setid=       0
 node=   612 local x,y,z moments=   -4.3150E-03    0.0000E+00    2.0779E-03  setid=       0
 node=   613 local x,y,z forces =    0.0000E+00    4.3642E+00    0.0000E+00  setid=       0
 node=   613 local x,y,z moments=   -2.6234E-03    0.0000E+00   -9.5509E-05  setid=       0
 node=   614 local x,y,z forces =    0.0000E+00    4.5657E+00    0.0000E+00  setid=       0
 node=   614 local x,y,z moments=   -9.1492E-04    0.0000E+00   -3.1445E-03  setid=       0
 node=   615 local x,y,z forces =    0.0000E+00   -1.2059E+00    0.0000E+00  setid=       0
 node=   615 local x,y,z moments=   -1.2702E-03    0.0000E+00    2.3650E-03  setid=       0
 node=   616 local x,y,z forces =    0.0000E+00   -3.0921E+00    0.0000E+00  setid=       0
 node=   616 local x,y,z moments=   -1.1632E-03    0.0000E+00    1.1803E-03  setid=       0
 node=   617 local x,y,z forces =    0.0000E+00   -8.3099E+00    0.0000E+00  setid=       0
 node=   617 local x,y,z moments=   -6.3883E-04    0.0000E+00   -7.3785E-04  setid=       0
 node=   618 local x,y,z forces =    0.0000E+00   -7.5424E+00    0.0000E+00  setid=       0
 node=   618 local x,y,z moments=   -9.8292E-04    0.0000E+00    2.1010E-03  setid=       0
 node=   619 local x,y,z forces =    0.0000E+00   -1.3092E+01    0.0000E+00  setid=       0
 node=   619 local x,y,z moments=   -6.9425E-04    0.0000E+00    3.9524E-03  setid=       0
 node=   620 local x,y,z forces =    0.0000E+00   -4.9715E+00    0.0000E+00  setid=       0
 node=   620 local x,y,z moments=   -6.8444E-04    0.0000E+00    2.6564E-03  setid=       0
 node=   621 local x,y,z forces =    0.0000E+00   -9.1987E+00    0.0000E+00  setid=       0
 node=   621 local x,y,z moments=   -7.5768E-04    0.0000E+00    2.2746E-03  setid=       0
 node=   622 local x,y,z forces =    0.0000E+00   -1.4895E+01    0.0000E+00  setid=       0
 node=   622 local x,y,z moments=   -2.2535E-03    0.0000E+00    1.7242E-03  setid=       0
 node=   623 local x,y,z forces =    0.0000E+00   -2.2859E+01    0.0000E+00  setid=       0
 node=   623 local x,y,z moments=   -4.2747E-03    0.0000E+00    5.4410E-03  setid=       0
 node=   624 local x,y,z forces =    0.0000E+00    4.5554E+00    0.0000E+00  setid=       0
 node=   624 local x,y,z moments=   -2.0703E-03    0.0000E+00    1.9462E-04  setid=       0
 node=   625 local x,y,z forces =    0.0000E+00    3.1566E+00    0.0000E+00  setid=       0
 node=   625 local x,y,z moments=   -1.6065E-03    0.0000E+00    4.8262E-04  setid=       0
 node=   626 local x,y,z forces =    0.0000E+00    5.3200E-01    0.0000E+00  setid=       0
 node=   626 local x,y,z moments=   -1.1897E-03    0.0000E+00    8.4025E-04  setid=       0
 node=   627 local x,y,z forces =    0.0000E+00    3.7055E+00    0.0000E+00  setid=       0
 node=   627 local x,y,z moments=   -2.5939E-03    0.0000E+00    1.7766E-03  setid=       0
 node=   628 local x,y,z forces =    0.0000E+00    4.4673E+00    0.0000E+00  setid=       0
 node=   628 local x,y,z moments=   -3.3750E-03    0.0000E+00    1.7924E-03  setid=       0
 node=   629 local x,y,z forces =    0.0000E+00    1.7547E+00    0.0000E+00  setid=       0
 node=   629 local x,y,z moments=   -1.6789E-03    0.0000E+00    2.0677E-03  setid=       0
 node=   630 local x,y,z forces =    0.0000E+00    1.5935E+00    0.0000E+00  setid=       0
 node=   630 local x,y,z moments=   -2.9324E-04    0.0000E+00   -2.2213E-03  setid=       0
 node=   631 local x,y,z forces =    0.0000E+00    4.0676E+00    0.0000E+00  setid=       0
 node=   631 local x,y,z moments=   -6.0661E-04    0.0000E+00   -2.6965E-03  setid=       0
 node=   632 local x,y,z forces =    0.0000E+00   -2.5664E+00    0.0000E+00  setid=       0
 node=   632 local x,y,z moments=   -8.0201E-05    0.0000E+00   -1.6192E-03  setid=       0
 node=   633 local x,y,z forces =    0.0000E+00   -1.0807E+01    0.0000E+00  setid=       0
 node=   633 local x,y,z moments=   -5.3709E-03    0.0000E+00    6.6023E-03  setid=       0
 node=   634 local x,y,z forces =    0.0000E+00   -1.2324E+01    0.0000E+00  setid=       0
 node=   634 local x,y,z moments=   -2.6307E-03    0.0000E+00   -1.0309E-04  setid=       0
 node=   635 local x,y,z forces =    0.0000E+00   -1.3060E+01    0.0000E+00  setid=       0
 node=   635 local x,y,z moments=   -5.1630E-04    0.0000E+00   -2.9677E-03  setid=       0
 node=   636 local x,y,z forces =    0.0000E+00   -3.3614E+00    0.0000E+00  setid=       0
 node=   636 local x,y,z moments=   -3.4826E-03    0.0000E+00   -9.8137E-04  setid=       0
 node=   637 local x,y,z forces =    0.0000E+00    1.9873E+00    0.0000E+00  setid=       0
 node=   637 local x,y,z moments=   -3.0354E-03    0.0000E+00   -4.0735E-04  setid=       0
 node=   638 local x,y,z forces =    0.0000E+00   -2.3680E+00    0.0000E+00  setid=       0
 node=   638 local x,y,z moments=   -6.3847E-03    0.0000E+00    2.6187E-03  setid=       0
 node=   639 local x,y,z forces =    0.0000E+00    1.9096E+00    0.0000E+00  setid=       0
 node=   639 local x,y,z moments=   -4.6598E-03    0.0000E+00    2.5710E-03  setid=       0
 node=   640 local x,y,z forces =    0.0000E+00   -3.9632E+00    0.0000E+00  setid=       0
 node=   640 local x,y,z moments=   -1.4775E-03    0.0000E+00   -3.6073E-03  setid=       0
 node=   641 local x,y,z forces =    0.0000E+00    2.1138E+00    0.0000E+00  setid=       0
 node=   641 local x,y,z moments=   -1.2903E-03    0.0000E+00   -3.4222E-03  setid=       0
 node=   642 local x,y,z forces =    0.0000E+00    8.9383E+01    0.0000E+00  setid=       0
 node=   642 local x,y,z moments=   -3.3776E-03    0.0000E+00    3.1794E-03  setid=       0
 node=   643 local x,y,z forces =    0.0000E+00   -4.7019E+01    0.0000E+00  setid=       0
 node=   643 local x,y,z moments=    6.0624E-03    0.0000E+00   -1.4769E-03  setid=       0
 node=   644 local x,y,z forces =    0.0000E+00   -2.7112E+01    0.0000E+00  setid=       0
 node=   644 local x,y,z moments=   -9.0617E-04    0.0000E+00   -2.0905E-04  setid=       0
 node=   645 local x,y,z forces =    0.0000E+00   -4.4180E+01    0.0000E+00  setid=       0
 node=   645 local x,y,z moments=    2.8998E-03    0.0000E+00    2.3375E-03  setid=       0
 node=   646 local x,y,z forces =    0.0000E+00    6.6707E+01    0.0000E+00  setid=       0
 node=   646 local x,y,z moments=    1.1382E-02    0.0000E+00   -6.2858E-03  setid=       0
 node=   647 local x,y,z forces =    0.0000E+00   -2.5891E+01    0.0000E+00  setid=       0
 node=   647 local x,y,z moments=   -6.4369E-03    0.0000E+00    7.3926E-03  setid=       0
 node=   648 local x,y,z forces =    0.0000E+00   -3.7937E+01    0.0000E+00  setid=       0
 node=   648 local x,y,z moments=    1.0226E-02    0.0000E+00   -5.4844E-03  setid=       0
 node=   649 local x,y,z forces =    0.0000E+00    1.0389E+02    0.0000E+00  setid=       0
 node=   649 local x,y,z moments=   -8.0056E-03    0.0000E+00   -8.4120E-03  setid=       0
 node=   650 local x,y,z forces =    0.0000E+00   -2.6280E+01    0.0000E+00  setid=       0
 node=   650 local x,y,z moments=    2.7324E-03    0.0000E+00   -3.2188E-03  setid=       0
 node=   657 local x,y,z forces =    4.0144E+00    0.0000E+00    0.0000E+00  setid=       0
 node=   657 local x,y,z moments=    0.0000E+00    7.7601E-03    1.1272E-03  setid=       0
 node=   658 local x,y,z forces =   -2.6790E+01    0.0000E+00    0.0000E+00  setid=       0
 node=   658 local x,y,z moments=    0.0000E+00    1.4675E-02   -1.5324E-03  setid=       0
 node=   671 local x,y,z forces =    3.5031E+00    0.0000E+00    0.0000E+00  setid=       0
 node=   671 local x,y,z moments=    0.0000E+00    8.4919E-03   -3.8745E-02  setid=       0
 node=   672 local x,y,z forces =   -3.3727E+00    0.0000E+00    0.0000E+00  setid=       0
 node=   672 local x,y,z moments=    0.0000E+00    8.3766E-03   -1.6075E-02  setid=       0
 node=   673 local x,y,z forces =   -2.0521E+01    0.0000E+00    0.0000E+00  setid=       0
 node=   673 local x,y,z moments=    0.0000E+00    4.6851E-03    2.9753E-02  setid=       0
 node=   674 local x,y,z forces =   -2.2093E+01    0.0000E+00    0.0000E+00  setid=       0
 node=   674 local x,y,z moments=    0.0000E+00   -2.8212E-02    8.8028E-02  setid=       0
 node=   681 local x,y,z forces =   -6.8916E-01    0.0000E+00    0.0000E+00  setid=       0
 node=   681 local x,y,z moments=    0.0000E+00    5.0007E-03    4.5487E-05  setid=       0
 node=   682 local x,y,z forces =   -9.3351E-01    0.0000E+00    0.0000E+00  setid=       0
 node=   682 local x,y,z moments=    0.0000E+00    4.4048E-03   -7.8943E-04  setid=       0
 node=   695 local x,y,z forces =    6.5121E+00    0.0000E+00    0.0000E+00  setid=       0
 node=   695 local x,y,z moments=    0.0000E+00    1.0646E-02    6.6803E-03  setid=       0
 node=   696 local x,y,z forces =    1.2249E+00    0.0000E+00    0.0000E+00  setid=       0
 node=   696 local x,y,z moments=    0.0000E+00    4.5891E-03    1.5355E-03  setid=       0
 node=   697 local x,y,z forces =    1.7531E+00    0.0000E+00    0.0000E+00  setid=       0
 node=   697 local x,y,z moments=    0.0000E+00    1.7245E-03    7.3096E-04  setid=       0
 node=   698 local x,y,z forces =    7.5229E+00    0.0000E+00    0.0000E+00  setid=       0
 node=   698 local x,y,z moments=    0.0000E+00    1.5959E-02    1.2634E-02  setid=       0
 node=   711 local x,y,z forces =   -8.9446E+00    0.0000E+00    0.0000E+00  setid=       0
 node=   711 local x,y,z moments=    0.0000E+00    7.0367E-03    4.9494E-04  setid=       0
 node=   712 local x,y,z forces =   -3.7158E+00    0.0000E+00    0.0000E+00  setid=       0
 node=   712 local x,y,z moments=    0.0000E+00    7.6011E-03    1.3180E-03  setid=       0
 node=   713 local x,y,z forces =   -7.1502E+00    0.0000E+00    0.0000E+00  setid=       0
 node=   713 local x,y,z moments=    0.0000E+00    7.7946E-03    8.7517E-04  setid=       0
 node=   714 local x,y,z forces =   -1.2987E+01    0.0000E+00    0.0000E+00  setid=       0
 node=   714 local x,y,z moments=    0.0000E+00    7.7200E-03   -9.9821E-05  setid=       0
 node=   721 local x,y,z forces =   -1.5193E+01    0.0000E+00    0.0000E+00  setid=       0
 node=   721 local x,y,z moments=    0.0000E+00    7.1465E-03   -1.2420E-03  setid=       0
 node=   722 local x,y,z forces =   -2.5908E+01    0.0000E+00    0.0000E+00  setid=       0
 node=   722 local x,y,z moments=    0.0000E+00    8.7501E-03   -2.2982E-03  setid=       0
 node=   735 local x,y,z forces =    2.5781E+00    0.0000E+00    0.0000E+00  setid=       0
 node=   735 local x,y,z moments=    0.0000E+00    2.3668E-03    7.7484E-04  setid=       0
 node=   736 local x,y,z forces =   -4.0590E-01    0.0000E+00    0.0000E+00  setid=       0
 node=   736 local x,y,z moments=    0.0000E+00    7.6369E-03    1.6698E-03  setid=       0
 node=   737 local x,y,z forces =    2.0141E+00    0.0000E+00    0.0000E+00  setid=       0
 node=   737 local x,y,z moments=    0.0000E+00    8.1212E-03    2.1649E-03  setid=       0
 node=   738 local x,y,z forces =    3.7683E+00    0.0000E+00    0.0000E+00  setid=       0
 node=   738 local x,y,z moments=    0.0000E+00    2.6837E-03    1.3650E-03  setid=       0
 node=   745 local x,y,z forces =    9.3265E-01    0.0000E+00    0.0000E+00  setid=       0
 node=   745 local x,y,z moments=    0.0000E+00    2.4896E-03    1.7804E-04  setid=       0
 node=   746 local x,y,z forces =   -1.1365E+00    0.0000E+00    0.0000E+00  setid=       0
 node=   746 local x,y,z moments=    0.0000E+00    2.9193E-03   -5.1495E-04  setid=       0
 node=   753 local x,y,z forces =    4.8437E+00    0.0000E+00    0.0000E+00  setid=       0
 node=   753 local x,y,z moments=    0.0000E+00    9.2440E-03    3.9557E-03  setid=       0
 node=   754 local x,y,z forces =    3.8536E-01    0.0000E+00    0.0000E+00  setid=       0
 node=   754 local x,y,z moments=    0.0000E+00    6.1781E-03    1.3973E-03  setid=       0
 node=   761 local x,y,z forces =    1.2870E+00    0.0000E+00    0.0000E+00  setid=       0
 node=   761 local x,y,z moments=    0.0000E+00    4.0146E-03   -2.5981E-05  setid=       0
 node=   762 local x,y,z forces =   -1.3670E+01    0.0000E+00    0.0000E+00  setid=       0
 node=   762 local x,y,z moments=    0.0000E+00    9.3077E-03   -2.0804E-04  setid=       0
 node=   769 local x,y,z forces =   -5.2056E+00    0.0000E+00    0.0000E+00  setid=       0
 node=   769 local x,y,z moments=    0.0000E+00    6.7090E-03    7.7627E-04  setid=       0
 node=   770 local x,y,z forces =   -2.4264E+00    0.0000E+00    0.0000E+00  setid=       0
 node=   770 local x,y,z moments=    0.0000E+00    6.9225E-03    1.1662E-03  setid=       0
 node=   780 local x,y,z forces =    4.0502E+00    0.0000E+00    0.0000E+00  setid=       0
 node=   780 local x,y,z moments=    0.0000E+00    8.5368E-02    2.1876E-01  setid=       0
 node=   781 local x,y,z forces =   -1.9141E+01    0.0000E+00    0.0000E+00  setid=       0
 node=   781 local x,y,z moments=    0.0000E+00   -3.6503E-02   -5.0282E-02  setid=       0
 node=   782 local x,y,z forces =   -3.0453E+01    0.0000E+00    0.0000E+00  setid=       0
 node=   782 local x,y,z moments=    0.0000E+00    2.6213E-02   -9.1757E-02  setid=       0
 node=   795 local x,y,z forces =   -1.0976E+01    0.0000E+00    0.0000E+00  setid=       0
 node=   795 local x,y,z moments=    0.0000E+00    7.9749E-03    5.0466E-04  setid=       0
 node=   796 local x,y,z forces =   -3.8340E+00    0.0000E+00    0.0000E+00  setid=       0
 node=   796 local x,y,z moments=    0.0000E+00    4.0039E-03   -1.3138E-03  setid=       0
 node=   797 local x,y,z forces =    8.3905E-01    0.0000E+00    0.0000E+00  setid=       0
 node=   797 local x,y,z moments=    0.0000E+00    1.8586E-03   -2.3348E-04  setid=       0
 node=   798 local x,y,z forces =    1.3299E+00    0.0000E+00    0.0000E+00  setid=       0
 node=   798 local x,y,z moments=    0.0000E+00    3.7475E-03   -1.0727E-04  setid=       0
 node=   802 local x,y,z forces =    4.3214E-01    0.0000E+00    0.0000E+00  setid=       0
 node=   802 local x,y,z moments=    0.0000E+00    4.4870E-03   -6.3435E-05  setid=       0
 node=   809 local x,y,z forces =    3.3788E+01    0.0000E+00    0.0000E+00  setid=       0
 node=   809 local x,y,z moments=    0.0000E+00    2.0735E-02    4.5360E-03  setid=       0
 node=   814 local x,y,z forces =   -1.1561E+01    0.0000E+00    0.0000E+00  setid=       0
 node=   814 local x,y,z moments=    0.0000E+00    3.8582E-03   -8.4661E-03  setid=       0
 node=   824 local x,y,z forces =    3.0145E+01    0.0000E+00    0.0000E+00  setid=       0
 node=   824 local x,y,z moments=    0.0000E+00   -2.6364E-02   -8.8929E-02  setid=       0
 node=   825 local x,y,z forces =    1.0201E+01    0.0000E+00    0.0000E+00  setid=       0
 node=   825 local x,y,z moments=    0.0000E+00    5.1962E-02   -1.0304E-01  setid=       0
 node=   826 local x,y,z forces =    1.1439E+01    0.0000E+00    0.0000E+00  setid=       0
 node=   826 local x,y,z moments=    0.0000E+00   -6.1855E-02    1.0805E-01  setid=       0
 node=   833 local x,y,z forces =    3.6646E+00    0.0000E+00    0.0000E+00  setid=       0
 node=   833 local x,y,z moments=    0.0000E+00    8.3818E-03    2.7516E-03  setid=       0
 node=   834 local x,y,z forces =   -5.8622E-01    0.0000E+00    0.0000E+00  setid=       0
 node=   834 local x,y,z moments=    0.0000E+00    6.4971E-03    1.3238E-03  setid=       0
 node=   838 local x,y,z forces =   -9.3605E+00    0.0000E+00    0.0000E+00  setid=       0
 node=   838 local x,y,z moments=    0.0000E+00    6.1701E-03   -8.3257E-04  setid=       0
 node=   842 local x,y,z forces =   -5.4805E+00    0.0000E+00    0.0000E+00  setid=       0
 node=   842 local x,y,z moments=    0.0000E+00    5.8299E-03   -5.1214E-04  setid=       0
 node=   849 local x,y,z forces =    8.1360E+00    0.0000E+00    0.0000E+00  setid=       0
 node=   849 local x,y,z moments=    0.0000E+00    5.3199E-03    2.1570E-04  setid=       0
 node=   850 local x,y,z forces =    1.3755E+01    0.0000E+00    0.0000E+00  setid=       0
 node=   850 local x,y,z moments=    0.0000E+00    7.8649E-03   -1.1246E-03  setid=       0
 node=   857 local x,y,z forces =    6.4374E+00    0.0000E+00    0.0000E+00  setid=       0
 node=   857 local x,y,z moments=    0.0000E+00    1.1848E-03    9.1208E-03  setid=       0
 node=   862 local x,y,z forces =    4.7402E+00    0.0000E+00    0.0000E+00  setid=       0
 node=   862 local x,y,z moments=    0.0000E+00    3.1394E-03    1.7452E-03  setid=       0
 node=   869 local x,y,z forces =   -6.0224E+01    0.0000E+00    0.0000E+00  setid=       0
 node=   869 local x,y,z moments=    0.0000E+00    1.1452E-02   -1.4837E-02  setid=       0
 node=   874 local x,y,z forces =   -3.0168E+00    0.0000E+00    0.0000E+00  setid=       0
 node=   874 local x,y,z moments=    0.0000E+00    5.1734E-03   -6.1951E-04  setid=       0
 node=   878 local x,y,z forces =    5.9156E+00    0.0000E+00    0.0000E+00  setid=       0
 node=   878 local x,y,z moments=    0.0000E+00    4.1320E-03    1.6630E-03  setid=       0
 node=   885 local x,y,z forces =   -1.9830E+01    0.0000E+00    0.0000E+00  setid=       0
 node=   885 local x,y,z moments=    0.0000E+00   -5.2178E-03    7.1059E-03  setid=       0
 node=   890 local x,y,z forces =    8.9017E+00    0.0000E+00    0.0000E+00  setid=       0
 node=   890 local x,y,z moments=    0.0000E+00    3.1146E-02   -1.4714E-02  setid=       0
             force resultants   =    2.5943E+02    2.4890E+02    1.3876E+02
