 LS-DYNA keyword deck by LS-PrePost                                      
                    ls-dyna smp d R14 R14.1.1s_1_ef50e1 date 06/16/2024

 n o d a l   f o r c e/e n e r g y    o u t p u t  t=   0.00000E+00

 velocity boundary condition forces/rigid body moments 

 nd#     167  xforce=   0.0000E+00   yforce=   0.0000E+00  zforce=   0.0000E+00   energy=   0.0000E+00   setid =     167 xmoment=   0.0000E+00 ymoment=   0.0000E+00 zmoment=   0.0000E+00
 nd#     168  xforce=   0.0000E+00   yforce=   0.0000E+00  zforce=   0.0000E+00   energy=   0.0000E+00   setid =     168 xmoment=   0.0000E+00 ymoment=   0.0000E+00 zmoment=   0.0000E+00
 nd#     169  xforce=   0.0000E+00   yforce=   0.0000E+00  zforce=   0.0000E+00   energy=   0.0000E+00   setid =     169 xmoment=   0.0000E+00 ymoment=   0.0000E+00 zmoment=   0.0000E+00
 nd#     170  xforce=   0.0000E+00   yforce=   0.0000E+00  zforce=   0.0000E+00   energy=   0.0000E+00   setid =     170 xmoment=   0.0000E+00 ymoment=   0.0000E+00 zmoment=   0.0000E+00
 nd#     197  xforce=   0.0000E+00   yforce=   0.0000E+00  zforce=   0.0000E+00   energy=   0.0000E+00   setid =     197 xmoment=   0.0000E+00 ymoment=   0.0000E+00 zmoment=   0.0000E+00
 nd#     198  xforce=   0.0000E+00   yforce=   0.0000E+00  zforce=   0.0000E+00   energy=   0.0000E+00   setid =     198 xmoment=   0.0000E+00 ymoment=   0.0000E+00 zmoment=   0.0000E+00
 nd#     225  xforce=   0.0000E+00   yforce=   0.0000E+00  zforce=   0.0000E+00   energy=   0.0000E+00   setid =     225 xmoment=   0.0000E+00 ymoment=   0.0000E+00 zmoment=   0.0000E+00
 nd#     226  xforce=   0.0000E+00   yforce=   0.0000E+00  zforce=   0.0000E+00   energy=   0.0000E+00   setid =     226 xmoment=   0.0000E+00 ymoment=   0.0000E+00 zmoment=   0.0000E+00
 nd#     279  xforce=   0.0000E+00   yforce=   0.0000E+00  zforce=   0.0000E+00   energy=   0.0000E+00   setid =     279 xmoment=   0.0000E+00 ymoment=   0.0000E+00 zmoment=   0.0000E+00
 nd#     280  xforce=   0.0000E+00   yforce=   0.0000E+00  zforce=   0.0000E+00   energy=   0.0000E+00   setid =     280 xmoment=   0.0000E+00 ymoment=   0.0000E+00 zmoment=   0.0000E+00
 nd#     281  xforce=   0.0000E+00   yforce=   0.0000E+00  zforce=   0.0000E+00   energy=   0.0000E+00   setid =     281 xmoment=   0.0000E+00 ymoment=   0.0000E+00 zmoment=   0.0000E+00
 nd#     282  xforce=   0.0000E+00   yforce=   0.0000E+00  zforce=   0.0000E+00   energy=   0.0000E+00   setid =     282 xmoment=   0.0000E+00 ymoment=   0.0000E+00 zmoment=   0.0000E+00
 nd#     296  xforce=   0.0000E+00   yforce=   0.0000E+00  zforce=   0.0000E+00   energy=   0.0000E+00   setid =     296 xmoment=   0.0000E+00 ymoment=   0.0000E+00 zmoment=   0.0000E+00
 nd#     323  xforce=   0.0000E+00   yforce=   0.0000E+00  zforce=   0.0000E+00   energy=   0.0000E+00   setid =     323 xmoment=   0.0000E+00 ymoment=   0.0000E+00 zmoment=   0.0000E+00
 nd#     324  xforce=   0.0000E+00   yforce=   0.0000E+00  zforce=   0.0000E+00   energy=   0.0000E+00   setid =     324 xmoment=   0.0000E+00 ymoment=   0.0000E+00 zmoment=   0.0000E+00
 nd#     338  xforce=   0.0000E+00   yforce=   0.0000E+00  zforce=   0.0000E+00   energy=   0.0000E+00   setid =     338 xmoment=   0.0000E+00 ymoment=   0.0000E+00 zmoment=   0.0000E+00
 nd#     352  xforce=   0.0000E+00   yforce=   0.0000E+00  zforce=   0.0000E+00   energy=   0.0000E+00   setid =     352 xmoment=   0.0000E+00 ymoment=   0.0000E+00 zmoment=   0.0000E+00
 nd#     366  xforce=   0.0000E+00   yforce=   0.0000E+00  zforce=   0.0000E+00   energy=   0.0000E+00   setid =     366 xmoment=   0.0000E+00 ymoment=   0.0000E+00 zmoment=   0.0000E+00
 nd#     380  xforce=   0.0000E+00   yforce=   0.0000E+00  zforce=   0.0000E+00   energy=   0.0000E+00   setid =     380 xmoment=   0.0000E+00 ymoment=   0.0000E+00 zmoment=   0.0000E+00
 nd#     608  xforce=   0.0000E+00   yforce=   0.0000E+00  zforce=   0.0000E+00   energy=   0.0000E+00   setid =     608 xmoment=   0.0000E+00 ymoment=   0.0000E+00 zmoment=   0.0000E+00
 nd#     609  xforce=   0.0000E+00   yforce=   0.0000E+00  zforce=   0.0000E+00   energy=   0.0000E+00   setid =     609 xmoment=   0.0000E+00 ymoment=   0.0000E+00 zmoment=   0.0000E+00
 nd#     610  xforce=   0.0000E+00   yforce=   0.0000E+00  zforce=   0.0000E+00   energy=   0.0000E+00   setid =     610 xmoment=   0.0000E+00 ymoment=   0.0000E+00 zmoment=   0.0000E+00
 nd#     611  xforce=   0.0000E+00   yforce=   0.0000E+00  zforce=   0.0000E+00   energy=   0.0000E+00   setid =     611 xmoment=   0.0000E+00 ymoment=   0.0000E+00 zmoment=   0.0000E+00
 nd#     804  xforce=   0.0000E+00   yforce=   0.0000E+00  zforce=   0.0000E+00   energy=   0.0000E+00   setid =     804 xmoment=   0.0000E+00 ymoment=   0.0000E+00 zmoment=   0.0000E+00
 nd#     806  xforce=   0.0000E+00   yforce=   0.0000E+00  zforce=   0.0000E+00   energy=   0.0000E+00   setid =     806 xmoment=   0.0000E+00 ymoment=   0.0000E+00 zmoment=   0.0000E+00
 nd#     808  xforce=   0.0000E+00   yforce=   0.0000E+00  zforce=   0.0000E+00   energy=   0.0000E+00   setid =     808 xmoment=   0.0000E+00 ymoment=   0.0000E+00 zmoment=   0.0000E+00
 nd#     810  xforce=   0.0000E+00   yforce=   0.0000E+00  zforce=   0.0000E+00   energy=   0.0000E+00   setid =     810 xmoment=   0.0000E+00 ymoment=   0.0000E+00 zmoment=   0.0000E+00
 nd#     852  xforce=   0.0000E+00   yforce=   0.0000E+00  zforce=   0.0000E+00   energy=   0.0000E+00   setid =     852 xmoment=   0.0000E+00 ymoment=   0.0000E+00 zmoment=   0.0000E+00
 nd#     854  xforce=   0.0000E+00   yforce=   0.0000E+00  zforce=   0.0000E+00   energy=   0.0000E+00   setid =     854 xmoment=   0.0000E+00 ymoment=   0.0000E+00 zmoment=   0.0000E+00
 nd#     856  xforce=   0.0000E+00   yforce=   0.0000E+00  zforce=   0.0000E+00   energy=   0.0000E+00   setid =     856 xmoment=   0.0000E+00 ymoment=   0.0000E+00 zmoment=   0.0000E+00
 nd#     858  xforce=   0.0000E+00   yforce=   0.0000E+00  zforce=   0.0000E+00   energy=   0.0000E+00   setid =     858 xmoment=   0.0000E+00 ymoment=   0.0000E+00 zmoment=   0.0000E+00
 nd#     864  xforce=   0.0000E+00   yforce=   0.0000E+00  zforce=   0.0000E+00   energy=   0.0000E+00   setid =     864 xmoment=   0.0000E+00 ymoment=   0.0000E+00 zmoment=   0.0000E+00
 nd#     866  xforce=   0.0000E+00   yforce=   0.0000E+00  zforce=   0.0000E+00   energy=   0.0000E+00   setid =     866 xmoment=   0.0000E+00 ymoment=   0.0000E+00 zmoment=   0.0000E+00
 nd#     868  xforce=   0.0000E+00   yforce=   0.0000E+00  zforce=   0.0000E+00   energy=   0.0000E+00   setid =     868 xmoment=   0.0000E+00 ymoment=   0.0000E+00 zmoment=   0.0000E+00
 nd#     870  xforce=   0.0000E+00   yforce=   0.0000E+00  zforce=   0.0000E+00   energy=   0.0000E+00   setid =     870 xmoment=   0.0000E+00 ymoment=   0.0000E+00 zmoment=   0.0000E+00
 nd#     880  xforce=   0.0000E+00   yforce=   0.0000E+00  zforce=   0.0000E+00   energy=   0.0000E+00   setid =     880 xmoment=   0.0000E+00 ymoment=   0.0000E+00 zmoment=   0.0000E+00
 nd#     882  xforce=   0.0000E+00   yforce=   0.0000E+00  zforce=   0.0000E+00   energy=   0.0000E+00   setid =     882 xmoment=   0.0000E+00 ymoment=   0.0000E+00 zmoment=   0.0000E+00
 nd#     884  xforce=   0.0000E+00   yforce=   0.0000E+00  zforce=   0.0000E+00   energy=   0.0000E+00   setid =     884 xmoment=   0.0000E+00 ymoment=   0.0000E+00 zmoment=   0.0000E+00
 nd#     886  xforce=   0.0000E+00   yforce=   0.0000E+00  zforce=   0.0000E+00   energy=   0.0000E+00   setid =     886 xmoment=   0.0000E+00 ymoment=   0.0000E+00 zmoment=   0.0000E+00
              xtotal=   0.0000E+00   ytotal=   0.0000E+00  ztotal=   0.0000E+00   etotal=   0.0000E+00

 n o d a l   f o r c e/e n e r g y    o u t p u t  t=   1.29245E+00

 velocity boundary condition forces/rigid body moments 

 nd#     167  xforce=   0.0000E+00   yforce=   0.0000E+00  zforce=  -1.9629E+01   energy=   1.2948E-04   setid =     167 xmoment=   0.0000E+00 ymoment=   0.0000E+00 zmoment=   0.0000E+00
 nd#     168  xforce=   0.0000E+00   yforce=   0.0000E+00  zforce=  -7.5835E+00   energy=   5.2779E-05   setid =     168 xmoment=   0.0000E+00 ymoment=   0.0000E+00 zmoment=   0.0000E+00
 nd#     169  xforce=   0.0000E+00   yforce=   0.0000E+00  zforce=  -1.8970E+01   energy=   1.2504E-04   setid =     169 xmoment=   0.0000E+00 ymoment=   0.0000E+00 zmoment=   0.0000E+00
 nd#     170  xforce=   0.0000E+00   yforce=   0.0000E+00  zforce=  -2.5137E+01   energy=   1.6290E-04   setid =     170 xmoment=   0.0000E+00 ymoment=   0.0000E+00 zmoment=   0.0000E+00
 nd#     197  xforce=   0.0000E+00   yforce=   0.0000E+00  zforce=  -1.1215E+01   energy=   7.8462E-05   setid =     197 xmoment=   0.0000E+00 ymoment=   0.0000E+00 zmoment=   0.0000E+00
 nd#     198  xforce=   0.0000E+00   yforce=   0.0000E+00  zforce=  -2.2603E+01   energy=   1.4710E-04   setid =     198 xmoment=   0.0000E+00 ymoment=   0.0000E+00 zmoment=   0.0000E+00
 nd#     225  xforce=   0.0000E+00   yforce=   0.0000E+00  zforce=  -1.4876E+01   energy=   9.1029E-05   setid =     225 xmoment=   0.0000E+00 ymoment=   0.0000E+00 zmoment=   0.0000E+00
 nd#     226  xforce=   0.0000E+00   yforce=   0.0000E+00  zforce=  -1.5586E+01   energy=   9.6948E-05   setid =     226 xmoment=   0.0000E+00 ymoment=   0.0000E+00 zmoment=   0.0000E+00
 nd#     279  xforce=   0.0000E+00   yforce=   0.0000E+00  zforce=  -1.2670E+01   energy=   7.7530E-05   setid =     279 xmoment=   0.0000E+00 ymoment=   0.0000E+00 zmoment=   0.0000E+00
 nd#     280  xforce=   0.0000E+00   yforce=   0.0000E+00  zforce=  -1.8958E+01   energy=   1.2389E-04   setid =     280 xmoment=   0.0000E+00 ymoment=   0.0000E+00 zmoment=   0.0000E+00
 nd#     281  xforce=   0.0000E+00   yforce=   0.0000E+00  zforce=  -1.5253E+01   energy=   9.3796E-05   setid =     281 xmoment=   0.0000E+00 ymoment=   0.0000E+00 zmoment=   0.0000E+00
 nd#     282  xforce=   0.0000E+00   yforce=   0.0000E+00  zforce=  -9.5185E+00   energy=   5.6606E-05   setid =     282 xmoment=   0.0000E+00 ymoment=   0.0000E+00 zmoment=   0.0000E+00
 nd#     296  xforce=   0.0000E+00   yforce=   0.0000E+00  zforce=  -1.1319E+01   energy=   7.0786E-05   setid =     296 xmoment=   0.0000E+00 ymoment=   0.0000E+00 zmoment=   0.0000E+00
 nd#     323  xforce=   0.0000E+00   yforce=   0.0000E+00  zforce=  -3.6241E+01   energy=   2.3393E-04   setid =     323 xmoment=   0.0000E+00 ymoment=   0.0000E+00 zmoment=   0.0000E+00
 nd#     324  xforce=   0.0000E+00   yforce=   0.0000E+00  zforce=  -3.5495E+01   energy=   2.2996E-04   setid =     324 xmoment=   0.0000E+00 ymoment=   0.0000E+00 zmoment=   0.0000E+00
 nd#     338  xforce=   0.0000E+00   yforce=   0.0000E+00  zforce=  -4.1347E+01   energy=   2.6452E-04   setid =     338 xmoment=   0.0000E+00 ymoment=   0.0000E+00 zmoment=   0.0000E+00
 nd#     352  xforce=   0.0000E+00   yforce=   0.0000E+00  zforce=  -1.5485E+01   energy=   9.7037E-05   setid =     352 xmoment=   0.0000E+00 ymoment=   0.0000E+00 zmoment=   0.0000E+00
 nd#     366  xforce=   0.0000E+00   yforce=   0.0000E+00  zforce=  -2.2797E+01   energy=   1.4320E-04   setid =     366 xmoment=   0.0000E+00 ymoment=   0.0000E+00 zmoment=   0.0000E+00
 nd#     380  xforce=   0.0000E+00   yforce=   0.0000E+00  zforce=  -2.0478E+01   energy=   1.3063E-04   setid =     380 xmoment=   0.0000E+00 ymoment=   0.0000E+00 zmoment=   0.0000E+00
 nd#     608  xforce=   0.0000E+00   yforce=   0.0000E+00  zforce=  -6.2165E+00   energy=   4.2474E-05   setid =     608 xmoment=   0.0000E+00 ymoment=   0.0000E+00 zmoment=   0.0000E+00
 nd#     609  xforce=   0.0000E+00   yforce=   0.0000E+00  zforce=  -3.1607E+01   energy=   2.0609E-04   setid =     609 xmoment=   0.0000E+00 ymoment=   0.0000E+00 zmoment=   0.0000E+00
 nd#     610  xforce=   0.0000E+00   yforce=   0.0000E+00  zforce=  -3.0589E+01   energy=   1.9717E-04   setid =     610 xmoment=   0.0000E+00 ymoment=   0.0000E+00 zmoment=   0.0000E+00
 nd#     611  xforce=   0.0000E+00   yforce=   0.0000E+00  zforce=  -2.7325E+01   energy=   1.7400E-04   setid =     611 xmoment=   0.0000E+00 ymoment=   0.0000E+00 zmoment=   0.0000E+00
 nd#     804  xforce=   0.0000E+00   yforce=   0.0000E+00  zforce=  -5.2597E+01   energy=   3.3871E-04   setid =     804 xmoment=   0.0000E+00 ymoment=   0.0000E+00 zmoment=   0.0000E+00
 nd#     806  xforce=   0.0000E+00   yforce=   0.0000E+00  zforce=  -4.9973E+01   energy=   3.2285E-04   setid =     806 xmoment=   0.0000E+00 ymoment=   0.0000E+00 zmoment=   0.0000E+00
 nd#     808  xforce=   0.0000E+00   yforce=   0.0000E+00  zforce=  -4.9991E+01   energy=   3.2289E-04   setid =     808 xmoment=   0.0000E+00 ymoment=   0.0000E+00 zmoment=   0.0000E+00
 nd#     810  xforce=   0.0000E+00   yforce=   0.0000E+00  zforce=  -2.6768E+01   energy=   1.7156E-04   setid =     810 xmoment=   0.0000E+00 ymoment=   0.0000E+00 zmoment=   0.0000E+00
 nd#     852  xforce=   0.0000E+00   yforce=   0.0000E+00  zforce=  -6.0583E+01   energy=   3.9257E-04   setid =     852 xmoment=   0.0000E+00 ymoment=   0.0000E+00 zmoment=   0.0000E+00
 nd#     854  xforce=   0.0000E+00   yforce=   0.0000E+00  zforce=  -5.9954E+01   energy=   3.8814E-04   setid =     854 xmoment=   0.0000E+00 ymoment=   0.0000E+00 zmoment=   0.0000E+00
 nd#     856  xforce=   0.0000E+00   yforce=   0.0000E+00  zforce=  -6.0071E+01   energy=   3.8826E-04   setid =     856 xmoment=   0.0000E+00 ymoment=   0.0000E+00 zmoment=   0.0000E+00
 nd#     858  xforce=   0.0000E+00   yforce=   0.0000E+00  zforce=  -3.1039E+01   energy=   1.9996E-04   setid =     858 xmoment=   0.0000E+00 ymoment=   0.0000E+00 zmoment=   0.0000E+00
 nd#     864  xforce=   0.0000E+00   yforce=   0.0000E+00  zforce=  -6.4465E+01   energy=   4.2043E-04   setid =     864 xmoment=   0.0000E+00 ymoment=   0.0000E+00 zmoment=   0.0000E+00
 nd#     866  xforce=   0.0000E+00   yforce=   0.0000E+00  zforce=  -6.6110E+01   energy=   4.2886E-04   setid =     866 xmoment=   0.0000E+00 ymoment=   0.0000E+00 zmoment=   0.0000E+00
 nd#     868  xforce=   0.0000E+00   yforce=   0.0000E+00  zforce=  -6.4892E+01   energy=   4.2134E-04   setid =     868 xmoment=   0.0000E+00 ymoment=   0.0000E+00 zmoment=   0.0000E+00
 nd#     870  xforce=   0.0000E+00   yforce=   0.0000E+00  zforce=  -3.2170E+01   energy=   2.0954E-04   setid =     870 xmoment=   0.0000E+00 ymoment=   0.0000E+00 zmoment=   0.0000E+00
 nd#     880  xforce=   0.0000E+00   yforce=   0.0000E+00  zforce=  -1.1561E+01   energy=   8.0707E-05   setid =     880 xmoment=   0.0000E+00 ymoment=   0.0000E+00 zmoment=   0.0000E+00
 nd#     882  xforce=   0.0000E+00   yforce=   0.0000E+00  zforce=  -9.6888E+00   energy=   6.9935E-05   setid =     882 xmoment=   0.0000E+00 ymoment=   0.0000E+00 zmoment=   0.0000E+00
 nd#     884  xforce=   0.0000E+00   yforce=   0.0000E+00  zforce=  -7.0027E+00   energy=   5.5152E-05   setid =     884 xmoment=   0.0000E+00 ymoment=   0.0000E+00 zmoment=   0.0000E+00
 nd#     886  xforce=   0.0000E+00   yforce=   0.0000E+00  zforce=  -2.9220E+00   energy=   2.4944E-05   setid =     886 xmoment=   0.0000E+00 ymoment=   0.0000E+00 zmoment=   0.0000E+00
              xtotal=   0.0000E+00   ytotal=   0.0000E+00  ztotal=  -1.1207E+03   etotal=   7.2612E-03

 n o d a l   f o r c e/e n e r g y    o u t p u t  t=   2.54839E+00

 velocity boundary condition forces/rigid body moments 

 nd#     167  xforce=   0.0000E+00   yforce=   0.0000E+00  zforce=  -3.7327E+01   energy=   4.8715E-04   setid =     167 xmoment=   0.0000E+00 ymoment=   0.0000E+00 zmoment=   0.0000E+00
 nd#     168  xforce=   0.0000E+00   yforce=   0.0000E+00  zforce=  -1.2755E+01   energy=   1.8050E-04   setid =     168 xmoment=   0.0000E+00 ymoment=   0.0000E+00 zmoment=   0.0000E+00
 nd#     169  xforce=   0.0000E+00   yforce=   0.0000E+00  zforce=  -3.3739E+01   energy=   4.5604E-04   setid =     169 xmoment=   0.0000E+00 ymoment=   0.0000E+00 zmoment=   0.0000E+00
 nd#     170  xforce=   0.0000E+00   yforce=   0.0000E+00  zforce=  -4.8162E+01   energy=   6.2320E-04   setid =     170 xmoment=   0.0000E+00 ymoment=   0.0000E+00 zmoment=   0.0000E+00
 nd#     197  xforce=   0.0000E+00   yforce=   0.0000E+00  zforce=  -1.9080E+01   energy=   2.6870E-04   setid =     197 xmoment=   0.0000E+00 ymoment=   0.0000E+00 zmoment=   0.0000E+00
 nd#     198  xforce=   0.0000E+00   yforce=   0.0000E+00  zforce=  -4.3622E+01   energy=   5.6298E-04   setid =     198 xmoment=   0.0000E+00 ymoment=   0.0000E+00 zmoment=   0.0000E+00
 nd#     225  xforce=   0.0000E+00   yforce=   0.0000E+00  zforce=  -3.2291E+01   energy=   3.8722E-04   setid =     225 xmoment=   0.0000E+00 ymoment=   0.0000E+00 zmoment=   0.0000E+00
 nd#     226  xforce=   0.0000E+00   yforce=   0.0000E+00  zforce=  -3.3288E+01   energy=   4.0386E-04   setid =     226 xmoment=   0.0000E+00 ymoment=   0.0000E+00 zmoment=   0.0000E+00
 nd#     279  xforce=   0.0000E+00   yforce=   0.0000E+00  zforce=  -2.8410E+01   energy=   3.3550E-04   setid =     279 xmoment=   0.0000E+00 ymoment=   0.0000E+00 zmoment=   0.0000E+00
 nd#     280  xforce=   0.0000E+00   yforce=   0.0000E+00  zforce=  -3.5432E+01   energy=   4.6544E-04   setid =     280 xmoment=   0.0000E+00 ymoment=   0.0000E+00 zmoment=   0.0000E+00
 nd#     281  xforce=   0.0000E+00   yforce=   0.0000E+00  zforce=  -3.2175E+01   energy=   3.9163E-04   setid =     281 xmoment=   0.0000E+00 ymoment=   0.0000E+00 zmoment=   0.0000E+00
 nd#     282  xforce=   0.0000E+00   yforce=   0.0000E+00  zforce=  -2.1959E+01   energy=   2.5427E-04   setid =     282 xmoment=   0.0000E+00 ymoment=   0.0000E+00 zmoment=   0.0000E+00
 nd#     296  xforce=   0.0000E+00   yforce=   0.0000E+00  zforce=  -2.4050E+01   energy=   2.9289E-04   setid =     296 xmoment=   0.0000E+00 ymoment=   0.0000E+00 zmoment=   0.0000E+00
 nd#     323  xforce=   0.0000E+00   yforce=   0.0000E+00  zforce=  -7.1359E+01   energy=   9.0963E-04   setid =     323 xmoment=   0.0000E+00 ymoment=   0.0000E+00 zmoment=   0.0000E+00
 nd#     324  xforce=   0.0000E+00   yforce=   0.0000E+00  zforce=  -6.9128E+01   energy=   8.8696E-04   setid =     324 xmoment=   0.0000E+00 ymoment=   0.0000E+00 zmoment=   0.0000E+00
 nd#     338  xforce=   0.0000E+00   yforce=   0.0000E+00  zforce=  -8.1522E+01   energy=   1.0361E-03   setid =     338 xmoment=   0.0000E+00 ymoment=   0.0000E+00 zmoment=   0.0000E+00
 nd#     352  xforce=   0.0000E+00   yforce=   0.0000E+00  zforce=  -3.2125E+01   energy=   3.9602E-04   setid =     352 xmoment=   0.0000E+00 ymoment=   0.0000E+00 zmoment=   0.0000E+00
 nd#     366  xforce=   0.0000E+00   yforce=   0.0000E+00  zforce=  -4.7193E+01   energy=   5.8272E-04   setid =     366 xmoment=   0.0000E+00 ymoment=   0.0000E+00 zmoment=   0.0000E+00
 nd#     380  xforce=   0.0000E+00   yforce=   0.0000E+00  zforce=  -4.1046E+01   energy=   5.1699E-04   setid =     380 xmoment=   0.0000E+00 ymoment=   0.0000E+00 zmoment=   0.0000E+00
 nd#     608  xforce=   0.0000E+00   yforce=   0.0000E+00  zforce=  -1.0921E+01   energy=   1.5010E-04   setid =     608 xmoment=   0.0000E+00 ymoment=   0.0000E+00 zmoment=   0.0000E+00
 nd#     609  xforce=   0.0000E+00   yforce=   0.0000E+00  zforce=  -6.0945E+01   energy=   7.8729E-04   setid =     609 xmoment=   0.0000E+00 ymoment=   0.0000E+00 zmoment=   0.0000E+00
 nd#     610  xforce=   0.0000E+00   yforce=   0.0000E+00  zforce=  -6.0223E+01   energy=   7.6744E-04   setid =     610 xmoment=   0.0000E+00 ymoment=   0.0000E+00 zmoment=   0.0000E+00
 nd#     611  xforce=   0.0000E+00   yforce=   0.0000E+00  zforce=  -5.5069E+01   energy=   6.9142E-04   setid =     611 xmoment=   0.0000E+00 ymoment=   0.0000E+00 zmoment=   0.0000E+00
 nd#     804  xforce=   0.0000E+00   yforce=   0.0000E+00  zforce=  -1.0282E+02   energy=   1.3147E-03   setid =     804 xmoment=   0.0000E+00 ymoment=   0.0000E+00 zmoment=   0.0000E+00
 nd#     806  xforce=   0.0000E+00   yforce=   0.0000E+00  zforce=  -9.8069E+01   energy=   1.2525E-03   setid =     806 xmoment=   0.0000E+00 ymoment=   0.0000E+00 zmoment=   0.0000E+00
 nd#     808  xforce=   0.0000E+00   yforce=   0.0000E+00  zforce=  -9.7980E+01   energy=   1.2521E-03   setid =     808 xmoment=   0.0000E+00 ymoment=   0.0000E+00 zmoment=   0.0000E+00
 nd#     810  xforce=   0.0000E+00   yforce=   0.0000E+00  zforce=  -5.3112E+01   energy=   6.7319E-04   setid =     810 xmoment=   0.0000E+00 ymoment=   0.0000E+00 zmoment=   0.0000E+00
 nd#     852  xforce=   0.0000E+00   yforce=   0.0000E+00  zforce=  -1.1737E+02   energy=   1.5101E-03   setid =     852 xmoment=   0.0000E+00 ymoment=   0.0000E+00 zmoment=   0.0000E+00
 nd#     854  xforce=   0.0000E+00   yforce=   0.0000E+00  zforce=  -1.1702E+02   energy=   1.4995E-03   setid =     854 xmoment=   0.0000E+00 ymoment=   0.0000E+00 zmoment=   0.0000E+00
 nd#     856  xforce=   0.0000E+00   yforce=   0.0000E+00  zforce=  -1.1767E+02   energy=   1.5044E-03   setid =     856 xmoment=   0.0000E+00 ymoment=   0.0000E+00 zmoment=   0.0000E+00
 nd#     858  xforce=   0.0000E+00   yforce=   0.0000E+00  zforce=  -6.0976E+01   energy=   7.7779E-04   setid =     858 xmoment=   0.0000E+00 ymoment=   0.0000E+00 zmoment=   0.0000E+00
 nd#     864  xforce=   0.0000E+00   yforce=   0.0000E+00  zforce=  -1.2367E+02   energy=   1.6018E-03   setid =     864 xmoment=   0.0000E+00 ymoment=   0.0000E+00 zmoment=   0.0000E+00
 nd#     866  xforce=   0.0000E+00   yforce=   0.0000E+00  zforce=  -1.2851E+02   energy=   1.6510E-03   setid =     866 xmoment=   0.0000E+00 ymoment=   0.0000E+00 zmoment=   0.0000E+00
 nd#     868  xforce=   0.0000E+00   yforce=   0.0000E+00  zforce=  -1.2615E+02   energy=   1.6210E-03   setid =     868 xmoment=   0.0000E+00 ymoment=   0.0000E+00 zmoment=   0.0000E+00
 nd#     870  xforce=   0.0000E+00   yforce=   0.0000E+00  zforce=  -6.1881E+01   energy=   8.0015E-04   setid =     870 xmoment=   0.0000E+00 ymoment=   0.0000E+00 zmoment=   0.0000E+00
 nd#     880  xforce=   0.0000E+00   yforce=   0.0000E+00  zforce=  -1.9210E+01   energy=   2.7394E-04   setid =     880 xmoment=   0.0000E+00 ymoment=   0.0000E+00 zmoment=   0.0000E+00
 nd#     882  xforce=   0.0000E+00   yforce=   0.0000E+00  zforce=  -1.5114E+01   energy=   2.2569E-04   setid =     882 xmoment=   0.0000E+00 ymoment=   0.0000E+00 zmoment=   0.0000E+00
 nd#     884  xforce=   0.0000E+00   yforce=   0.0000E+00  zforce=  -8.4298E+00   energy=   1.5206E-04   setid =     884 xmoment=   0.0000E+00 ymoment=   0.0000E+00 zmoment=   0.0000E+00
 nd#     886  xforce=   0.0000E+00   yforce=   0.0000E+00  zforce=  -2.1118E+00   energy=   5.6555E-05   setid =     886 xmoment=   0.0000E+00 ymoment=   0.0000E+00 zmoment=   0.0000E+00
              xtotal=   0.0000E+00   ytotal=   0.0000E+00  ztotal=  -2.1819E+03   etotal=   2.8001E-02

 n o d a l   f o r c e/e n e r g y    o u t p u t  t=   4.53893E+00

 velocity boundary condition forces/rigid body moments 

 nd#     167  xforce=   0.0000E+00   yforce=   0.0000E+00  zforce=  -1.2311E+02   energy=   2.0839E-03   setid =     167 xmoment=   0.0000E+00 ymoment=   0.0000E+00 zmoment=   0.0000E+00
 nd#     168  xforce=   0.0000E+00   yforce=   0.0000E+00  zforce=  -2.4806E+01   energy=   5.5434E-04   setid =     168 xmoment=   0.0000E+00 ymoment=   0.0000E+00 zmoment=   0.0000E+00
 nd#     169  xforce=   0.0000E+00   yforce=   0.0000E+00  zforce=   2.2096E+02   energy=  -1.4073E-03   setid =     169 xmoment=   0.0000E+00 ymoment=   0.0000E+00 zmoment=   0.0000E+00
 nd#     170  xforce=   0.0000E+00   yforce=   0.0000E+00  zforce=  -4.6457E+00   energy=   1.1488E-03   setid =     170 xmoment=   0.0000E+00 ymoment=   0.0000E+00 zmoment=   0.0000E+00
 nd#     197  xforce=   0.0000E+00   yforce=   0.0000E+00  zforce=  -2.6396E+01   energy=   7.2131E-04   setid =     197 xmoment=   0.0000E+00 ymoment=   0.0000E+00 zmoment=   0.0000E+00
 nd#     198  xforce=   0.0000E+00   yforce=   0.0000E+00  zforce=  -2.3205E+01   energy=   1.2281E-03   setid =     198 xmoment=   0.0000E+00 ymoment=   0.0000E+00 zmoment=   0.0000E+00
 nd#     225  xforce=   0.0000E+00   yforce=   0.0000E+00  zforce=  -1.0860E+02   energy=   1.7894E-03   setid =     225 xmoment=   0.0000E+00 ymoment=   0.0000E+00 zmoment=   0.0000E+00
 nd#     226  xforce=   0.0000E+00   yforce=   0.0000E+00  zforce=  -1.6809E+02   energy=   2.4082E-03   setid =     226 xmoment=   0.0000E+00 ymoment=   0.0000E+00 zmoment=   0.0000E+00
 nd#     279  xforce=   0.0000E+00   yforce=   0.0000E+00  zforce=  -2.0021E+02   energy=   2.6109E-03   setid =     279 xmoment=   0.0000E+00 ymoment=   0.0000E+00 zmoment=   0.0000E+00
 nd#     280  xforce=   0.0000E+00   yforce=   0.0000E+00  zforce=   9.6022E+01   energy=  -1.3759E-04   setid =     280 xmoment=   0.0000E+00 ymoment=   0.0000E+00 zmoment=   0.0000E+00
 nd#     281  xforce=   0.0000E+00   yforce=   0.0000E+00  zforce=  -2.2499E+01   energy=   9.3577E-04   setid =     281 xmoment=   0.0000E+00 ymoment=   0.0000E+00 zmoment=   0.0000E+00
 nd#     282  xforce=   0.0000E+00   yforce=   0.0000E+00  zforce=  -1.3632E+02   energy=   1.8296E-03   setid =     282 xmoment=   0.0000E+00 ymoment=   0.0000E+00 zmoment=   0.0000E+00
 nd#     296  xforce=   0.0000E+00   yforce=   0.0000E+00  zforce=  -1.1253E+02   energy=   1.6522E-03   setid =     296 xmoment=   0.0000E+00 ymoment=   0.0000E+00 zmoment=   0.0000E+00
 nd#     323  xforce=   0.0000E+00   yforce=   0.0000E+00  zforce=  -1.4412E+02   energy=   3.0542E-03   setid =     323 xmoment=   0.0000E+00 ymoment=   0.0000E+00 zmoment=   0.0000E+00
 nd#     324  xforce=   0.0000E+00   yforce=   0.0000E+00  zforce=  -6.6143E+01   energy=   2.2333E-03   setid =     324 xmoment=   0.0000E+00 ymoment=   0.0000E+00 zmoment=   0.0000E+00
 nd#     338  xforce=   0.0000E+00   yforce=   0.0000E+00  zforce=  -4.6654E+01   energy=   2.3118E-03   setid =     338 xmoment=   0.0000E+00 ymoment=   0.0000E+00 zmoment=   0.0000E+00
 nd#     352  xforce=   0.0000E+00   yforce=   0.0000E+00  zforce=  -8.9943E+01   energy=   1.6109E-03   setid =     352 xmoment=   0.0000E+00 ymoment=   0.0000E+00 zmoment=   0.0000E+00
 nd#     366  xforce=   0.0000E+00   yforce=   0.0000E+00  zforce=  -1.3194E+02   energy=   2.3656E-03   setid =     366 xmoment=   0.0000E+00 ymoment=   0.0000E+00 zmoment=   0.0000E+00
 nd#     380  xforce=   0.0000E+00   yforce=   0.0000E+00  zforce=  -7.8412E+01   energy=   1.7059E-03   setid =     380 xmoment=   0.0000E+00 ymoment=   0.0000E+00 zmoment=   0.0000E+00
 nd#     608  xforce=   0.0000E+00   yforce=   0.0000E+00  zforce=   5.6393E+00   energy=   2.0267E-04   setid =     608 xmoment=   0.0000E+00 ymoment=   0.0000E+00 zmoment=   0.0000E+00
 nd#     609  xforce=   0.0000E+00   yforce=   0.0000E+00  zforce=  -7.2237E+01   energy=   2.1128E-03   setid =     609 xmoment=   0.0000E+00 ymoment=   0.0000E+00 zmoment=   0.0000E+00
 nd#     610  xforce=   0.0000E+00   yforce=   0.0000E+00  zforce=  -9.5558E+01   energy=   2.3179E-03   setid =     610 xmoment=   0.0000E+00 ymoment=   0.0000E+00 zmoment=   0.0000E+00
 nd#     611  xforce=   0.0000E+00   yforce=   0.0000E+00  zforce=  -1.1462E+02   energy=   2.3802E-03   setid =     611 xmoment=   0.0000E+00 ymoment=   0.0000E+00 zmoment=   0.0000E+00
 nd#     804  xforce=   0.0000E+00   yforce=   0.0000E+00  zforce=  -7.9852E+01   energy=   3.1327E-03   setid =     804 xmoment=   0.0000E+00 ymoment=   0.0000E+00 zmoment=   0.0000E+00
 nd#     806  xforce=   0.0000E+00   yforce=   0.0000E+00  zforce=  -1.6366E+02   energy=   3.8574E-03   setid =     806 xmoment=   0.0000E+00 ymoment=   0.0000E+00 zmoment=   0.0000E+00
 nd#     808  xforce=   0.0000E+00   yforce=   0.0000E+00  zforce=  -1.3004E+02   energy=   3.5215E-03   setid =     808 xmoment=   0.0000E+00 ymoment=   0.0000E+00 zmoment=   0.0000E+00
 nd#     810  xforce=   0.0000E+00   yforce=   0.0000E+00  zforce=  -8.4446E+01   energy=   2.0423E-03   setid =     810 xmoment=   0.0000E+00 ymoment=   0.0000E+00 zmoment=   0.0000E+00
 nd#     852  xforce=   0.0000E+00   yforce=   0.0000E+00  zforce=  -1.0093E+02   energy=   3.6827E-03   setid =     852 xmoment=   0.0000E+00 ymoment=   0.0000E+00 zmoment=   0.0000E+00
 nd#     854  xforce=   0.0000E+00   yforce=   0.0000E+00  zforce=  -1.6577E+02   energy=   4.3139E-03   setid =     854 xmoment=   0.0000E+00 ymoment=   0.0000E+00 zmoment=   0.0000E+00
 nd#     856  xforce=   0.0000E+00   yforce=   0.0000E+00  zforce=  -1.6901E+02   energy=   4.3576E-03   setid =     856 xmoment=   0.0000E+00 ymoment=   0.0000E+00 zmoment=   0.0000E+00
 nd#     858  xforce=   0.0000E+00   yforce=   0.0000E+00  zforce=  -7.5267E+01   energy=   2.1338E-03   setid =     858 xmoment=   0.0000E+00 ymoment=   0.0000E+00 zmoment=   0.0000E+00
 nd#     864  xforce=   0.0000E+00   yforce=   0.0000E+00  zforce=  -9.8138E+01   energy=   3.8094E-03   setid =     864 xmoment=   0.0000E+00 ymoment=   0.0000E+00 zmoment=   0.0000E+00
 nd#     866  xforce=   0.0000E+00   yforce=   0.0000E+00  zforce=  -1.6286E+02   energy=   4.5509E-03   setid =     866 xmoment=   0.0000E+00 ymoment=   0.0000E+00 zmoment=   0.0000E+00
 nd#     868  xforce=   0.0000E+00   yforce=   0.0000E+00  zforce=  -1.6618E+02   energy=   4.5305E-03   setid =     868 xmoment=   0.0000E+00 ymoment=   0.0000E+00 zmoment=   0.0000E+00
 nd#     870  xforce=   0.0000E+00   yforce=   0.0000E+00  zforce=  -3.4596E+01   energy=   1.7604E-03   setid =     870 xmoment=   0.0000E+00 ymoment=   0.0000E+00 zmoment=   0.0000E+00
 nd#     880  xforce=   0.0000E+00   yforce=   0.0000E+00  zforce=   4.2456E+01   energy=   4.2582E-05   setid =     880 xmoment=   0.0000E+00 ymoment=   0.0000E+00 zmoment=   0.0000E+00
 nd#     882  xforce=   0.0000E+00   yforce=   0.0000E+00  zforce=   3.4861E+01   energy=   2.9156E-05   setid =     882 xmoment=   0.0000E+00 ymoment=   0.0000E+00 zmoment=   0.0000E+00
 nd#     884  xforce=   0.0000E+00   yforce=   0.0000E+00  zforce=   7.0883E+01   energy=  -4.6952E-04   setid =     884 xmoment=   0.0000E+00 ymoment=   0.0000E+00 zmoment=   0.0000E+00
 nd#     886  xforce=   0.0000E+00   yforce=   0.0000E+00  zforce=   6.4734E+01   energy=  -5.6671E-04   setid =     886 xmoment=   0.0000E+00 ymoment=   0.0000E+00 zmoment=   0.0000E+00
              xtotal=   0.0000E+00   ytotal=   0.0000E+00  ztotal=  -2.6852E+03   etotal=   7.6441E-02

 n o d a l   f o r c e/e n e r g y    o u t p u t  t=   6.52946E+00

 velocity boundary condition forces/rigid body moments 

 nd#     167  xforce=   0.0000E+00   yforce=   0.0000E+00  zforce=  -1.2710E+02   energy=   4.5742E-03   setid =     167 xmoment=   0.0000E+00 ymoment=   0.0000E+00 zmoment=   0.0000E+00
 nd#     168  xforce=   0.0000E+00   yforce=   0.0000E+00  zforce=  -2.8269E+01   energy=   1.0826E-03   setid =     168 xmoment=   0.0000E+00 ymoment=   0.0000E+00 zmoment=   0.0000E+00
 nd#     169  xforce=   0.0000E+00   yforce=   0.0000E+00  zforce=   2.4870E+02   energy=  -6.0817E-03   setid =     169 xmoment=   0.0000E+00 ymoment=   0.0000E+00 zmoment=   0.0000E+00
 nd#     170  xforce=   0.0000E+00   yforce=   0.0000E+00  zforce=  -1.2867E+00   energy=   1.2078E-03   setid =     170 xmoment=   0.0000E+00 ymoment=   0.0000E+00 zmoment=   0.0000E+00
 nd#     197  xforce=   0.0000E+00   yforce=   0.0000E+00  zforce=  -2.0382E+01   energy=   1.1869E-03   setid =     197 xmoment=   0.0000E+00 ymoment=   0.0000E+00 zmoment=   0.0000E+00
 nd#     198  xforce=   0.0000E+00   yforce=   0.0000E+00  zforce=  -3.3468E+01   energy=   1.7921E-03   setid =     198 xmoment=   0.0000E+00 ymoment=   0.0000E+00 zmoment=   0.0000E+00
 nd#     225  xforce=   0.0000E+00   yforce=   0.0000E+00  zforce=  -1.1854E+02   energy=   4.0501E-03   setid =     225 xmoment=   0.0000E+00 ymoment=   0.0000E+00 zmoment=   0.0000E+00
 nd#     226  xforce=   0.0000E+00   yforce=   0.0000E+00  zforce=  -1.7513E+02   energy=   5.8241E-03   setid =     226 xmoment=   0.0000E+00 ymoment=   0.0000E+00 zmoment=   0.0000E+00
 nd#     279  xforce=   0.0000E+00   yforce=   0.0000E+00  zforce=  -2.2422E+02   energy=   6.8351E-03   setid =     279 xmoment=   0.0000E+00 ymoment=   0.0000E+00 zmoment=   0.0000E+00
 nd#     280  xforce=   0.0000E+00   yforce=   0.0000E+00  zforce=   9.3567E+01   energy=  -2.0245E-03   setid =     280 xmoment=   0.0000E+00 ymoment=   0.0000E+00 zmoment=   0.0000E+00
 nd#     281  xforce=   0.0000E+00   yforce=   0.0000E+00  zforce=  -3.1662E+01   energy=   1.4748E-03   setid =     281 xmoment=   0.0000E+00 ymoment=   0.0000E+00 zmoment=   0.0000E+00
 nd#     282  xforce=   0.0000E+00   yforce=   0.0000E+00  zforce=  -1.5195E+02   energy=   4.6986E-03   setid =     282 xmoment=   0.0000E+00 ymoment=   0.0000E+00 zmoment=   0.0000E+00
 nd#     296  xforce=   0.0000E+00   yforce=   0.0000E+00  zforce=  -1.0665E+02   energy=   3.8336E-03   setid =     296 xmoment=   0.0000E+00 ymoment=   0.0000E+00 zmoment=   0.0000E+00
 nd#     323  xforce=   0.0000E+00   yforce=   0.0000E+00  zforce=  -1.5081E+02   energy=   5.9896E-03   setid =     323 xmoment=   0.0000E+00 ymoment=   0.0000E+00 zmoment=   0.0000E+00
 nd#     324  xforce=   0.0000E+00   yforce=   0.0000E+00  zforce=  -8.1101E+01   energy=   3.6988E-03   setid =     324 xmoment=   0.0000E+00 ymoment=   0.0000E+00 zmoment=   0.0000E+00
 nd#     338  xforce=   0.0000E+00   yforce=   0.0000E+00  zforce=  -5.6843E+01   energy=   3.3419E-03   setid =     338 xmoment=   0.0000E+00 ymoment=   0.0000E+00 zmoment=   0.0000E+00
 nd#     352  xforce=   0.0000E+00   yforce=   0.0000E+00  zforce=  -9.1721E+01   energy=   3.4190E-03   setid =     352 xmoment=   0.0000E+00 ymoment=   0.0000E+00 zmoment=   0.0000E+00
 nd#     366  xforce=   0.0000E+00   yforce=   0.0000E+00  zforce=  -1.3928E+02   energy=   5.0649E-03   setid =     366 xmoment=   0.0000E+00 ymoment=   0.0000E+00 zmoment=   0.0000E+00
 nd#     380  xforce=   0.0000E+00   yforce=   0.0000E+00  zforce=  -8.0805E+01   energy=   3.2905E-03   setid =     380 xmoment=   0.0000E+00 ymoment=   0.0000E+00 zmoment=   0.0000E+00
 nd#     608  xforce=   0.0000E+00   yforce=   0.0000E+00  zforce=   5.0026E+00   energy=   9.6753E-05   setid =     608 xmoment=   0.0000E+00 ymoment=   0.0000E+00 zmoment=   0.0000E+00
 nd#     609  xforce=   0.0000E+00   yforce=   0.0000E+00  zforce=  -7.7211E+01   energy=   3.6002E-03   setid =     609 xmoment=   0.0000E+00 ymoment=   0.0000E+00 zmoment=   0.0000E+00
 nd#     610  xforce=   0.0000E+00   yforce=   0.0000E+00  zforce=  -9.9887E+01   energy=   4.2631E-03   setid =     610 xmoment=   0.0000E+00 ymoment=   0.0000E+00 zmoment=   0.0000E+00
 nd#     611  xforce=   0.0000E+00   yforce=   0.0000E+00  zforce=  -1.2055E+02   energy=   4.7207E-03   setid =     611 xmoment=   0.0000E+00 ymoment=   0.0000E+00 zmoment=   0.0000E+00
 nd#     804  xforce=   0.0000E+00   yforce=   0.0000E+00  zforce=  -8.8936E+01   energy=   4.8126E-03   setid =     804 xmoment=   0.0000E+00 ymoment=   0.0000E+00 zmoment=   0.0000E+00
 nd#     806  xforce=   0.0000E+00   yforce=   0.0000E+00  zforce=  -1.6978E+02   energy=   7.1760E-03   setid =     806 xmoment=   0.0000E+00 ymoment=   0.0000E+00 zmoment=   0.0000E+00
 nd#     808  xforce=   0.0000E+00   yforce=   0.0000E+00  zforce=  -1.4494E+02   energy=   6.2583E-03   setid =     808 xmoment=   0.0000E+00 ymoment=   0.0000E+00 zmoment=   0.0000E+00
 nd#     810  xforce=   0.0000E+00   yforce=   0.0000E+00  zforce=  -8.7128E+01   energy=   3.7499E-03   setid =     810 xmoment=   0.0000E+00 ymoment=   0.0000E+00 zmoment=   0.0000E+00
 nd#     852  xforce=   0.0000E+00   yforce=   0.0000E+00  zforce=  -1.0924E+02   energy=   5.7745E-03   setid =     852 xmoment=   0.0000E+00 ymoment=   0.0000E+00 zmoment=   0.0000E+00
 nd#     854  xforce=   0.0000E+00   yforce=   0.0000E+00  zforce=  -1.7420E+02   energy=   7.6975E-03   setid =     854 xmoment=   0.0000E+00 ymoment=   0.0000E+00 zmoment=   0.0000E+00
 nd#     856  xforce=   0.0000E+00   yforce=   0.0000E+00  zforce=  -1.8350E+02   energy=   7.8660E-03   setid =     856 xmoment=   0.0000E+00 ymoment=   0.0000E+00 zmoment=   0.0000E+00
 nd#     858  xforce=   0.0000E+00   yforce=   0.0000E+00  zforce=  -7.6932E+01   energy=   3.6486E-03   setid =     858 xmoment=   0.0000E+00 ymoment=   0.0000E+00 zmoment=   0.0000E+00
 nd#     864  xforce=   0.0000E+00   yforce=   0.0000E+00  zforce=  -1.0625E+02   energy=   5.8435E-03   setid =     864 xmoment=   0.0000E+00 ymoment=   0.0000E+00 zmoment=   0.0000E+00
 nd#     866  xforce=   0.0000E+00   yforce=   0.0000E+00  zforce=  -1.7375E+02   energy=   7.9011E-03   setid =     866 xmoment=   0.0000E+00 ymoment=   0.0000E+00 zmoment=   0.0000E+00
 nd#     868  xforce=   0.0000E+00   yforce=   0.0000E+00  zforce=  -1.7316E+02   energy=   7.9078E-03   setid =     868 xmoment=   0.0000E+00 ymoment=   0.0000E+00 zmoment=   0.0000E+00
 nd#     870  xforce=   0.0000E+00   yforce=   0.0000E+00  zforce=  -3.2569E+01   energy=   2.4288E-03   setid =     870 xmoment=   0.0000E+00 ymoment=   0.0000E+00 zmoment=   0.0000E+00
 nd#     880  xforce=   0.0000E+00   yforce=   0.0000E+00  zforce=   4.3899E+01   energy=  -8.1687E-04   setid =     880 xmoment=   0.0000E+00 ymoment=   0.0000E+00 zmoment=   0.0000E+00
 nd#     882  xforce=   0.0000E+00   yforce=   0.0000E+00  zforce=   3.6071E+01   energy=  -6.7681E-04   setid =     882 xmoment=   0.0000E+00 ymoment=   0.0000E+00 zmoment=   0.0000E+00
 nd#     884  xforce=   0.0000E+00   yforce=   0.0000E+00  zforce=   7.6183E+01   energy=  -1.9332E-03   setid =     884 xmoment=   0.0000E+00 ymoment=   0.0000E+00 zmoment=   0.0000E+00
 nd#     886  xforce=   0.0000E+00   yforce=   0.0000E+00  zforce=   6.8296E+01   energy=  -1.8907E-03   setid =     886 xmoment=   0.0000E+00 ymoment=   0.0000E+00 zmoment=   0.0000E+00
              xtotal=   0.0000E+00   ytotal=   0.0000E+00  ztotal=  -2.8655E+03   etotal=   1.3169E-01

 n o d a l   f o r c e/e n e r g y    o u t p u t  t=   8.52000E+00

 velocity boundary condition forces/rigid body moments 

 nd#     167  xforce=   0.0000E+00   yforce=   0.0000E+00  zforce=  -1.3303E+02   energy=   7.1632E-03   setid =     167 xmoment=   0.0000E+00 ymoment=   0.0000E+00 zmoment=   0.0000E+00
 nd#     168  xforce=   0.0000E+00   yforce=   0.0000E+00  zforce=  -2.9182E+01   energy=   1.6544E-03   setid =     168 xmoment=   0.0000E+00 ymoment=   0.0000E+00 zmoment=   0.0000E+00
 nd#     169  xforce=   0.0000E+00   yforce=   0.0000E+00  zforce=   2.5576E+02   energy=  -1.1102E-02   setid =     169 xmoment=   0.0000E+00 ymoment=   0.0000E+00 zmoment=   0.0000E+00
 nd#     170  xforce=   0.0000E+00   yforce=   0.0000E+00  zforce=  -1.1197E+01   energy=   1.3321E-03   setid =     170 xmoment=   0.0000E+00 ymoment=   0.0000E+00 zmoment=   0.0000E+00
 nd#     197  xforce=   0.0000E+00   yforce=   0.0000E+00  zforce=  -1.2588E+01   energy=   1.5150E-03   setid =     197 xmoment=   0.0000E+00 ymoment=   0.0000E+00 zmoment=   0.0000E+00
 nd#     198  xforce=   0.0000E+00   yforce=   0.0000E+00  zforce=  -3.1293E+01   energy=   2.4367E-03   setid =     198 xmoment=   0.0000E+00 ymoment=   0.0000E+00 zmoment=   0.0000E+00
 nd#     225  xforce=   0.0000E+00   yforce=   0.0000E+00  zforce=  -1.3565E+02   energy=   6.5800E-03   setid =     225 xmoment=   0.0000E+00 ymoment=   0.0000E+00 zmoment=   0.0000E+00
 nd#     226  xforce=   0.0000E+00   yforce=   0.0000E+00  zforce=  -1.7641E+02   energy=   9.3229E-03   setid =     226 xmoment=   0.0000E+00 ymoment=   0.0000E+00 zmoment=   0.0000E+00
 nd#     279  xforce=   0.0000E+00   yforce=   0.0000E+00  zforce=  -2.2477E+02   energy=   1.1304E-02   setid =     279 xmoment=   0.0000E+00 ymoment=   0.0000E+00 zmoment=   0.0000E+00
 nd#     280  xforce=   0.0000E+00   yforce=   0.0000E+00  zforce=   8.7941E+01   energy=  -3.8310E-03   setid =     280 xmoment=   0.0000E+00 ymoment=   0.0000E+00 zmoment=   0.0000E+00
 nd#     281  xforce=   0.0000E+00   yforce=   0.0000E+00  zforce=  -4.2342E+01   energy=   2.2113E-03   setid =     281 xmoment=   0.0000E+00 ymoment=   0.0000E+00 zmoment=   0.0000E+00
 nd#     282  xforce=   0.0000E+00   yforce=   0.0000E+00  zforce=  -1.5401E+02   energy=   7.7438E-03   setid =     282 xmoment=   0.0000E+00 ymoment=   0.0000E+00 zmoment=   0.0000E+00
 nd#     296  xforce=   0.0000E+00   yforce=   0.0000E+00  zforce=  -1.0664E+02   energy=   5.9564E-03   setid =     296 xmoment=   0.0000E+00 ymoment=   0.0000E+00 zmoment=   0.0000E+00
 nd#     323  xforce=   0.0000E+00   yforce=   0.0000E+00  zforce=  -1.5417E+02   energy=   9.0250E-03   setid =     323 xmoment=   0.0000E+00 ymoment=   0.0000E+00 zmoment=   0.0000E+00
 nd#     324  xforce=   0.0000E+00   yforce=   0.0000E+00  zforce=  -8.4219E+01   energy=   5.3441E-03   setid =     324 xmoment=   0.0000E+00 ymoment=   0.0000E+00 zmoment=   0.0000E+00
 nd#     338  xforce=   0.0000E+00   yforce=   0.0000E+00  zforce=  -7.0657E+01   energy=   4.6109E-03   setid =     338 xmoment=   0.0000E+00 ymoment=   0.0000E+00 zmoment=   0.0000E+00
 nd#     352  xforce=   0.0000E+00   yforce=   0.0000E+00  zforce=  -9.4985E+01   energy=   5.2772E-03   setid =     352 xmoment=   0.0000E+00 ymoment=   0.0000E+00 zmoment=   0.0000E+00
 nd#     366  xforce=   0.0000E+00   yforce=   0.0000E+00  zforce=  -1.4391E+02   energy=   7.8835E-03   setid =     366 xmoment=   0.0000E+00 ymoment=   0.0000E+00 zmoment=   0.0000E+00
 nd#     380  xforce=   0.0000E+00   yforce=   0.0000E+00  zforce=  -8.6588E+01   energy=   4.9566E-03   setid =     380 xmoment=   0.0000E+00 ymoment=   0.0000E+00 zmoment=   0.0000E+00
 nd#     608  xforce=   0.0000E+00   yforce=   0.0000E+00  zforce=   6.7895E+00   energy=  -2.0610E-05   setid =     608 xmoment=   0.0000E+00 ymoment=   0.0000E+00 zmoment=   0.0000E+00
 nd#     609  xforce=   0.0000E+00   yforce=   0.0000E+00  zforce=  -7.8628E+01   energy=   5.1512E-03   setid =     609 xmoment=   0.0000E+00 ymoment=   0.0000E+00 zmoment=   0.0000E+00
 nd#     610  xforce=   0.0000E+00   yforce=   0.0000E+00  zforce=  -1.0422E+02   energy=   6.2945E-03   setid =     610 xmoment=   0.0000E+00 ymoment=   0.0000E+00 zmoment=   0.0000E+00
 nd#     611  xforce=   0.0000E+00   yforce=   0.0000E+00  zforce=  -1.2479E+02   energy=   7.1625E-03   setid =     611 xmoment=   0.0000E+00 ymoment=   0.0000E+00 zmoment=   0.0000E+00
 nd#     804  xforce=   0.0000E+00   yforce=   0.0000E+00  zforce=  -1.0192E+02   energy=   6.7122E-03   setid =     804 xmoment=   0.0000E+00 ymoment=   0.0000E+00 zmoment=   0.0000E+00
 nd#     806  xforce=   0.0000E+00   yforce=   0.0000E+00  zforce=  -1.7668E+02   energy=   1.0624E-02   setid =     806 xmoment=   0.0000E+00 ymoment=   0.0000E+00 zmoment=   0.0000E+00
 nd#     808  xforce=   0.0000E+00   yforce=   0.0000E+00  zforce=  -1.5142E+02   energy=   9.2079E-03   setid =     808 xmoment=   0.0000E+00 ymoment=   0.0000E+00 zmoment=   0.0000E+00
 nd#     810  xforce=   0.0000E+00   yforce=   0.0000E+00  zforce=  -9.2646E+01   energy=   5.5391E-03   setid =     810 xmoment=   0.0000E+00 ymoment=   0.0000E+00 zmoment=   0.0000E+00
 nd#     852  xforce=   0.0000E+00   yforce=   0.0000E+00  zforce=  -1.2141E+02   energy=   8.0701E-03   setid =     852 xmoment=   0.0000E+00 ymoment=   0.0000E+00 zmoment=   0.0000E+00
 nd#     854  xforce=   0.0000E+00   yforce=   0.0000E+00  zforce=  -1.8277E+02   energy=   1.1250E-02   setid =     854 xmoment=   0.0000E+00 ymoment=   0.0000E+00 zmoment=   0.0000E+00
 nd#     856  xforce=   0.0000E+00   yforce=   0.0000E+00  zforce=  -1.9011E+02   energy=   1.1584E-02   setid =     856 xmoment=   0.0000E+00 ymoment=   0.0000E+00 zmoment=   0.0000E+00
 nd#     858  xforce=   0.0000E+00   yforce=   0.0000E+00  zforce=  -8.1463E+01   energy=   5.2250E-03   setid =     858 xmoment=   0.0000E+00 ymoment=   0.0000E+00 zmoment=   0.0000E+00
 nd#     864  xforce=   0.0000E+00   yforce=   0.0000E+00  zforce=  -1.1419E+02   energy=   8.0375E-03   setid =     864 xmoment=   0.0000E+00 ymoment=   0.0000E+00 zmoment=   0.0000E+00
 nd#     866  xforce=   0.0000E+00   yforce=   0.0000E+00  zforce=  -1.8179E+02   energy=   1.1440E-02   setid =     866 xmoment=   0.0000E+00 ymoment=   0.0000E+00 zmoment=   0.0000E+00
 nd#     868  xforce=   0.0000E+00   yforce=   0.0000E+00  zforce=  -1.7653E+02   energy=   1.1388E-02   setid =     868 xmoment=   0.0000E+00 ymoment=   0.0000E+00 zmoment=   0.0000E+00
 nd#     870  xforce=   0.0000E+00   yforce=   0.0000E+00  zforce=  -3.7722E+01   energy=   3.1284E-03   setid =     870 xmoment=   0.0000E+00 ymoment=   0.0000E+00 zmoment=   0.0000E+00
 nd#     880  xforce=   0.0000E+00   yforce=   0.0000E+00  zforce=   4.7614E+01   energy=  -1.7277E-03   setid =     880 xmoment=   0.0000E+00 ymoment=   0.0000E+00 zmoment=   0.0000E+00
 nd#     882  xforce=   0.0000E+00   yforce=   0.0000E+00  zforce=   4.3511E+01   energy=  -1.4689E-03   setid =     882 xmoment=   0.0000E+00 ymoment=   0.0000E+00 zmoment=   0.0000E+00
 nd#     884  xforce=   0.0000E+00   yforce=   0.0000E+00  zforce=   8.6615E+01   energy=  -3.5535E-03   setid =     884 xmoment=   0.0000E+00 ymoment=   0.0000E+00 zmoment=   0.0000E+00
 nd#     886  xforce=   0.0000E+00   yforce=   0.0000E+00  zforce=   7.0212E+01   energy=  -3.2693E-03   setid =     886 xmoment=   0.0000E+00 ymoment=   0.0000E+00 zmoment=   0.0000E+00
              xtotal=   0.0000E+00   ytotal=   0.0000E+00  ztotal=  -3.0095E+03   etotal=   1.9016E-01

 n o d a l   f o r c e/e n e r g y    o u t p u t  t=   1.16748E+01

 velocity boundary condition forces/rigid body moments 

 nd#     167  xforce=   0.0000E+00   yforce=   0.0000E+00  zforce=  -1.4774E+02   energy=   1.1592E-02   setid =     167 xmoment=   0.0000E+00 ymoment=   0.0000E+00 zmoment=   0.0000E+00
 nd#     168  xforce=   0.0000E+00   yforce=   0.0000E+00  zforce=  -3.1508E+01   energy=   2.6117E-03   setid =     168 xmoment=   0.0000E+00 ymoment=   0.0000E+00 zmoment=   0.0000E+00
 nd#     169  xforce=   0.0000E+00   yforce=   0.0000E+00  zforce=   2.6119E+02   energy=  -1.9257E-02   setid =     169 xmoment=   0.0000E+00 ymoment=   0.0000E+00 zmoment=   0.0000E+00
 nd#     170  xforce=   0.0000E+00   yforce=   0.0000E+00  zforce=  -2.8495E+00   energy=   1.5536E-03   setid =     170 xmoment=   0.0000E+00 ymoment=   0.0000E+00 zmoment=   0.0000E+00
 nd#     197  xforce=   0.0000E+00   yforce=   0.0000E+00  zforce=  -9.5578E+00   energy=   1.8643E-03   setid =     197 xmoment=   0.0000E+00 ymoment=   0.0000E+00 zmoment=   0.0000E+00
 nd#     198  xforce=   0.0000E+00   yforce=   0.0000E+00  zforce=  -3.9056E+01   energy=   3.5464E-03   setid =     198 xmoment=   0.0000E+00 ymoment=   0.0000E+00 zmoment=   0.0000E+00
 nd#     225  xforce=   0.0000E+00   yforce=   0.0000E+00  zforce=  -1.4839E+02   energy=   1.1060E-02   setid =     225 xmoment=   0.0000E+00 ymoment=   0.0000E+00 zmoment=   0.0000E+00
 nd#     226  xforce=   0.0000E+00   yforce=   0.0000E+00  zforce=  -1.9090E+02   energy=   1.5117E-02   setid =     226 xmoment=   0.0000E+00 ymoment=   0.0000E+00 zmoment=   0.0000E+00
 nd#     279  xforce=   0.0000E+00   yforce=   0.0000E+00  zforce=  -2.4505E+02   energy=   1.8715E-02   setid =     279 xmoment=   0.0000E+00 ymoment=   0.0000E+00 zmoment=   0.0000E+00
 nd#     280  xforce=   0.0000E+00   yforce=   0.0000E+00  zforce=   9.3271E+01   energy=  -6.6894E-03   setid =     280 xmoment=   0.0000E+00 ymoment=   0.0000E+00 zmoment=   0.0000E+00
 nd#     281  xforce=   0.0000E+00   yforce=   0.0000E+00  zforce=  -4.8214E+01   energy=   3.6398E-03   setid =     281 xmoment=   0.0000E+00 ymoment=   0.0000E+00 zmoment=   0.0000E+00
 nd#     282  xforce=   0.0000E+00   yforce=   0.0000E+00  zforce=  -1.6779E+02   energy=   1.2820E-02   setid =     282 xmoment=   0.0000E+00 ymoment=   0.0000E+00 zmoment=   0.0000E+00
 nd#     296  xforce=   0.0000E+00   yforce=   0.0000E+00  zforce=  -1.1069E+02   energy=   9.3844E-03   setid =     296 xmoment=   0.0000E+00 ymoment=   0.0000E+00 zmoment=   0.0000E+00
 nd#     323  xforce=   0.0000E+00   yforce=   0.0000E+00  zforce=  -1.7991E+02   energy=   1.4295E-02   setid =     323 xmoment=   0.0000E+00 ymoment=   0.0000E+00 zmoment=   0.0000E+00
 nd#     324  xforce=   0.0000E+00   yforce=   0.0000E+00  zforce=  -9.6844E+01   energy=   8.2002E-03   setid =     324 xmoment=   0.0000E+00 ymoment=   0.0000E+00 zmoment=   0.0000E+00
 nd#     338  xforce=   0.0000E+00   yforce=   0.0000E+00  zforce=  -8.1801E+01   energy=   7.0157E-03   setid =     338 xmoment=   0.0000E+00 ymoment=   0.0000E+00 zmoment=   0.0000E+00
 nd#     352  xforce=   0.0000E+00   yforce=   0.0000E+00  zforce=  -1.0244E+02   energy=   8.3913E-03   setid =     352 xmoment=   0.0000E+00 ymoment=   0.0000E+00 zmoment=   0.0000E+00
 nd#     366  xforce=   0.0000E+00   yforce=   0.0000E+00  zforce=  -1.5482E+02   energy=   1.2596E-02   setid =     366 xmoment=   0.0000E+00 ymoment=   0.0000E+00 zmoment=   0.0000E+00
 nd#     380  xforce=   0.0000E+00   yforce=   0.0000E+00  zforce=  -9.2809E+01   energy=   7.7863E-03   setid =     380 xmoment=   0.0000E+00 ymoment=   0.0000E+00 zmoment=   0.0000E+00
 nd#     608  xforce=   0.0000E+00   yforce=   0.0000E+00  zforce=   7.0535E+00   energy=  -2.3897E-04   setid =     608 xmoment=   0.0000E+00 ymoment=   0.0000E+00 zmoment=   0.0000E+00
 nd#     609  xforce=   0.0000E+00   yforce=   0.0000E+00  zforce=  -8.6941E+01   energy=   7.7629E-03   setid =     609 xmoment=   0.0000E+00 ymoment=   0.0000E+00 zmoment=   0.0000E+00
 nd#     610  xforce=   0.0000E+00   yforce=   0.0000E+00  zforce=  -1.1243E+02   energy=   9.7120E-03   setid =     610 xmoment=   0.0000E+00 ymoment=   0.0000E+00 zmoment=   0.0000E+00
 nd#     611  xforce=   0.0000E+00   yforce=   0.0000E+00  zforce=  -1.3481E+02   energy=   1.1257E-02   setid =     611 xmoment=   0.0000E+00 ymoment=   0.0000E+00 zmoment=   0.0000E+00
 nd#     804  xforce=   0.0000E+00   yforce=   0.0000E+00  zforce=  -1.1245E+02   energy=   1.0094E-02   setid =     804 xmoment=   0.0000E+00 ymoment=   0.0000E+00 zmoment=   0.0000E+00
 nd#     806  xforce=   0.0000E+00   yforce=   0.0000E+00  zforce=  -2.0128E+02   energy=   1.6586E-02   setid =     806 xmoment=   0.0000E+00 ymoment=   0.0000E+00 zmoment=   0.0000E+00
 nd#     808  xforce=   0.0000E+00   yforce=   0.0000E+00  zforce=  -1.7318E+02   energy=   1.4328E-02   setid =     808 xmoment=   0.0000E+00 ymoment=   0.0000E+00 zmoment=   0.0000E+00
 nd#     810  xforce=   0.0000E+00   yforce=   0.0000E+00  zforce=  -9.6244E+01   energy=   8.5187E-03   setid =     810 xmoment=   0.0000E+00 ymoment=   0.0000E+00 zmoment=   0.0000E+00
 nd#     852  xforce=   0.0000E+00   yforce=   0.0000E+00  zforce=  -1.2882E+02   energy=   1.2017E-02   setid =     852 xmoment=   0.0000E+00 ymoment=   0.0000E+00 zmoment=   0.0000E+00
 nd#     854  xforce=   0.0000E+00   yforce=   0.0000E+00  zforce=  -2.0424E+02   energy=   1.7355E-02   setid =     854 xmoment=   0.0000E+00 ymoment=   0.0000E+00 zmoment=   0.0000E+00
 nd#     856  xforce=   0.0000E+00   yforce=   0.0000E+00  zforce=  -2.0736E+02   energy=   1.7854E-02   setid =     856 xmoment=   0.0000E+00 ymoment=   0.0000E+00 zmoment=   0.0000E+00
 nd#     858  xforce=   0.0000E+00   yforce=   0.0000E+00  zforce=  -8.4669E+01   energy=   7.8456E-03   setid =     858 xmoment=   0.0000E+00 ymoment=   0.0000E+00 zmoment=   0.0000E+00
 nd#     864  xforce=   0.0000E+00   yforce=   0.0000E+00  zforce=  -1.2473E+02   energy=   1.1806E-02   setid =     864 xmoment=   0.0000E+00 ymoment=   0.0000E+00 zmoment=   0.0000E+00
 nd#     866  xforce=   0.0000E+00   yforce=   0.0000E+00  zforce=  -2.0521E+02   energy=   1.7544E-02   setid =     866 xmoment=   0.0000E+00 ymoment=   0.0000E+00 zmoment=   0.0000E+00
 nd#     868  xforce=   0.0000E+00   yforce=   0.0000E+00  zforce=  -1.8854E+02   energy=   1.7147E-02   setid =     868 xmoment=   0.0000E+00 ymoment=   0.0000E+00 zmoment=   0.0000E+00
 nd#     870  xforce=   0.0000E+00   yforce=   0.0000E+00  zforce=  -3.9332E+01   energy=   4.3439E-03   setid =     870 xmoment=   0.0000E+00 ymoment=   0.0000E+00 zmoment=   0.0000E+00
 nd#     880  xforce=   0.0000E+00   yforce=   0.0000E+00  zforce=   5.1587E+01   energy=  -3.2925E-03   setid =     880 xmoment=   0.0000E+00 ymoment=   0.0000E+00 zmoment=   0.0000E+00
 nd#     882  xforce=   0.0000E+00   yforce=   0.0000E+00  zforce=   4.4567E+01   energy=  -2.8582E-03   setid =     882 xmoment=   0.0000E+00 ymoment=   0.0000E+00 zmoment=   0.0000E+00
 nd#     884  xforce=   0.0000E+00   yforce=   0.0000E+00  zforce=   9.8398E+01   energy=  -6.4719E-03   setid =     884 xmoment=   0.0000E+00 ymoment=   0.0000E+00 zmoment=   0.0000E+00
 nd#     886  xforce=   0.0000E+00   yforce=   0.0000E+00  zforce=   7.5027E+01   energy=  -5.5603E-03   setid =     886 xmoment=   0.0000E+00 ymoment=   0.0000E+00 zmoment=   0.0000E+00
              xtotal=   0.0000E+00   ytotal=   0.0000E+00  ztotal=  -3.3195E+03   etotal=   2.8999E-01

 n o d a l   f o r c e/e n e r g y    o u t p u t  t=   1.48296E+01

 velocity boundary condition forces/rigid body moments 

 nd#     167  xforce=   0.0000E+00   yforce=   0.0000E+00  zforce=  -1.5444E+02   energy=   1.6359E-02   setid =     167 xmoment=   0.0000E+00 ymoment=   0.0000E+00 zmoment=   0.0000E+00
 nd#     168  xforce=   0.0000E+00   yforce=   0.0000E+00  zforce=  -3.1435E+01   energy=   3.6045E-03   setid =     168 xmoment=   0.0000E+00 ymoment=   0.0000E+00 zmoment=   0.0000E+00
 nd#     169  xforce=   0.0000E+00   yforce=   0.0000E+00  zforce=   2.5684E+02   energy=  -2.7428E-02   setid =     169 xmoment=   0.0000E+00 ymoment=   0.0000E+00 zmoment=   0.0000E+00
 nd#     170  xforce=   0.0000E+00   yforce=   0.0000E+00  zforce=  -9.4018E+00   energy=   1.7469E-03   setid =     170 xmoment=   0.0000E+00 ymoment=   0.0000E+00 zmoment=   0.0000E+00
 nd#     197  xforce=   0.0000E+00   yforce=   0.0000E+00  zforce=  -4.3844E+00   energy=   2.0843E-03   setid =     197 xmoment=   0.0000E+00 ymoment=   0.0000E+00 zmoment=   0.0000E+00
 nd#     198  xforce=   0.0000E+00   yforce=   0.0000E+00  zforce=  -4.1578E+01   energy=   4.8183E-03   setid =     198 xmoment=   0.0000E+00 ymoment=   0.0000E+00 zmoment=   0.0000E+00
 nd#     225  xforce=   0.0000E+00   yforce=   0.0000E+00  zforce=  -1.5130E+02   energy=   1.5788E-02   setid =     225 xmoment=   0.0000E+00 ymoment=   0.0000E+00 zmoment=   0.0000E+00
 nd#     226  xforce=   0.0000E+00   yforce=   0.0000E+00  zforce=  -1.9474E+02   energy=   2.1200E-02   setid =     226 xmoment=   0.0000E+00 ymoment=   0.0000E+00 zmoment=   0.0000E+00
 nd#     279  xforce=   0.0000E+00   yforce=   0.0000E+00  zforce=  -2.4778E+02   energy=   2.6489E-02   setid =     279 xmoment=   0.0000E+00 ymoment=   0.0000E+00 zmoment=   0.0000E+00
 nd#     280  xforce=   0.0000E+00   yforce=   0.0000E+00  zforce=   9.0988E+01   energy=  -9.5959E-03   setid =     280 xmoment=   0.0000E+00 ymoment=   0.0000E+00 zmoment=   0.0000E+00
 nd#     281  xforce=   0.0000E+00   yforce=   0.0000E+00  zforce=  -5.8802E+01   energy=   5.3278E-03   setid =     281 xmoment=   0.0000E+00 ymoment=   0.0000E+00 zmoment=   0.0000E+00
 nd#     282  xforce=   0.0000E+00   yforce=   0.0000E+00  zforce=  -1.7079E+02   energy=   1.8161E-02   setid =     282 xmoment=   0.0000E+00 ymoment=   0.0000E+00 zmoment=   0.0000E+00
 nd#     296  xforce=   0.0000E+00   yforce=   0.0000E+00  zforce=  -1.0864E+02   energy=   1.2844E-02   setid =     296 xmoment=   0.0000E+00 ymoment=   0.0000E+00 zmoment=   0.0000E+00
 nd#     323  xforce=   0.0000E+00   yforce=   0.0000E+00  zforce=  -1.8791E+02   energy=   2.0097E-02   setid =     323 xmoment=   0.0000E+00 ymoment=   0.0000E+00 zmoment=   0.0000E+00
 nd#     324  xforce=   0.0000E+00   yforce=   0.0000E+00  zforce=  -1.0816E+02   energy=   1.1434E-02   setid =     324 xmoment=   0.0000E+00 ymoment=   0.0000E+00 zmoment=   0.0000E+00
 nd#     338  xforce=   0.0000E+00   yforce=   0.0000E+00  zforce=  -9.1117E+01   energy=   9.7433E-03   setid =     338 xmoment=   0.0000E+00 ymoment=   0.0000E+00 zmoment=   0.0000E+00
 nd#     352  xforce=   0.0000E+00   yforce=   0.0000E+00  zforce=  -1.0296E+02   energy=   1.1631E-02   setid =     352 xmoment=   0.0000E+00 ymoment=   0.0000E+00 zmoment=   0.0000E+00
 nd#     366  xforce=   0.0000E+00   yforce=   0.0000E+00  zforce=  -1.5617E+02   energy=   1.7501E-02   setid =     366 xmoment=   0.0000E+00 ymoment=   0.0000E+00 zmoment=   0.0000E+00
 nd#     380  xforce=   0.0000E+00   yforce=   0.0000E+00  zforce=  -9.4966E+01   energy=   1.0748E-02   setid =     380 xmoment=   0.0000E+00 ymoment=   0.0000E+00 zmoment=   0.0000E+00
 nd#     608  xforce=   0.0000E+00   yforce=   0.0000E+00  zforce=   8.5615E+00   energy=  -4.8528E-04   setid =     608 xmoment=   0.0000E+00 ymoment=   0.0000E+00 zmoment=   0.0000E+00
 nd#     609  xforce=   0.0000E+00   yforce=   0.0000E+00  zforce=  -8.7790E+01   energy=   1.0519E-02   setid =     609 xmoment=   0.0000E+00 ymoment=   0.0000E+00 zmoment=   0.0000E+00
 nd#     610  xforce=   0.0000E+00   yforce=   0.0000E+00  zforce=  -1.1389E+02   energy=   1.3282E-02   setid =     610 xmoment=   0.0000E+00 ymoment=   0.0000E+00 zmoment=   0.0000E+00
 nd#     611  xforce=   0.0000E+00   yforce=   0.0000E+00  zforce=  -1.3575E+02   energy=   1.5525E-02   setid =     611 xmoment=   0.0000E+00 ymoment=   0.0000E+00 zmoment=   0.0000E+00
 nd#     804  xforce=   0.0000E+00   yforce=   0.0000E+00  zforce=  -1.2070E+02   energy=   1.3771E-02   setid =     804 xmoment=   0.0000E+00 ymoment=   0.0000E+00 zmoment=   0.0000E+00
 nd#     806  xforce=   0.0000E+00   yforce=   0.0000E+00  zforce=  -2.1014E+02   energy=   2.3076E-02   setid =     806 xmoment=   0.0000E+00 ymoment=   0.0000E+00 zmoment=   0.0000E+00
 nd#     808  xforce=   0.0000E+00   yforce=   0.0000E+00  zforce=  -1.8001E+02   energy=   1.9899E-02   setid =     808 xmoment=   0.0000E+00 ymoment=   0.0000E+00 zmoment=   0.0000E+00
 nd#     810  xforce=   0.0000E+00   yforce=   0.0000E+00  zforce=  -9.5711E+01   energy=   1.1547E-02   setid =     810 xmoment=   0.0000E+00 ymoment=   0.0000E+00 zmoment=   0.0000E+00
 nd#     852  xforce=   0.0000E+00   yforce=   0.0000E+00  zforce=  -1.3602E+02   energy=   1.6195E-02   setid =     852 xmoment=   0.0000E+00 ymoment=   0.0000E+00 zmoment=   0.0000E+00
 nd#     854  xforce=   0.0000E+00   yforce=   0.0000E+00  zforce=  -2.1391E+02   energy=   2.3951E-02   setid =     854 xmoment=   0.0000E+00 ymoment=   0.0000E+00 zmoment=   0.0000E+00
 nd#     856  xforce=   0.0000E+00   yforce=   0.0000E+00  zforce=  -2.1681E+02   energy=   2.4545E-02   setid =     856 xmoment=   0.0000E+00 ymoment=   0.0000E+00 zmoment=   0.0000E+00
 nd#     858  xforce=   0.0000E+00   yforce=   0.0000E+00  zforce=  -8.5467E+01   energy=   1.0529E-02   setid =     858 xmoment=   0.0000E+00 ymoment=   0.0000E+00 zmoment=   0.0000E+00
 nd#     864  xforce=   0.0000E+00   yforce=   0.0000E+00  zforce=  -1.3070E+02   energy=   1.5836E-02   setid =     864 xmoment=   0.0000E+00 ymoment=   0.0000E+00 zmoment=   0.0000E+00
 nd#     866  xforce=   0.0000E+00   yforce=   0.0000E+00  zforce=  -2.1386E+02   energy=   2.4155E-02   setid =     866 xmoment=   0.0000E+00 ymoment=   0.0000E+00 zmoment=   0.0000E+00
 nd#     868  xforce=   0.0000E+00   yforce=   0.0000E+00  zforce=  -1.8971E+02   energy=   2.3113E-02   setid =     868 xmoment=   0.0000E+00 ymoment=   0.0000E+00 zmoment=   0.0000E+00
 nd#     870  xforce=   0.0000E+00   yforce=   0.0000E+00  zforce=  -3.8430E+01   energy=   5.5705E-03   setid =     870 xmoment=   0.0000E+00 ymoment=   0.0000E+00 zmoment=   0.0000E+00
 nd#     880  xforce=   0.0000E+00   yforce=   0.0000E+00  zforce=   5.5167E+01   energy=  -4.9764E-03   setid =     880 xmoment=   0.0000E+00 ymoment=   0.0000E+00 zmoment=   0.0000E+00
 nd#     882  xforce=   0.0000E+00   yforce=   0.0000E+00  zforce=   4.9509E+01   energy=  -4.3422E-03   setid =     882 xmoment=   0.0000E+00 ymoment=   0.0000E+00 zmoment=   0.0000E+00
 nd#     884  xforce=   0.0000E+00   yforce=   0.0000E+00  zforce=   1.0564E+02   energy=  -9.6904E-03   setid =     884 xmoment=   0.0000E+00 ymoment=   0.0000E+00 zmoment=   0.0000E+00
 nd#     886  xforce=   0.0000E+00   yforce=   0.0000E+00  zforce=   7.8303E+01   energy=  -7.9789E-03   setid =     886 xmoment=   0.0000E+00 ymoment=   0.0000E+00 zmoment=   0.0000E+00
              xtotal=   0.0000E+00   ytotal=   0.0000E+00  ztotal=  -3.4385E+03   etotal=   3.9659E-01

 n o d a l   f o r c e/e n e r g y    o u t p u t  t=   1.79844E+01

 velocity boundary condition forces/rigid body moments 

 nd#     167  xforce=   0.0000E+00   yforce=   0.0000E+00  zforce=  -1.5279E+02   energy=   2.1205E-02   setid =     167 xmoment=   0.0000E+00 ymoment=   0.0000E+00 zmoment=   0.0000E+00
 nd#     168  xforce=   0.0000E+00   yforce=   0.0000E+00  zforce=  -3.3009E+01   energy=   4.6211E-03   setid =     168 xmoment=   0.0000E+00 ymoment=   0.0000E+00 zmoment=   0.0000E+00
 nd#     169  xforce=   0.0000E+00   yforce=   0.0000E+00  zforce=   2.3681E+02   energy=  -3.5215E-02   setid =     169 xmoment=   0.0000E+00 ymoment=   0.0000E+00 zmoment=   0.0000E+00
 nd#     170  xforce=   0.0000E+00   yforce=   0.0000E+00  zforce=  -1.5011E+01   energy=   2.1320E-03   setid =     170 xmoment=   0.0000E+00 ymoment=   0.0000E+00 zmoment=   0.0000E+00
 nd#     197  xforce=   0.0000E+00   yforce=   0.0000E+00  zforce=  -6.7624E-01   energy=   2.1641E-03   setid =     197 xmoment=   0.0000E+00 ymoment=   0.0000E+00 zmoment=   0.0000E+00
 nd#     198  xforce=   0.0000E+00   yforce=   0.0000E+00  zforce=  -4.4251E+01   energy=   6.1721E-03   setid =     198 xmoment=   0.0000E+00 ymoment=   0.0000E+00 zmoment=   0.0000E+00
 nd#     225  xforce=   0.0000E+00   yforce=   0.0000E+00  zforce=  -1.2964E+02   energy=   2.0219E-02   setid =     225 xmoment=   0.0000E+00 ymoment=   0.0000E+00 zmoment=   0.0000E+00
 nd#     226  xforce=   0.0000E+00   yforce=   0.0000E+00  zforce=  -1.7730E+02   energy=   2.7068E-02   setid =     226 xmoment=   0.0000E+00 ymoment=   0.0000E+00 zmoment=   0.0000E+00
 nd#     279  xforce=   0.0000E+00   yforce=   0.0000E+00  zforce=  -2.2036E+02   energy=   3.3873E-02   setid =     279 xmoment=   0.0000E+00 ymoment=   0.0000E+00 zmoment=   0.0000E+00
 nd#     280  xforce=   0.0000E+00   yforce=   0.0000E+00  zforce=   6.9366E+01   energy=  -1.2125E-02   setid =     280 xmoment=   0.0000E+00 ymoment=   0.0000E+00 zmoment=   0.0000E+00
 nd#     281  xforce=   0.0000E+00   yforce=   0.0000E+00  zforce=  -7.1616E+01   energy=   7.3850E-03   setid =     281 xmoment=   0.0000E+00 ymoment=   0.0000E+00 zmoment=   0.0000E+00
 nd#     282  xforce=   0.0000E+00   yforce=   0.0000E+00  zforce=  -1.5893E+02   energy=   2.3362E-02   setid =     282 xmoment=   0.0000E+00 ymoment=   0.0000E+00 zmoment=   0.0000E+00
 nd#     296  xforce=   0.0000E+00   yforce=   0.0000E+00  zforce=  -9.9484E+01   energy=   1.6127E-02   setid =     296 xmoment=   0.0000E+00 ymoment=   0.0000E+00 zmoment=   0.0000E+00
 nd#     323  xforce=   0.0000E+00   yforce=   0.0000E+00  zforce=  -1.8597E+02   energy=   2.5994E-02   setid =     323 xmoment=   0.0000E+00 ymoment=   0.0000E+00 zmoment=   0.0000E+00
 nd#     324  xforce=   0.0000E+00   yforce=   0.0000E+00  zforce=  -1.1067E+02   energy=   1.4886E-02   setid =     324 xmoment=   0.0000E+00 ymoment=   0.0000E+00 zmoment=   0.0000E+00
 nd#     338  xforce=   0.0000E+00   yforce=   0.0000E+00  zforce=  -9.8022E+01   energy=   1.2727E-02   setid =     338 xmoment=   0.0000E+00 ymoment=   0.0000E+00 zmoment=   0.0000E+00
 nd#     352  xforce=   0.0000E+00   yforce=   0.0000E+00  zforce=  -9.9312E+01   energy=   1.4822E-02   setid =     352 xmoment=   0.0000E+00 ymoment=   0.0000E+00 zmoment=   0.0000E+00
 nd#     366  xforce=   0.0000E+00   yforce=   0.0000E+00  zforce=  -1.4762E+02   energy=   2.2293E-02   setid =     366 xmoment=   0.0000E+00 ymoment=   0.0000E+00 zmoment=   0.0000E+00
 nd#     380  xforce=   0.0000E+00   yforce=   0.0000E+00  zforce=  -9.1459E+01   energy=   1.3689E-02   setid =     380 xmoment=   0.0000E+00 ymoment=   0.0000E+00 zmoment=   0.0000E+00
 nd#     608  xforce=   0.0000E+00   yforce=   0.0000E+00  zforce=   8.8350E+00   energy=  -7.5969E-04   setid =     608 xmoment=   0.0000E+00 ymoment=   0.0000E+00 zmoment=   0.0000E+00
 nd#     609  xforce=   0.0000E+00   yforce=   0.0000E+00  zforce=  -8.6538E+01   energy=   1.3269E-02   setid =     609 xmoment=   0.0000E+00 ymoment=   0.0000E+00 zmoment=   0.0000E+00
 nd#     610  xforce=   0.0000E+00   yforce=   0.0000E+00  zforce=  -1.1060E+02   energy=   1.6823E-02   setid =     610 xmoment=   0.0000E+00 ymoment=   0.0000E+00 zmoment=   0.0000E+00
 nd#     611  xforce=   0.0000E+00   yforce=   0.0000E+00  zforce=  -1.2909E+02   energy=   1.9703E-02   setid =     611 xmoment=   0.0000E+00 ymoment=   0.0000E+00 zmoment=   0.0000E+00
 nd#     804  xforce=   0.0000E+00   yforce=   0.0000E+00  zforce=  -1.2318E+02   energy=   1.7618E-02   setid =     804 xmoment=   0.0000E+00 ymoment=   0.0000E+00 zmoment=   0.0000E+00
 nd#     806  xforce=   0.0000E+00   yforce=   0.0000E+00  zforce=  -2.0581E+02   energy=   2.9637E-02   setid =     806 xmoment=   0.0000E+00 ymoment=   0.0000E+00 zmoment=   0.0000E+00
 nd#     808  xforce=   0.0000E+00   yforce=   0.0000E+00  zforce=  -1.7878E+02   energy=   2.5559E-02   setid =     808 xmoment=   0.0000E+00 ymoment=   0.0000E+00 zmoment=   0.0000E+00
 nd#     810  xforce=   0.0000E+00   yforce=   0.0000E+00  zforce=  -9.3759E+01   energy=   1.4535E-02   setid =     810 xmoment=   0.0000E+00 ymoment=   0.0000E+00 zmoment=   0.0000E+00
 nd#     852  xforce=   0.0000E+00   yforce=   0.0000E+00  zforce=  -1.3919E+02   energy=   2.0536E-02   setid =     852 xmoment=   0.0000E+00 ymoment=   0.0000E+00 zmoment=   0.0000E+00
 nd#     854  xforce=   0.0000E+00   yforce=   0.0000E+00  zforce=  -2.1139E+02   energy=   3.0659E-02   setid =     854 xmoment=   0.0000E+00 ymoment=   0.0000E+00 zmoment=   0.0000E+00
 nd#     856  xforce=   0.0000E+00   yforce=   0.0000E+00  zforce=  -2.1531E+02   energy=   3.1361E-02   setid =     856 xmoment=   0.0000E+00 ymoment=   0.0000E+00 zmoment=   0.0000E+00
 nd#     858  xforce=   0.0000E+00   yforce=   0.0000E+00  zforce=  -8.3622E+01   energy=   1.3196E-02   setid =     858 xmoment=   0.0000E+00 ymoment=   0.0000E+00 zmoment=   0.0000E+00
 nd#     864  xforce=   0.0000E+00   yforce=   0.0000E+00  zforce=  -1.3276E+02   energy=   1.9991E-02   setid =     864 xmoment=   0.0000E+00 ymoment=   0.0000E+00 zmoment=   0.0000E+00
 nd#     866  xforce=   0.0000E+00   yforce=   0.0000E+00  zforce=  -2.1236E+02   energy=   3.0878E-02   setid =     866 xmoment=   0.0000E+00 ymoment=   0.0000E+00 zmoment=   0.0000E+00
 nd#     868  xforce=   0.0000E+00   yforce=   0.0000E+00  zforce=  -1.9067E+02   energy=   2.9113E-02   setid =     868 xmoment=   0.0000E+00 ymoment=   0.0000E+00 zmoment=   0.0000E+00
 nd#     870  xforce=   0.0000E+00   yforce=   0.0000E+00  zforce=  -3.8644E+01   energy=   6.7862E-03   setid =     870 xmoment=   0.0000E+00 ymoment=   0.0000E+00 zmoment=   0.0000E+00
 nd#     880  xforce=   0.0000E+00   yforce=   0.0000E+00  zforce=   5.3486E+01   energy=  -6.6903E-03   setid =     880 xmoment=   0.0000E+00 ymoment=   0.0000E+00 zmoment=   0.0000E+00
 nd#     882  xforce=   0.0000E+00   yforce=   0.0000E+00  zforce=   4.7812E+01   energy=  -5.8773E-03   setid =     882 xmoment=   0.0000E+00 ymoment=   0.0000E+00 zmoment=   0.0000E+00
 nd#     884  xforce=   0.0000E+00   yforce=   0.0000E+00  zforce=   1.0184E+02   energy=  -1.2963E-02   setid =     884 xmoment=   0.0000E+00 ymoment=   0.0000E+00 zmoment=   0.0000E+00
 nd#     886  xforce=   0.0000E+00   yforce=   0.0000E+00  zforce=   7.6338E+01   energy=  -1.0418E-02   setid =     886 xmoment=   0.0000E+00 ymoment=   0.0000E+00 zmoment=   0.0000E+00
              xtotal=   0.0000E+00   ytotal=   0.0000E+00  ztotal=  -3.3933E+03   etotal=   5.0436E-01

 n o d a l   f o r c e/e n e r g y    o u t p u t  t=   2.11391E+01

 velocity boundary condition forces/rigid body moments 

 nd#     167  xforce=   0.0000E+00   yforce=   0.0000E+00  zforce=  -1.5338E+02   energy=   2.6034E-02   setid =     167 xmoment=   0.0000E+00 ymoment=   0.0000E+00 zmoment=   0.0000E+00
 nd#     168  xforce=   0.0000E+00   yforce=   0.0000E+00  zforce=  -3.6117E+01   energy=   5.7115E-03   setid =     168 xmoment=   0.0000E+00 ymoment=   0.0000E+00 zmoment=   0.0000E+00
 nd#     169  xforce=   0.0000E+00   yforce=   0.0000E+00  zforce=   2.1048E+02   energy=  -4.2271E-02   setid =     169 xmoment=   0.0000E+00 ymoment=   0.0000E+00 zmoment=   0.0000E+00
 nd#     170  xforce=   0.0000E+00   yforce=   0.0000E+00  zforce=  -1.8265E+01   energy=   2.6569E-03   setid =     170 xmoment=   0.0000E+00 ymoment=   0.0000E+00 zmoment=   0.0000E+00
 nd#     197  xforce=   0.0000E+00   yforce=   0.0000E+00  zforce=   1.0122E+01   energy=   2.0151E-03   setid =     197 xmoment=   0.0000E+00 ymoment=   0.0000E+00 zmoment=   0.0000E+00
 nd#     198  xforce=   0.0000E+00   yforce=   0.0000E+00  zforce=  -4.0977E+01   energy=   7.5165E-03   setid =     198 xmoment=   0.0000E+00 ymoment=   0.0000E+00 zmoment=   0.0000E+00
 nd#     225  xforce=   0.0000E+00   yforce=   0.0000E+00  zforce=  -1.0956E+02   energy=   2.3992E-02   setid =     225 xmoment=   0.0000E+00 ymoment=   0.0000E+00 zmoment=   0.0000E+00
 nd#     226  xforce=   0.0000E+00   yforce=   0.0000E+00  zforce=  -1.5898E+02   energy=   3.2373E-02   setid =     226 xmoment=   0.0000E+00 ymoment=   0.0000E+00 zmoment=   0.0000E+00
 nd#     279  xforce=   0.0000E+00   yforce=   0.0000E+00  zforce=  -1.8953E+02   energy=   4.0339E-02   setid =     279 xmoment=   0.0000E+00 ymoment=   0.0000E+00 zmoment=   0.0000E+00
 nd#     280  xforce=   0.0000E+00   yforce=   0.0000E+00  zforce=   5.2851E+01   energy=  -1.4053E-02   setid =     280 xmoment=   0.0000E+00 ymoment=   0.0000E+00 zmoment=   0.0000E+00
 nd#     281  xforce=   0.0000E+00   yforce=   0.0000E+00  zforce=  -8.2613E+01   energy=   9.8178E-03   setid =     281 xmoment=   0.0000E+00 ymoment=   0.0000E+00 zmoment=   0.0000E+00
 nd#     282  xforce=   0.0000E+00   yforce=   0.0000E+00  zforce=  -1.4288E+02   energy=   2.8123E-02   setid =     282 xmoment=   0.0000E+00 ymoment=   0.0000E+00 zmoment=   0.0000E+00
 nd#     296  xforce=   0.0000E+00   yforce=   0.0000E+00  zforce=  -9.0467E+01   energy=   1.9123E-02   setid =     296 xmoment=   0.0000E+00 ymoment=   0.0000E+00 zmoment=   0.0000E+00
 nd#     323  xforce=   0.0000E+00   yforce=   0.0000E+00  zforce=  -1.8389E+02   energy=   3.1829E-02   setid =     323 xmoment=   0.0000E+00 ymoment=   0.0000E+00 zmoment=   0.0000E+00
 nd#     324  xforce=   0.0000E+00   yforce=   0.0000E+00  zforce=  -1.0710E+02   energy=   1.8321E-02   setid =     324 xmoment=   0.0000E+00 ymoment=   0.0000E+00 zmoment=   0.0000E+00
 nd#     338  xforce=   0.0000E+00   yforce=   0.0000E+00  zforce=  -9.7577E+01   energy=   1.5812E-02   setid =     338 xmoment=   0.0000E+00 ymoment=   0.0000E+00 zmoment=   0.0000E+00
 nd#     352  xforce=   0.0000E+00   yforce=   0.0000E+00  zforce=  -9.4697E+01   energy=   1.7882E-02   setid =     352 xmoment=   0.0000E+00 ymoment=   0.0000E+00 zmoment=   0.0000E+00
 nd#     366  xforce=   0.0000E+00   yforce=   0.0000E+00  zforce=  -1.3494E+02   energy=   2.6750E-02   setid =     366 xmoment=   0.0000E+00 ymoment=   0.0000E+00 zmoment=   0.0000E+00
 nd#     380  xforce=   0.0000E+00   yforce=   0.0000E+00  zforce=  -8.6386E+01   energy=   1.6494E-02   setid =     380 xmoment=   0.0000E+00 ymoment=   0.0000E+00 zmoment=   0.0000E+00
 nd#     608  xforce=   0.0000E+00   yforce=   0.0000E+00  zforce=   1.0906E+01   energy=  -1.0711E-03   setid =     608 xmoment=   0.0000E+00 ymoment=   0.0000E+00 zmoment=   0.0000E+00
 nd#     609  xforce=   0.0000E+00   yforce=   0.0000E+00  zforce=  -8.2032E+01   energy=   1.5928E-02   setid =     609 xmoment=   0.0000E+00 ymoment=   0.0000E+00 zmoment=   0.0000E+00
 nd#     610  xforce=   0.0000E+00   yforce=   0.0000E+00  zforce=  -1.0375E+02   energy=   2.0204E-02   setid =     610 xmoment=   0.0000E+00 ymoment=   0.0000E+00 zmoment=   0.0000E+00
 nd#     611  xforce=   0.0000E+00   yforce=   0.0000E+00  zforce=  -1.1911E+02   energy=   2.3618E-02   setid =     611 xmoment=   0.0000E+00 ymoment=   0.0000E+00 zmoment=   0.0000E+00
 nd#     804  xforce=   0.0000E+00   yforce=   0.0000E+00  zforce=  -1.1898E+02   energy=   2.1438E-02   setid =     804 xmoment=   0.0000E+00 ymoment=   0.0000E+00 zmoment=   0.0000E+00
 nd#     806  xforce=   0.0000E+00   yforce=   0.0000E+00  zforce=  -1.9938E+02   energy=   3.6029E-02   setid =     806 xmoment=   0.0000E+00 ymoment=   0.0000E+00 zmoment=   0.0000E+00
 nd#     808  xforce=   0.0000E+00   yforce=   0.0000E+00  zforce=  -1.7197E+02   energy=   3.1092E-02   setid =     808 xmoment=   0.0000E+00 ymoment=   0.0000E+00 zmoment=   0.0000E+00
 nd#     810  xforce=   0.0000E+00   yforce=   0.0000E+00  zforce=  -8.7078E+01   energy=   1.7388E-02   setid =     810 xmoment=   0.0000E+00 ymoment=   0.0000E+00 zmoment=   0.0000E+00
 nd#     852  xforce=   0.0000E+00   yforce=   0.0000E+00  zforce=  -1.3461E+02   energy=   2.4855E-02   setid =     852 xmoment=   0.0000E+00 ymoment=   0.0000E+00 zmoment=   0.0000E+00
 nd#     854  xforce=   0.0000E+00   yforce=   0.0000E+00  zforce=  -2.0411E+02   energy=   3.7213E-02   setid =     854 xmoment=   0.0000E+00 ymoment=   0.0000E+00 zmoment=   0.0000E+00
 nd#     856  xforce=   0.0000E+00   yforce=   0.0000E+00  zforce=  -2.0922E+02   energy=   3.8058E-02   setid =     856 xmoment=   0.0000E+00 ymoment=   0.0000E+00 zmoment=   0.0000E+00
 nd#     858  xforce=   0.0000E+00   yforce=   0.0000E+00  zforce=  -7.8368E+01   energy=   1.5752E-02   setid =     858 xmoment=   0.0000E+00 ymoment=   0.0000E+00 zmoment=   0.0000E+00
 nd#     864  xforce=   0.0000E+00   yforce=   0.0000E+00  zforce=  -1.2739E+02   energy=   2.4095E-02   setid =     864 xmoment=   0.0000E+00 ymoment=   0.0000E+00 zmoment=   0.0000E+00
 nd#     866  xforce=   0.0000E+00   yforce=   0.0000E+00  zforce=  -2.0521E+02   energy=   3.7464E-02   setid =     866 xmoment=   0.0000E+00 ymoment=   0.0000E+00 zmoment=   0.0000E+00
 nd#     868  xforce=   0.0000E+00   yforce=   0.0000E+00  zforce=  -1.8562E+02   energy=   3.5049E-02   setid =     868 xmoment=   0.0000E+00 ymoment=   0.0000E+00 zmoment=   0.0000E+00
 nd#     870  xforce=   0.0000E+00   yforce=   0.0000E+00  zforce=  -3.3608E+01   energy=   7.9259E-03   setid =     870 xmoment=   0.0000E+00 ymoment=   0.0000E+00 zmoment=   0.0000E+00
 nd#     880  xforce=   0.0000E+00   yforce=   0.0000E+00  zforce=   5.5210E+01   energy=  -8.4048E-03   setid =     880 xmoment=   0.0000E+00 ymoment=   0.0000E+00 zmoment=   0.0000E+00
 nd#     882  xforce=   0.0000E+00   yforce=   0.0000E+00  zforce=   4.8403E+01   energy=  -7.3950E-03   setid =     882 xmoment=   0.0000E+00 ymoment=   0.0000E+00 zmoment=   0.0000E+00
 nd#     884  xforce=   0.0000E+00   yforce=   0.0000E+00  zforce=   1.0172E+02   energy=  -1.6174E-02   setid =     884 xmoment=   0.0000E+00 ymoment=   0.0000E+00 zmoment=   0.0000E+00
 nd#     886  xforce=   0.0000E+00   yforce=   0.0000E+00  zforce=   7.9302E+01   energy=  -1.2873E-02   setid =     886 xmoment=   0.0000E+00 ymoment=   0.0000E+00 zmoment=   0.0000E+00
              xtotal=   0.0000E+00   ytotal=   0.0000E+00  ztotal=  -3.2188E+03   etotal=   6.0866E-01

 n o d a l   f o r c e/e n e r g y    o u t p u t  t=   2.42939E+01

 velocity boundary condition forces/rigid body moments 

 nd#     167  xforce=   0.0000E+00   yforce=   0.0000E+00  zforce=  -1.3721E+02   energy=   3.0618E-02   setid =     167 xmoment=   0.0000E+00 ymoment=   0.0000E+00 zmoment=   0.0000E+00
 nd#     168  xforce=   0.0000E+00   yforce=   0.0000E+00  zforce=  -2.6448E+01   energy=   6.6984E-03   setid =     168 xmoment=   0.0000E+00 ymoment=   0.0000E+00 zmoment=   0.0000E+00
 nd#     169  xforce=   0.0000E+00   yforce=   0.0000E+00  zforce=   1.6563E+02   energy=  -4.8203E-02   setid =     169 xmoment=   0.0000E+00 ymoment=   0.0000E+00 zmoment=   0.0000E+00
 nd#     170  xforce=   0.0000E+00   yforce=   0.0000E+00  zforce=  -2.8195E+01   energy=   3.3897E-03   setid =     170 xmoment=   0.0000E+00 ymoment=   0.0000E+00 zmoment=   0.0000E+00
 nd#     197  xforce=   0.0000E+00   yforce=   0.0000E+00  zforce=   2.5720E+01   energy=   1.4497E-03   setid =     197 xmoment=   0.0000E+00 ymoment=   0.0000E+00 zmoment=   0.0000E+00
 nd#     198  xforce=   0.0000E+00   yforce=   0.0000E+00  zforce=  -4.9095E+01   energy=   8.9373E-03   setid =     198 xmoment=   0.0000E+00 ymoment=   0.0000E+00 zmoment=   0.0000E+00
 nd#     225  xforce=   0.0000E+00   yforce=   0.0000E+00  zforce=  -1.0436E+02   energy=   2.7366E-02   setid =     225 xmoment=   0.0000E+00 ymoment=   0.0000E+00 zmoment=   0.0000E+00
 nd#     226  xforce=   0.0000E+00   yforce=   0.0000E+00  zforce=  -1.4766E+02   energy=   3.7210E-02   setid =     226 xmoment=   0.0000E+00 ymoment=   0.0000E+00 zmoment=   0.0000E+00
 nd#     279  xforce=   0.0000E+00   yforce=   0.0000E+00  zforce=  -1.7168E+02   energy=   4.6036E-02   setid =     279 xmoment=   0.0000E+00 ymoment=   0.0000E+00 zmoment=   0.0000E+00
 nd#     280  xforce=   0.0000E+00   yforce=   0.0000E+00  zforce=   2.4749E+01   energy=  -1.5277E-02   setid =     280 xmoment=   0.0000E+00 ymoment=   0.0000E+00 zmoment=   0.0000E+00
 nd#     281  xforce=   0.0000E+00   yforce=   0.0000E+00  zforce=  -9.3757E+01   energy=   1.2600E-02   setid =     281 xmoment=   0.0000E+00 ymoment=   0.0000E+00 zmoment=   0.0000E+00
 nd#     282  xforce=   0.0000E+00   yforce=   0.0000E+00  zforce=  -1.3165E+02   energy=   3.2453E-02   setid =     282 xmoment=   0.0000E+00 ymoment=   0.0000E+00 zmoment=   0.0000E+00
 nd#     296  xforce=   0.0000E+00   yforce=   0.0000E+00  zforce=  -7.9703E+01   energy=   2.1807E-02   setid =     296 xmoment=   0.0000E+00 ymoment=   0.0000E+00 zmoment=   0.0000E+00
 nd#     323  xforce=   0.0000E+00   yforce=   0.0000E+00  zforce=  -1.8161E+02   energy=   3.7594E-02   setid =     323 xmoment=   0.0000E+00 ymoment=   0.0000E+00 zmoment=   0.0000E+00
 nd#     324  xforce=   0.0000E+00   yforce=   0.0000E+00  zforce=  -1.1736E+02   energy=   2.1862E-02   setid =     324 xmoment=   0.0000E+00 ymoment=   0.0000E+00 zmoment=   0.0000E+00
 nd#     338  xforce=   0.0000E+00   yforce=   0.0000E+00  zforce=  -1.1324E+02   energy=   1.9138E-02   setid =     338 xmoment=   0.0000E+00 ymoment=   0.0000E+00 zmoment=   0.0000E+00
 nd#     352  xforce=   0.0000E+00   yforce=   0.0000E+00  zforce=  -9.3727E+01   energy=   2.0854E-02   setid =     352 xmoment=   0.0000E+00 ymoment=   0.0000E+00 zmoment=   0.0000E+00
 nd#     366  xforce=   0.0000E+00   yforce=   0.0000E+00  zforce=  -1.3413E+02   energy=   3.0995E-02   setid =     366 xmoment=   0.0000E+00 ymoment=   0.0000E+00 zmoment=   0.0000E+00
 nd#     380  xforce=   0.0000E+00   yforce=   0.0000E+00  zforce=  -8.5065E+01   energy=   1.9199E-02   setid =     380 xmoment=   0.0000E+00 ymoment=   0.0000E+00 zmoment=   0.0000E+00
 nd#     608  xforce=   0.0000E+00   yforce=   0.0000E+00  zforce=   9.0004E+00   energy=  -1.3851E-03   setid =     608 xmoment=   0.0000E+00 ymoment=   0.0000E+00 zmoment=   0.0000E+00
 nd#     609  xforce=   0.0000E+00   yforce=   0.0000E+00  zforce=  -8.2115E+01   energy=   1.8517E-02   setid =     609 xmoment=   0.0000E+00 ymoment=   0.0000E+00 zmoment=   0.0000E+00
 nd#     610  xforce=   0.0000E+00   yforce=   0.0000E+00  zforce=  -1.0328E+02   energy=   2.3470E-02   setid =     610 xmoment=   0.0000E+00 ymoment=   0.0000E+00 zmoment=   0.0000E+00
 nd#     611  xforce=   0.0000E+00   yforce=   0.0000E+00  zforce=  -1.1886E+02   energy=   2.7372E-02   setid =     611 xmoment=   0.0000E+00 ymoment=   0.0000E+00 zmoment=   0.0000E+00
 nd#     804  xforce=   0.0000E+00   yforce=   0.0000E+00  zforce=  -1.3066E+02   energy=   2.5376E-02   setid =     804 xmoment=   0.0000E+00 ymoment=   0.0000E+00 zmoment=   0.0000E+00
[...]
 nd#     324  xforce=   0.0000E+00   yforce=   0.0000E+00  zforce=  -7.1268E+01   energy=   8.6919E-02   setid =     324 xmoment=   0.0000E+00 ymoment=   0.0000E+00 zmoment=   0.0000E+00
 nd#     338  xforce=   0.0000E+00   yforce=   0.0000E+00  zforce=  -5.6044E+01   energy=   8.8343E-02   setid =     338 xmoment=   0.0000E+00 ymoment=   0.0000E+00 zmoment=   0.0000E+00
 nd#     352  xforce=   0.0000E+00   yforce=   0.0000E+00  zforce=  -5.4980E+01   energy=   6.2954E-02   setid =     352 xmoment=   0.0000E+00 ymoment=   0.0000E+00 zmoment=   0.0000E+00
 nd#     366  xforce=   0.0000E+00   yforce=   0.0000E+00  zforce=  -8.2878E+01   energy=   9.3588E-02   setid =     366 xmoment=   0.0000E+00 ymoment=   0.0000E+00 zmoment=   0.0000E+00
 nd#     380  xforce=   0.0000E+00   yforce=   0.0000E+00  zforce=  -4.3718E+01   energy=   5.7335E-02   setid =     380 xmoment=   0.0000E+00 ymoment=   0.0000E+00 zmoment=   0.0000E+00
 nd#     608  xforce=   0.0000E+00   yforce=   0.0000E+00  zforce=   9.8012E+00   energy=  -7.4144E-03   setid =     608 xmoment=   0.0000E+00 ymoment=   0.0000E+00 zmoment=   0.0000E+00
 nd#     609  xforce=   0.0000E+00   yforce=   0.0000E+00  zforce=  -4.7336E+01   energy=   5.8512E-02   setid =     609 xmoment=   0.0000E+00 ymoment=   0.0000E+00 zmoment=   0.0000E+00
 nd#     610  xforce=   0.0000E+00   yforce=   0.0000E+00  zforce=  -6.0771E+01   energy=   7.3466E-02   setid =     610 xmoment=   0.0000E+00 ymoment=   0.0000E+00 zmoment=   0.0000E+00
 nd#     611  xforce=   0.0000E+00   yforce=   0.0000E+00  zforce=  -6.8144E+01   energy=   8.3545E-02   setid =     611 xmoment=   0.0000E+00 ymoment=   0.0000E+00 zmoment=   0.0000E+00
 nd#     804  xforce=   0.0000E+00   yforce=   0.0000E+00  zforce=  -5.4957E+01   energy=   9.7842E-02   setid =     804 xmoment=   0.0000E+00 ymoment=   0.0000E+00 zmoment=   0.0000E+00
 nd#     806  xforce=   0.0000E+00   yforce=   0.0000E+00  zforce=  -1.4047E+02   energy=   1.4865E-01   setid =     806 xmoment=   0.0000E+00 ymoment=   0.0000E+00 zmoment=   0.0000E+00
 nd#     808  xforce=   0.0000E+00   yforce=   0.0000E+00  zforce=  -1.1823E+02   energy=   1.3353E-01   setid =     808 xmoment=   0.0000E+00 ymoment=   0.0000E+00 zmoment=   0.0000E+00
 nd#     810  xforce=   0.0000E+00   yforce=   0.0000E+00  zforce=  -4.2492E+01   energy=   5.9049E-02   setid =     810 xmoment=   0.0000E+00 ymoment=   0.0000E+00 zmoment=   0.0000E+00
 nd#     852  xforce=   0.0000E+00   yforce=   0.0000E+00  zforce=  -6.8779E+01   energy=   1.0487E-01   setid =     852 xmoment=   0.0000E+00 ymoment=   0.0000E+00 zmoment=   0.0000E+00
 nd#     854  xforce=   0.0000E+00   yforce=   0.0000E+00  zforce=  -1.3411E+02   energy=   1.5242E-01   setid =     854 xmoment=   0.0000E+00 ymoment=   0.0000E+00 zmoment=   0.0000E+00
 nd#     856  xforce=   0.0000E+00   yforce=   0.0000E+00  zforce=  -1.3882E+02   energy=   1.6007E-01   setid =     856 xmoment=   0.0000E+00 ymoment=   0.0000E+00 zmoment=   0.0000E+00
 nd#     858  xforce=   0.0000E+00   yforce=   0.0000E+00  zforce=  -3.0439E+01   energy=   5.3164E-02   setid =     858 xmoment=   0.0000E+00 ymoment=   0.0000E+00 zmoment=   0.0000E+00
 nd#     864  xforce=   0.0000E+00   yforce=   0.0000E+00  zforce=  -6.2230E+01   energy=   9.6409E-02   setid =     864 xmoment=   0.0000E+00 ymoment=   0.0000E+00 zmoment=   0.0000E+00
 nd#     866  xforce=   0.0000E+00   yforce=   0.0000E+00  zforce=  -1.2816E+02   energy=   1.5343E-01   setid =     866 xmoment=   0.0000E+00 ymoment=   0.0000E+00 zmoment=   0.0000E+00
 nd#     868  xforce=   0.0000E+00   yforce=   0.0000E+00  zforce=  -1.2251E+02   energy=   1.3901E-01   setid =     868 xmoment=   0.0000E+00 ymoment=   0.0000E+00 zmoment=   0.0000E+00
 nd#     870  xforce=   0.0000E+00   yforce=   0.0000E+00  zforce=  -2.5921E+00   energy=   2.0290E-02   setid =     870 xmoment=   0.0000E+00 ymoment=   0.0000E+00 zmoment=   0.0000E+00
 nd#     880  xforce=   0.0000E+00   yforce=   0.0000E+00  zforce=   4.5863E+01   energy=  -3.8429E-02   setid =     880 xmoment=   0.0000E+00 ymoment=   0.0000E+00 zmoment=   0.0000E+00
 nd#     882  xforce=   0.0000E+00   yforce=   0.0000E+00  zforce=   3.1017E+01   energy=  -3.4583E-02   setid =     882 xmoment=   0.0000E+00 ymoment=   0.0000E+00 zmoment=   0.0000E+00
 nd#     884  xforce=   0.0000E+00   yforce=   0.0000E+00  zforce=   7.2578E+01   energy=  -7.7760E-02   setid =     884 xmoment=   0.0000E+00 ymoment=   0.0000E+00 zmoment=   0.0000E+00
 nd#     886  xforce=   0.0000E+00   yforce=   0.0000E+00  zforce=   6.2335E+01   energy=  -5.6361E-02   setid =     886 xmoment=   0.0000E+00 ymoment=   0.0000E+00 zmoment=   0.0000E+00
              xtotal=   0.0000E+00   ytotal=   0.0000E+00  ztotal=  -1.8733E+03   etotal=   2.3676E+00

 n o d a l   f o r c e/e n e r g y    o u t p u t  t=   9.97705E+01

 velocity boundary condition forces/rigid body moments 

 nd#     167  xforce=   0.0000E+00   yforce=   0.0000E+00  zforce=  -1.2262E+02   energy=   1.1163E-01   setid =     167 xmoment=   0.0000E+00 ymoment=   0.0000E+00 zmoment=   0.0000E+00
 nd#     168  xforce=   0.0000E+00   yforce=   0.0000E+00  zforce=  -3.8169E+01   energy=   2.7754E-02   setid =     168 xmoment=   0.0000E+00 ymoment=   0.0000E+00 zmoment=   0.0000E+00
 nd#     169  xforce=   0.0000E+00   yforce=   0.0000E+00  zforce=   1.4422E+02   energy=  -1.1094E-01   setid =     169 xmoment=   0.0000E+00 ymoment=   0.0000E+00 zmoment=   0.0000E+00
 nd#     170  xforce=   0.0000E+00   yforce=   0.0000E+00  zforce=   8.4166E+00   energy=   2.4096E-02   setid =     170 xmoment=   0.0000E+00 ymoment=   0.0000E+00 zmoment=   0.0000E+00
 nd#     197  xforce=   0.0000E+00   yforce=   0.0000E+00  zforce=   2.0275E+01   energy=  -2.7113E-02   setid =     197 xmoment=   0.0000E+00 ymoment=   0.0000E+00 zmoment=   0.0000E+00
 nd#     198  xforce=   0.0000E+00   yforce=   0.0000E+00  zforce=  -2.6410E+01   energy=   3.7014E-02   setid =     198 xmoment=   0.0000E+00 ymoment=   0.0000E+00 zmoment=   0.0000E+00
 nd#     225  xforce=   0.0000E+00   yforce=   0.0000E+00  zforce=  -6.8192E+01   energy=   6.9665E-02   setid =     225 xmoment=   0.0000E+00 ymoment=   0.0000E+00 zmoment=   0.0000E+00
 nd#     226  xforce=   0.0000E+00   yforce=   0.0000E+00  zforce=  -9.7770E+01   energy=   1.0384E-01   setid =     226 xmoment=   0.0000E+00 ymoment=   0.0000E+00 zmoment=   0.0000E+00
 nd#     279  xforce=   0.0000E+00   yforce=   0.0000E+00  zforce=  -1.1830E+02   energy=   1.1812E-01   setid =     279 xmoment=   0.0000E+00 ymoment=   0.0000E+00 zmoment=   0.0000E+00
 nd#     280  xforce=   0.0000E+00   yforce=   0.0000E+00  zforce=   4.0199E+01   energy=  -1.8865E-02   setid =     280 xmoment=   0.0000E+00 ymoment=   0.0000E+00 zmoment=   0.0000E+00
 nd#     281  xforce=   0.0000E+00   yforce=   0.0000E+00  zforce=  -4.9037E+01   energy=   6.5562E-02   setid =     281 xmoment=   0.0000E+00 ymoment=   0.0000E+00 zmoment=   0.0000E+00
 nd#     282  xforce=   0.0000E+00   yforce=   0.0000E+00  zforce=  -8.0573E+01   energy=   9.0529E-02   setid =     282 xmoment=   0.0000E+00 ymoment=   0.0000E+00 zmoment=   0.0000E+00
 nd#     296  xforce=   0.0000E+00   yforce=   0.0000E+00  zforce=  -4.6136E+01   energy=   4.9846E-02   setid =     296 xmoment=   0.0000E+00 ymoment=   0.0000E+00 zmoment=   0.0000E+00
 nd#     323  xforce=   0.0000E+00   yforce=   0.0000E+00  zforce=  -1.4806E+02   energy=   1.4638E-01   setid =     323 xmoment=   0.0000E+00 ymoment=   0.0000E+00 zmoment=   0.0000E+00
 nd#     324  xforce=   0.0000E+00   yforce=   0.0000E+00  zforce=  -7.1261E+01   energy=   9.0482E-02   setid =     324 xmoment=   0.0000E+00 ymoment=   0.0000E+00 zmoment=   0.0000E+00
 nd#     338  xforce=   0.0000E+00   yforce=   0.0000E+00  zforce=  -5.7992E+01   energy=   9.1194E-02   setid =     338 xmoment=   0.0000E+00 ymoment=   0.0000E+00 zmoment=   0.0000E+00
 nd#     352  xforce=   0.0000E+00   yforce=   0.0000E+00  zforce=  -5.7515E+01   energy=   6.5766E-02   setid =     352 xmoment=   0.0000E+00 ymoment=   0.0000E+00 zmoment=   0.0000E+00
 nd#     366  xforce=   0.0000E+00   yforce=   0.0000E+00  zforce=  -8.7222E+01   energy=   9.7840E-02   setid =     366 xmoment=   0.0000E+00 ymoment=   0.0000E+00 zmoment=   0.0000E+00
 nd#     380  xforce=   0.0000E+00   yforce=   0.0000E+00  zforce=  -4.7971E+01   energy=   5.9627E-02   setid =     380 xmoment=   0.0000E+00 ymoment=   0.0000E+00 zmoment=   0.0000E+00
 nd#     608  xforce=   0.0000E+00   yforce=   0.0000E+00  zforce=   1.5643E+01   energy=  -8.0505E-03   setid =     608 xmoment=   0.0000E+00 ymoment=   0.0000E+00 zmoment=   0.0000E+00
 nd#     609  xforce=   0.0000E+00   yforce=   0.0000E+00  zforce=  -4.8510E+01   energy=   6.0909E-02   setid =     609 xmoment=   0.0000E+00 ymoment=   0.0000E+00 zmoment=   0.0000E+00
 nd#     610  xforce=   0.0000E+00   yforce=   0.0000E+00  zforce=  -6.2516E+01   energy=   7.6548E-02   setid =     610 xmoment=   0.0000E+00 ymoment=   0.0000E+00 zmoment=   0.0000E+00
 nd#     611  xforce=   0.0000E+00   yforce=   0.0000E+00  zforce=  -7.7247E+01   energy=   8.7179E-02   setid =     611 xmoment=   0.0000E+00 ymoment=   0.0000E+00 zmoment=   0.0000E+00
 nd#     804  xforce=   0.0000E+00   yforce=   0.0000E+00  zforce=  -6.3212E+01   energy=   1.0080E-01   setid =     804 xmoment=   0.0000E+00 ymoment=   0.0000E+00 zmoment=   0.0000E+00
 nd#     806  xforce=   0.0000E+00   yforce=   0.0000E+00  zforce=  -1.4607E+02   energy=   1.5581E-01   setid =     806 xmoment=   0.0000E+00 ymoment=   0.0000E+00 zmoment=   0.0000E+00
 nd#     808  xforce=   0.0000E+00   yforce=   0.0000E+00  zforce=  -1.1479E+02   energy=   1.3936E-01   setid =     808 xmoment=   0.0000E+00 ymoment=   0.0000E+00 zmoment=   0.0000E+00
 nd#     810  xforce=   0.0000E+00   yforce=   0.0000E+00  zforce=  -3.8472E+01   energy=   6.1073E-02   setid =     810 xmoment=   0.0000E+00 ymoment=   0.0000E+00 zmoment=   0.0000E+00
 nd#     852  xforce=   0.0000E+00   yforce=   0.0000E+00  zforce=  -6.4557E+01   energy=   1.0820E-01   setid =     852 xmoment=   0.0000E+00 ymoment=   0.0000E+00 zmoment=   0.0000E+00
 nd#     854  xforce=   0.0000E+00   yforce=   0.0000E+00  zforce=  -1.3840E+02   energy=   1.5923E-01   setid =     854 xmoment=   0.0000E+00 ymoment=   0.0000E+00 zmoment=   0.0000E+00
 nd#     856  xforce=   0.0000E+00   yforce=   0.0000E+00  zforce=  -1.4753E+02   energy=   1.6722E-01   setid =     856 xmoment=   0.0000E+00 ymoment=   0.0000E+00 zmoment=   0.0000E+00
 nd#     858  xforce=   0.0000E+00   yforce=   0.0000E+00  zforce=  -3.2149E+01   energy=   5.4729E-02   setid =     858 xmoment=   0.0000E+00 ymoment=   0.0000E+00 zmoment=   0.0000E+00
 nd#     864  xforce=   0.0000E+00   yforce=   0.0000E+00  zforce=  -6.1966E+01   energy=   9.9514E-02   setid =     864 xmoment=   0.0000E+00 ymoment=   0.0000E+00 zmoment=   0.0000E+00
 nd#     866  xforce=   0.0000E+00   yforce=   0.0000E+00  zforce=  -1.3665E+02   energy=   1.6005E-01   setid =     866 xmoment=   0.0000E+00 ymoment=   0.0000E+00 zmoment=   0.0000E+00
 nd#     868  xforce=   0.0000E+00   yforce=   0.0000E+00  zforce=  -1.2388E+02   energy=   1.4517E-01   setid =     868 xmoment=   0.0000E+00 ymoment=   0.0000E+00 zmoment=   0.0000E+00
 nd#     870  xforce=   0.0000E+00   yforce=   0.0000E+00  zforce=   3.8306E+00   energy=   2.0259E-02   setid =     870 xmoment=   0.0000E+00 ymoment=   0.0000E+00 zmoment=   0.0000E+00
 nd#     880  xforce=   0.0000E+00   yforce=   0.0000E+00  zforce=   5.8476E+01   energy=  -4.1037E-02   setid =     880 xmoment=   0.0000E+00 ymoment=   0.0000E+00 zmoment=   0.0000E+00
 nd#     882  xforce=   0.0000E+00   yforce=   0.0000E+00  zforce=   4.0076E+01   energy=  -3.6360E-02   setid =     882 xmoment=   0.0000E+00 ymoment=   0.0000E+00 zmoment=   0.0000E+00
 nd#     884  xforce=   0.0000E+00   yforce=   0.0000E+00  zforce=   8.6932E+01   energy=  -8.1748E-02   setid =     884 xmoment=   0.0000E+00 ymoment=   0.0000E+00 zmoment=   0.0000E+00
 nd#     886  xforce=   0.0000E+00   yforce=   0.0000E+00  zforce=   7.2904E+01   energy=  -5.9742E-02   setid =     886 xmoment=   0.0000E+00 ymoment=   0.0000E+00 zmoment=   0.0000E+00
              xtotal=   0.0000E+00   ytotal=   0.0000E+00  ztotal=  -1.8822E+03   etotal=   2.4615E+00

 n o d a l   f o r c e/e n e r g y    o u t p u t  t=   1.00000E+02

 velocity boundary condition forces/rigid body moments 

 nd#     167  xforce=   0.0000E+00   yforce=   0.0000E+00  zforce=  -1.0875E+02   energy=   1.1189E-01   setid =     167 xmoment=   0.0000E+00 ymoment=   0.0000E+00 zmoment=   0.0000E+00
 nd#     168  xforce=   0.0000E+00   yforce=   0.0000E+00  zforce=  -3.6417E+01   energy=   2.7840E-02   setid =     168 xmoment=   0.0000E+00 ymoment=   0.0000E+00 zmoment=   0.0000E+00
 nd#     169  xforce=   0.0000E+00   yforce=   0.0000E+00  zforce=   9.6584E+01   energy=  -1.1122E-01   setid =     169 xmoment=   0.0000E+00 ymoment=   0.0000E+00 zmoment=   0.0000E+00
 nd#     170  xforce=   0.0000E+00   yforce=   0.0000E+00  zforce=  -1.1519E+01   energy=   2.4099E-02   setid =     170 xmoment=   0.0000E+00 ymoment=   0.0000E+00 zmoment=   0.0000E+00
 nd#     197  xforce=   0.0000E+00   yforce=   0.0000E+00  zforce=   3.8074E+01   energy=  -2.7180E-02   setid =     197 xmoment=   0.0000E+00 ymoment=   0.0000E+00 zmoment=   0.0000E+00
 nd#     198  xforce=   0.0000E+00   yforce=   0.0000E+00  zforce=  -1.8605E+01   energy=   3.7066E-02   setid =     198 xmoment=   0.0000E+00 ymoment=   0.0000E+00 zmoment=   0.0000E+00
 nd#     225  xforce=   0.0000E+00   yforce=   0.0000E+00  zforce=  -5.6745E+01   energy=   6.9808E-02   setid =     225 xmoment=   0.0000E+00 ymoment=   0.0000E+00 zmoment=   0.0000E+00
 nd#     226  xforce=   0.0000E+00   yforce=   0.0000E+00  zforce=  -8.3134E+01   energy=   1.0405E-01   setid =     226 xmoment=   0.0000E+00 ymoment=   0.0000E+00 zmoment=   0.0000E+00
 nd#     279  xforce=   0.0000E+00   yforce=   0.0000E+00  zforce=  -8.6075E+01   energy=   1.1835E-01   setid =     279 xmoment=   0.0000E+00 ymoment=   0.0000E+00 zmoment=   0.0000E+00
 nd#     280  xforce=   0.0000E+00   yforce=   0.0000E+00  zforce=   3.3582E+01   energy=  -1.8950E-02   setid =     280 xmoment=   0.0000E+00 ymoment=   0.0000E+00 zmoment=   0.0000E+00
 nd#     281  xforce=   0.0000E+00   yforce=   0.0000E+00  zforce=  -5.5136E+01   energy=   6.5681E-02   setid =     281 xmoment=   0.0000E+00 ymoment=   0.0000E+00 zmoment=   0.0000E+00
 nd#     282  xforce=   0.0000E+00   yforce=   0.0000E+00  zforce=  -6.8010E+01   energy=   9.0700E-02   setid =     282 xmoment=   0.0000E+00 ymoment=   0.0000E+00 zmoment=   0.0000E+00
 nd#     296  xforce=   0.0000E+00   yforce=   0.0000E+00  zforce=  -3.5517E+01   energy=   4.9939E-02   setid =     296 xmoment=   0.0000E+00 ymoment=   0.0000E+00 zmoment=   0.0000E+00
 nd#     323  xforce=   0.0000E+00   yforce=   0.0000E+00  zforce=  -1.3070E+02   energy=   1.4670E-01   setid =     323 xmoment=   0.0000E+00 ymoment=   0.0000E+00 zmoment=   0.0000E+00
 nd#     324  xforce=   0.0000E+00   yforce=   0.0000E+00  zforce=  -6.9408E+01   energy=   9.0643E-02   setid =     324 xmoment=   0.0000E+00 ymoment=   0.0000E+00 zmoment=   0.0000E+00
 nd#     338  xforce=   0.0000E+00   yforce=   0.0000E+00  zforce=  -6.5201E+01   energy=   9.1336E-02   setid =     338 xmoment=   0.0000E+00 ymoment=   0.0000E+00 zmoment=   0.0000E+00
 nd#     352  xforce=   0.0000E+00   yforce=   0.0000E+00  zforce=  -5.0176E+01   energy=   6.5890E-02   setid =     352 xmoment=   0.0000E+00 ymoment=   0.0000E+00 zmoment=   0.0000E+00
 nd#     366  xforce=   0.0000E+00   yforce=   0.0000E+00  zforce=  -7.5340E+01   energy=   9.8027E-02   setid =     366 xmoment=   0.0000E+00 ymoment=   0.0000E+00 zmoment=   0.0000E+00
 nd#     380  xforce=   0.0000E+00   yforce=   0.0000E+00  zforce=  -4.5096E+01   energy=   5.9734E-02   setid =     380 xmoment=   0.0000E+00 ymoment=   0.0000E+00 zmoment=   0.0000E+00
 nd#     608  xforce=   0.0000E+00   yforce=   0.0000E+00  zforce=   2.1790E+01   energy=  -8.0935E-03   setid =     608 xmoment=   0.0000E+00 ymoment=   0.0000E+00 zmoment=   0.0000E+00
 nd#     609  xforce=   0.0000E+00   yforce=   0.0000E+00  zforce=  -3.3629E+01   energy=   6.1003E-02   setid =     609 xmoment=   0.0000E+00 ymoment=   0.0000E+00 zmoment=   0.0000E+00
 nd#     610  xforce=   0.0000E+00   yforce=   0.0000E+00  zforce=  -5.2076E+01   energy=   7.6679E-02   setid =     610 xmoment=   0.0000E+00 ymoment=   0.0000E+00 zmoment=   0.0000E+00
 nd#     611  xforce=   0.0000E+00   yforce=   0.0000E+00  zforce=  -6.5433E+01   energy=   8.7343E-02   setid =     611 xmoment=   0.0000E+00 ymoment=   0.0000E+00 zmoment=   0.0000E+00
 nd#     804  xforce=   0.0000E+00   yforce=   0.0000E+00  zforce=  -6.5699E+01   energy=   1.0094E-01   setid =     804 xmoment=   0.0000E+00 ymoment=   0.0000E+00 zmoment=   0.0000E+00
 nd#     806  xforce=   0.0000E+00   yforce=   0.0000E+00  zforce=  -1.2796E+02   energy=   1.5612E-01   setid =     806 xmoment=   0.0000E+00 ymoment=   0.0000E+00 zmoment=   0.0000E+00
 nd#     808  xforce=   0.0000E+00   yforce=   0.0000E+00  zforce=  -1.0601E+02   energy=   1.3961E-01   setid =     808 xmoment=   0.0000E+00 ymoment=   0.0000E+00 zmoment=   0.0000E+00
 nd#     810  xforce=   0.0000E+00   yforce=   0.0000E+00  zforce=  -3.7904E+01   energy=   6.1161E-02   setid =     810 xmoment=   0.0000E+00 ymoment=   0.0000E+00 zmoment=   0.0000E+00
 nd#     852  xforce=   0.0000E+00   yforce=   0.0000E+00  zforce=  -6.2985E+01   energy=   1.0835E-01   setid =     852 xmoment=   0.0000E+00 ymoment=   0.0000E+00 zmoment=   0.0000E+00
 nd#     854  xforce=   0.0000E+00   yforce=   0.0000E+00  zforce=  -1.1947E+02   energy=   1.5953E-01   setid =     854 xmoment=   0.0000E+00 ymoment=   0.0000E+00 zmoment=   0.0000E+00
 nd#     856  xforce=   0.0000E+00   yforce=   0.0000E+00  zforce=  -1.2653E+02   energy=   1.6754E-01   setid =     856 xmoment=   0.0000E+00 ymoment=   0.0000E+00 zmoment=   0.0000E+00
 nd#     858  xforce=   0.0000E+00   yforce=   0.0000E+00  zforce=  -2.8196E+01   energy=   5.4798E-02   setid =     858 xmoment=   0.0000E+00 ymoment=   0.0000E+00 zmoment=   0.0000E+00
 nd#     864  xforce=   0.0000E+00   yforce=   0.0000E+00  zforce=  -4.7626E+01   energy=   9.9639E-02   setid =     864 xmoment=   0.0000E+00 ymoment=   0.0000E+00 zmoment=   0.0000E+00
 nd#     866  xforce=   0.0000E+00   yforce=   0.0000E+00  zforce=  -1.1277E+02   energy=   1.6034E-01   setid =     866 xmoment=   0.0000E+00 ymoment=   0.0000E+00 zmoment=   0.0000E+00
 nd#     868  xforce=   0.0000E+00   yforce=   0.0000E+00  zforce=  -9.5326E+01   energy=   1.4542E-01   setid =     868 xmoment=   0.0000E+00 ymoment=   0.0000E+00 zmoment=   0.0000E+00
 nd#     870  xforce=   0.0000E+00   yforce=   0.0000E+00  zforce=   1.1260E+01   energy=   2.0242E-02   setid =     870 xmoment=   0.0000E+00 ymoment=   0.0000E+00 zmoment=   0.0000E+00
 nd#     880  xforce=   0.0000E+00   yforce=   0.0000E+00  zforce=   6.7503E+01   energy=  -4.1182E-02   setid =     880 xmoment=   0.0000E+00 ymoment=   0.0000E+00 zmoment=   0.0000E+00
 nd#     882  xforce=   0.0000E+00   yforce=   0.0000E+00  zforce=   6.1864E+01   energy=  -3.6477E-02   setid =     882 xmoment=   0.0000E+00 ymoment=   0.0000E+00 zmoment=   0.0000E+00
 nd#     884  xforce=   0.0000E+00   yforce=   0.0000E+00  zforce=   1.0764E+02   energy=  -8.1971E-02   setid =     884 xmoment=   0.0000E+00 ymoment=   0.0000E+00 zmoment=   0.0000E+00
 nd#     886  xforce=   0.0000E+00   yforce=   0.0000E+00  zforce=   7.8408E+01   energy=  -5.9916E-02   setid =     886 xmoment=   0.0000E+00 ymoment=   0.0000E+00 zmoment=   0.0000E+00
              xtotal=   0.0000E+00   ytotal=   0.0000E+00  ztotal=  -1.5607E+03   etotal=   2.4655E+00
