 LS-DYNA keyword deck by LS-PrePost                                      
                    ls-dyna smp d R14 R14.1.1s_1_ef50e1 date 06/16/2024



 n o d a l  s t r e s s  c a l c u l a t i o n s   f o r   t i m e  s t e p        1   ( at time 0.00000E+00 )

 node (global)
          stress       sig-xx      sig-yy      sig-zz      sig-xy      sig-yz      sig-zx       plastic
                                                                                                 strain 
       1-
 mid.  surface    -1.6011E-04 -1.6011E-04 -1.6011E-04  0.0000E+00  0.0000E+00  0.0000E+00  0.0000E+00
       2-
 mid.  surface    -1.1843E-04 -1.1843E-04 -1.1843E-04  0.0000E+00  0.0000E+00  0.0000E+00  0.0000E+00
       8-
 mid.  surface    -2.9208E-05 -2.9208E-05 -2.9208E-05  0.0000E+00  0.0000E+00  0.0000E+00  0.0000E+00
       9-
 mid.  surface     8.3865E-05  8.3865E-05  8.3865E-05  0.0000E+00  0.0000E+00  0.0000E+00  0.0000E+00
      10-
 mid.  surface     2.2199E-05  2.2199E-05  2.2199E-05  0.0000E+00  0.0000E+00  0.0000E+00  0.0000E+00
      11-
 mid.  surface    -4.6801E-05 -4.6801E-05 -4.6801E-05  0.0000E+00  0.0000E+00  0.0000E+00  0.0000E+00
      12-
 mid.  surface     1.5223E-05  1.5223E-05  1.5223E-05  0.0000E+00  0.0000E+00  0.0000E+00  0.0000E+00
      17-
 mid.  surface    -7.2808E-06 -7.2808E-06 -7.2808E-06  0.0000E+00  0.0000E+00  0.0000E+00  0.0000E+00
      18-
 mid.  surface    -3.9787E-05 -3.9787E-05 -3.9787E-05  0.0000E+00  0.0000E+00  0.0000E+00  0.0000E+00
      19-
 mid.  surface     2.0352E-05  2.0352E-05  2.0352E-05  0.0000E+00  0.0000E+00  0.0000E+00  0.0000E+00
      20-
 mid.  surface     3.8997E-05  3.8997E-05  3.8997E-05  0.0000E+00  0.0000E+00  0.0000E+00  0.0000E+00
      21-
 mid.  surface     4.7947E-05  4.7947E-05  4.7947E-05  0.0000E+00  0.0000E+00  0.0000E+00  0.0000E+00
      22-
 mid.  surface     2.7110E-05  2.7110E-05  2.7110E-05  0.0000E+00  0.0000E+00  0.0000E+00  0.0000E+00
      23-
 mid.  surface    -5.2270E-07 -5.2270E-07 -5.2270E-07  0.0000E+00  0.0000E+00  0.0000E+00  0.0000E+00
      40-
 mid.  surface     5.2769E-05  5.2769E-05  5.2769E-05  0.0000E+00  0.0000E+00  0.0000E+00  0.0000E+00
      41-
 mid.  surface     8.6452E-06  8.6452E-06  8.6452E-06  0.0000E+00  0.0000E+00  0.0000E+00  0.0000E+00
      85-
 mid.  surface    -1.5617E-05 -1.5617E-05 -1.5617E-05  0.0000E+00  0.0000E+00  0.0000E+00  0.0000E+00
      86-
 mid.  surface    -5.2982E-05 -5.2982E-05 -5.2982E-05  0.0000E+00  0.0000E+00  0.0000E+00  0.0000E+00
     100-
 mid.  surface    -1.1256E-04 -1.1256E-04 -1.1256E-04  0.0000E+00  0.0000E+00  0.0000E+00  0.0000E+00
     110-
 mid.  surface     3.6241E-05  3.6241E-05  3.6241E-05  0.0000E+00  0.0000E+00  0.0000E+00  0.0000E+00



 n o d a l  s t r a i n  c a l c u l a t i o n s   f o r   t i m e  s t e p        1   ( at time 0.00000E+00 )

 node (global)
          strain       eps-xx      eps-yy      eps-zz      eps-xy      eps-yz      eps-zx       
       1-
 mid.  surface     0.0000E+00  0.0000E+00  0.0000E+00  0.0000E+00  0.0000E+00  0.0000E+00
       2-
 mid.  surface     0.0000E+00  0.0000E+00  0.0000E+00  0.0000E+00  0.0000E+00  0.0000E+00
       8-
 mid.  surface     0.0000E+00  0.0000E+00  0.0000E+00  0.0000E+00  0.0000E+00  0.0000E+00
       9-
 mid.  surface     0.0000E+00  0.0000E+00  0.0000E+00  0.0000E+00  0.0000E+00  0.0000E+00
      10-
 mid.  surface     0.0000E+00  0.0000E+00  0.0000E+00  0.0000E+00  0.0000E+00  0.0000E+00
      11-
 mid.  surface     0.0000E+00  0.0000E+00  0.0000E+00  0.0000E+00  0.0000E+00  0.0000E+00
      12-
 mid.  surface     0.0000E+00  0.0000E+00  0.0000E+00  0.0000E+00  0.0000E+00  0.0000E+00
      17-
 mid.  surface     0.0000E+00  0.0000E+00  0.0000E+00  0.0000E+00  0.0000E+00  0.0000E+00
      18-
 mid.  surface     0.0000E+00  0.0000E+00  0.0000E+00  0.0000E+00  0.0000E+00  0.0000E+00
      19-
 mid.  surface     0.0000E+00  0.0000E+00  0.0000E+00  0.0000E+00  0.0000E+00  0.0000E+00
      20-
 mid.  surface     0.0000E+00  0.0000E+00  0.0000E+00  0.0000E+00  0.0000E+00  0.0000E+00
      21-
 mid.  surface     0.0000E+00  0.0000E+00  0.0000E+00  0.0000E+00  0.0000E+00  0.0000E+00
      22-
 mid.  surface     0.0000E+00  0.0000E+00  0.0000E+00  0.0000E+00  0.0000E+00  0.0000E+00
      23-
 mid.  surface     0.0000E+00  0.0000E+00  0.0000E+00  0.0000E+00  0.0000E+00  0.0000E+00
      40-
 mid.  surface     0.0000E+00  0.0000E+00  0.0000E+00  0.0000E+00  0.0000E+00  0.0000E+00
      41-
 mid.  surface     0.0000E+00  0.0000E+00  0.0000E+00  0.0000E+00  0.0000E+00  0.0000E+00
      85-
 mid.  surface     0.0000E+00  0.0000E+00  0.0000E+00  0.0000E+00  0.0000E+00  0.0000E+00
      86-
 mid.  surface     0.0000E+00  0.0000E+00  0.0000E+00  0.0000E+00  0.0000E+00  0.0000E+00
     100-
 mid.  surface     0.0000E+00  0.0000E+00  0.0000E+00  0.0000E+00  0.0000E+00  0.0000E+00
     110-
 mid.  surface     0.0000E+00  0.0000E+00  0.0000E+00  0.0000E+00  0.0000E+00  0.0000E+00



 n o d a l  s t r e s s  c a l c u l a t i o n s   f o r   t i m e  s t e p       10   ( at time 1.29245E+00 )

 node (global)
          stress       sig-xx      sig-yy      sig-zz      sig-xy      sig-yz      sig-zx       plastic
                                                                                                 strain 
       1-
 mid.  surface    -1.8167E+07 -2.9876E+07 -1.3632E+08  3.2282E+07 -6.3604E+06 -3.1211E+07  0.0000E+00
       2-
 mid.  surface    -2.0967E+07  5.0696E+06 -1.9945E+08  2.0275E+07 -4.1103E+06 -1.2133E+07  0.0000E+00
       8-
 mid.  surface    -2.3368E+07  2.3971E+07 -1.0330E+08 -9.7111E+06  3.5260E+06  3.2377E+06  0.0000E+00
       9-
 mid.  surface    -1.4625E+07 -1.9223E+06 -1.9062E+08 -1.4863E+07 -7.8331E+06  5.1984E+06  0.0000E+00
      10-
 mid.  surface    -7.6990E+06  1.4789E+07 -1.8544E+08  7.2395E+06 -1.7875E+07  1.1134E+07  0.0000E+00
      11-
 mid.  surface    -2.9361E+05 -2.2917E+06 -1.5801E+08  1.2422E+07 -5.5652E+07 -8.8278E+06  0.0000E+00
      12-
 mid.  surface    -2.4921E+07 -2.6652E+07 -1.4555E+08  7.9078E+06 -4.6525E+07 -2.4292E+07  0.0000E+00
      17-
 mid.  surface     1.4363E+07 -3.9796E+06 -1.3066E+08  1.3473E+07 -1.6665E+07 -2.3560E+07  0.0000E+00
      18-
 mid.  surface    -9.2202E+06  2.3175E+07 -1.1224E+08  1.8738E+07 -1.1160E+06 -8.0394E+06  0.0000E+00
      19-
 mid.  surface    -8.9805E+06 -1.0903E+06 -1.6995E+08 -6.0589E+06 -8.6879E+06 -1.6692E+07  0.0000E+00
      20-
 mid.  surface    -8.5150E+06 -3.2818E+07 -1.6002E+08  9.4065E+06  6.4543E+06  1.8069E+07  0.0000E+00
      21-
 mid.  surface    -2.8950E+07 -1.9888E+07 -1.9314E+08 -9.3889E+06  1.9340E+06  9.9193E+06  0.0000E+00
      22-
 mid.  surface    -5.0393E+07 -5.7051E+07 -1.7581E+08  4.3383E+06  1.5584E+07 -1.7159E+07  0.0000E+00
      23-
 mid.  surface    -2.5139E+07 -3.6568E+07 -1.9333E+08  9.0509E+06  1.8795E+07 -1.4902E+07  0.0000E+00
      40-
 mid.  surface    -1.9290E+07 -1.5977E+06 -1.9652E+08  6.0283E+06 -1.1528E+07 -1.9769E+07  0.0000E+00
      41-
 mid.  surface    -2.4013E+07  5.1400E+06 -1.2401E+08  1.7563E+07 -1.2329E+07  1.9297E+06  0.0000E+00
      85-
 mid.  surface    -4.1524E+07 -9.3959E+06 -2.1916E+08  1.6770E+07  3.5763E+06 -1.0791E+06  0.0000E+00
      86-
 mid.  surface    -4.2814E+07 -5.3860E+07 -1.5837E+08  2.8546E+07  3.7406E+07 -2.2902E+07  0.0000E+00
     100-
 mid.  surface    -3.3880E+07  1.2875E+07 -1.0924E+08 -7.5066E+06 -1.1902E+07  3.7483E+06  0.0000E+00
     110-
 mid.  surface    -2.2005E+07 -1.3781E+07 -1.9625E+08 -1.3286E+07 -2.2154E+07 -1.9392E+07  0.0000E+00



 n o d a l  s t r a i n  c a l c u l a t i o n s   f o r   t i m e  s t e p       10   ( at time 1.29245E+00 )

 node (global)
          strain       eps-xx      eps-yy      eps-zz      eps-xy      eps-yz      eps-zx       
       1-
 mid.  surface     5.3478E-04  3.1130E-04 -1.7200E-03  6.1608E-04 -1.2144E-04 -5.9573E-04
       2-
 mid.  surface     6.2921E-04  1.1260E-03 -2.7769E-03  3.8690E-04 -7.8364E-05 -2.3148E-04
       8-
 mid.  surface     4.5051E-05  9.4840E-04 -1.4803E-03 -1.8531E-04  6.7419E-05  6.1883E-05
       9-
 mid.  surface     7.1070E-04  9.5311E-04 -2.6480E-03 -2.8369E-04 -1.4965E-04  9.9102E-05
      10-
 mid.  surface     7.0496E-04  1.1342E-03 -2.6870E-03  1.3808E-04 -3.4123E-04  2.1237E-04
      11-
 mid.  surface     7.6146E-04  7.2357E-04 -2.2489E-03  2.3714E-04 -1.0618E-03 -1.6816E-04
      12-
 mid.  surface     4.6647E-04  4.3355E-04 -1.8355E-03  1.5086E-04 -8.8798E-04 -4.6373E-04
      17-
 mid.  surface     8.4899E-04  4.9874E-04 -1.9189E-03  2.5724E-04 -3.1758E-04 -4.4915E-04
      18-
 mid.  surface     2.9394E-04  9.1198E-04 -1.6721E-03  3.5763E-04 -2.1033E-05 -1.5320E-04
      19-
 mid.  surface     6.8899E-04  8.3938E-04 -2.3830E-03 -1.1565E-04 -1.6559E-04 -3.1832E-04
      20-
 mid.  surface     7.9990E-04  3.3589E-04 -2.0916E-03  1.7962E-04  1.2344E-04  3.4512E-04
      21-
 mid.  surface     6.0385E-04  7.7661E-04 -2.5293E-03 -1.7923E-04  3.6784E-05  1.8915E-04
      22-
 mid.  surface     3.9204E-04  2.6510E-04 -2.0010E-03  8.2697E-05  2.9695E-04 -3.2794E-04
      23-
 mid.  surface     7.3894E-04  5.2111E-04 -2.4709E-03  1.7270E-04  3.5837E-04 -2.8469E-04
      40-
 mid.  surface     6.7045E-04  1.0082E-03 -2.7114E-03  1.1491E-04 -2.2049E-04 -3.7775E-04
      41-
 mid.  surface     2.2472E-04  7.8087E-04 -1.6832E-03  3.3513E-04 -2.3535E-04  3.6707E-05
      85-
 mid.  surface     4.9827E-04  1.1112E-03 -2.8915E-03  3.2004E-04  6.8181E-05 -2.0665E-05
      86-
 mid.  surface     4.0204E-04  1.9118E-04 -1.8030E-03  5.4474E-04  7.1368E-04 -4.3724E-04
     100-
 mid.  surface    -2.3948E-05  8.6822E-04 -1.4620E-03 -1.4326E-04 -2.2726E-04  7.1407E-05
     110-
 mid.  surface     6.8876E-04  8.4572E-04 -2.6365E-03 -2.5361E-04 -4.2317E-04 -3.7038E-04



 n o d a l  s t r e s s  c a l c u l a t i o n s   f o r   t i m e  s t e p       14   ( at time 2.54839E+00 )

 node (global)
          stress       sig-xx      sig-yy      sig-zz      sig-xy      sig-yz      sig-zx       plastic
                                                                                                 strain 
       1-
 mid.  surface    -1.9560E+07 -3.5365E+07 -2.9591E+08  6.6600E+07 -1.6730E+07 -5.4741E+07 -1.7922E-04
       2-
 mid.  surface    -8.5682E+07 -4.1458E+07 -3.0877E+08  3.1512E+07 -7.3477E+06  8.4527E+06  7.5919E-04
       8-
 mid.  surface    -2.5304E+07  6.7489E+07 -2.2767E+08 -1.7268E+07  3.4848E+06  5.5412E+06 -1.8266E-04
       9-
 mid.  surface    -6.1954E+07 -3.8796E+07 -3.0468E+08 -3.0038E+07 -3.7521E+06  1.3307E+07  5.8656E-04
      10-
 mid.  surface    -5.4750E+07 -1.2773E+07 -2.6884E+08  1.1845E+07 -2.9317E+07  3.0946E+07  7.5232E-04
      11-
 mid.  surface    -1.4367E+07 -3.8323E+06 -2.5773E+08  2.7759E+07 -1.1942E+08 -8.3572E+06  3.3905E-04
      12-
 mid.  surface    -4.9943E+07 -4.1707E+07 -2.6764E+08  2.0082E+07 -1.0545E+08 -4.1345E+07  1.4187E-04
      17-
 mid.  surface     3.1145E+07 -1.2596E+07 -2.1466E+08  2.7617E+07 -5.5887E+07 -3.6045E+07  2.7976E-04
      18-
 mid.  surface    -1.0473E+07  4.8542E+07 -2.0359E+08  3.7635E+07 -6.6160E+06 -9.4185E+06  1.3775E-04
      19-
 mid.  surface    -4.9220E+07 -4.9456E+07 -2.4265E+08 -1.6707E+07 -3.7178E+07 -1.2257E+07  7.7373E-04
      20-
 mid.  surface    -1.7507E+07 -7.5122E+07 -2.9922E+08  1.9122E+07  3.4908E+07  2.9161E+07  2.0049E-04
      21-
 mid.  surface    -8.9961E+07 -9.2932E+07 -3.0996E+08 -2.4511E+07  3.1684E+07  1.9849E+07  6.7643E-04
      22-
 mid.  surface    -1.0298E+08 -1.0731E+08 -3.5629E+08  1.3876E+07  3.8549E+07 -4.2013E+07 -2.5437E-06
      23-
 mid.  surface    -6.4073E+07 -6.9530E+07 -3.7082E+08  2.3281E+07  3.4946E+07 -3.2628E+07  8.6687E-05
      40-
 mid.  surface    -8.0856E+07 -4.6869E+07 -3.1105E+08  8.7948E+06 -7.4211E+06 -3.3302E+07  6.7140E-04
      41-
 mid.  surface    -4.0970E+07  1.0412E+07 -2.4475E+08  3.3815E+07 -8.6114E+06 -1.6890E+06  7.6732E-05
      85-
 mid.  surface    -1.2985E+08 -7.5583E+07 -3.5429E+08  2.3357E+07  4.1356E+07 -1.6179E+07  6.8638E-04
      86-
 mid.  surface    -7.4575E+07 -9.0971E+07 -3.4283E+08  5.9445E+07  8.9887E+07 -6.3206E+07 -1.7753E-04
     100-
 mid.  surface    -4.7623E+07  4.0639E+07 -2.4520E+08 -1.3917E+07 -2.7721E+07 -2.9730E+06 -1.9821E-04
     110-
 mid.  surface    -8.0142E+07 -6.6062E+07 -3.2208E+08 -2.8037E+07 -3.5804E+07 -3.9947E+07  5.6443E-04



 n o d a l  s t r a i n  c a l c u l a t i o n s   f o r   t i m e  s t e p       14   ( at time 2.54839E+00 )

 node (global)
          strain       eps-xx      eps-yy      eps-zz      eps-xy      eps-yz      eps-zx       
       1-
 mid.  surface     1.1642E-03  7.2028E-04 -3.5463E-03  1.3152E-03 -2.5909E-04 -1.0514E-03
       2-
 mid.  surface     1.3677E-03  2.3153E-03 -5.7505E-03  8.2446E-04 -1.7247E-04 -3.3484E-04
       8-
 mid.  surface     4.4726E-05  2.0328E-03 -2.9569E-03 -3.9365E-04  1.8787E-04  1.2860E-04
       9-
 mid.  surface     1.5032E-03  2.0349E-03 -5.4655E-03 -5.7787E-04 -2.3659E-04  2.0882E-04
      10-
 mid.  surface     1.5114E-03  2.4398E-03 -5.5526E-03  3.4987E-04 -7.3839E-04  4.3790E-04
      11-
 mid.  surface     1.6743E-03  1.6148E-03 -4.6048E-03  5.8042E-04 -2.3465E-03 -3.9152E-04
      12-
 mid.  surface     1.0646E-03  9.7812E-04 -3.7488E-03  3.6475E-04 -1.9760E-03 -9.7906E-04
      17-
 mid.  surface     1.8177E-03  1.1082E-03 -3.8589E-03  6.5181E-04 -8.1558E-04 -9.9422E-04
      18-
 mid.  surface     5.8532E-04  1.9925E-03 -3.3633E-03  8.0245E-04 -1.0580E-04 -3.3259E-04
      19-
 mid.  surface     1.5246E-03  1.7234E-03 -4.8694E-03 -1.7667E-04 -4.6494E-04 -7.0549E-04
      20-
 mid.  surface     1.6713E-03  7.1602E-04 -4.2483E-03  4.5103E-04  3.4036E-04  7.3592E-04
      21-
 mid.  surface     1.2969E-03  1.5526E-03 -5.1905E-03 -3.3864E-04  1.3275E-04  3.7861E-04
      22-
 mid.  surface     8.5361E-04  5.7229E-04 -4.1143E-03  2.0269E-04  6.7893E-04 -6.7514E-04
      23-
 mid.  surface     1.5711E-03  1.1367E-03 -5.1037E-03  4.1324E-04  8.3829E-04 -5.5705E-04
      40-
 mid.  surface     1.3998E-03  2.1168E-03 -5.6023E-03  2.7325E-04 -4.4514E-04 -7.9375E-04
      41-
 mid.  surface     4.1557E-04  1.6624E-03 -3.3838E-03  7.2297E-04 -5.0718E-04  5.8043E-05
      85-
 mid.  surface     1.0241E-03  2.2583E-03 -5.9395E-03  6.7242E-04  1.8813E-04 -2.9695E-04
      86-
 mid.  surface     8.1827E-04  4.2054E-04 -3.6499E-03  1.1630E-03  1.5800E-03 -1.1211E-03
     100-
 mid.  surface    -1.0821E-04  1.7990E-03 -2.8869E-03 -3.0882E-04 -5.9500E-04  1.1783E-04
     110-
 mid.  surface     1.4295E-03  1.7446E-03 -5.3990E-03 -5.1684E-04 -9.7929E-04 -8.0019E-04



 n o d a l  s t r e s s  c a l c u l a t i o n s   f o r   t i m e  s t e p      175   ( at time 4.53893E+00 )

 node (global)
          stress       sig-xx      sig-yy      sig-zz      sig-xy      sig-yz      sig-zx       plastic
                                                                                                 strain 
       1-
 mid.  surface    -2.5135E+08 -1.2808E+08 -6.3949E+08  1.3027E+08 -1.0213E+07  2.0805E+08 -6.0243E-03
       2-
 mid.  surface    -6.9611E+08 -5.5524E+08 -1.0535E+09  6.6919E+07 -2.1014E+07  2.8924E+08  5.5190E-03
       8-
 mid.  surface    -1.6173E+07  5.6224E+07 -2.6832E+08 -3.9901E+07  7.0743E+07  4.8994E+06  1.2849E-03
       9-
 mid.  surface    -1.9528E+08 -2.2138E+08 -5.2382E+08 -2.7699E+07  6.6066E+07  1.1792E+07  9.5365E-03
      10-
 mid.  surface    -8.5720E+07 -9.1546E+07 -2.2317E+08  2.4281E+07 -4.7155E+07  2.6131E+07  1.7672E-02
      11-
 mid.  surface     2.2130E+08  2.0730E+08 -2.5691E+07  3.2756E+07 -2.1551E+08 -4.8183E+07  8.3487E-03
      12-
 mid.  surface     3.1901E+08  3.3902E+08  2.5728E+08  2.8641E+07 -2.3325E+08 -1.7865E+07  1.6355E-02
      17-
 mid.  surface     1.9010E+08  1.7400E+08 -2.0133E+07  3.4799E+07 -1.5340E+08 -8.0938E+07  9.9035E-03
      18-
 mid.  surface     7.3388E+07  1.3266E+08 -1.9225E+07  2.6047E+07 -1.8650E+07 -2.7990E+07  1.1426E-02
      19-
 mid.  surface    -5.8952E+07 -4.8459E+07 -1.0719E+08 -7.4011E+06 -1.8012E+08  7.1891E+06  2.4797E-02
      20-
 mid.  surface    -6.2368E+07 -8.9416E+07 -3.6856E+08  3.6466E+07  7.9469E+07  7.2553E+07  7.0579E-03
      21-
 mid.  surface    -3.1599E+08 -3.5700E+08 -4.1176E+08 -2.0779E+07  1.1315E+08  4.9467E+07  2.3004E-02
      22-
 mid.  surface    -3.9103E+07 -7.0057E+07 -1.7180E+08  2.0425E+07  1.1557E+08 -2.2291E+07  1.3579E-02
      23-
 mid.  surface    -7.3680E+07 -1.0335E+08 -4.4892E+08  3.4610E+07  7.3945E+07  3.3959E+07  4.2666E-03
      40-
 mid.  surface    -2.0085E+08 -2.0871E+08 -3.7011E+08  1.6444E+07  3.8537E+07 -2.2363E+06  1.7119E-02
      41-
 mid.  surface    -8.3557E+07 -1.1228E+07 -1.8522E+08  1.6204E+07  3.6197E+07  2.7352E+07  1.0887E-02
      85-
 mid.  surface    -7.4627E+08 -6.4593E+08 -9.4039E+08  1.4466E+07  2.1882E+08 -3.0888E+08  8.5263E-03
      86-
 mid.  surface    -2.4227E+08 -1.6748E+08 -4.4481E+08  8.6584E+07  2.9038E+08 -3.5470E+08 -1.7947E-03
     100-
 mid.  surface    -5.6903E+07  1.2683E+07 -2.6785E+08 -2.2821E+07 -1.0724E+08 -8.9113E+06  1.3406E-03
     110-
 mid.  surface    -1.6812E+08 -2.1415E+08 -4.3094E+08 -1.1069E+07 -1.0343E+08 -5.1181E+07  1.1124E-02



 n o d a l  s t r a i n  c a l c u l a t i o n s   f o r   t i m e  s t e p      175   ( at time 4.53893E+00 )

 node (global)
          strain       eps-xx      eps-yy      eps-zz      eps-xy      eps-yz      eps-zx       
       1-
 mid.  surface    -1.2389E-03  6.7724E-03 -1.0191E-02  7.1387E-03 -9.3195E-04  8.3691E-03
       2-
 mid.  surface     1.9855E-04  9.3073E-03 -2.0227E-02  2.9586E-03 -5.9442E-04  1.0671E-02
       8-
 mid.  surface     1.3814E-03  5.6398E-03 -8.1100E-03 -2.3226E-03  4.3833E-03  3.4409E-04
       9-
 mid.  surface     6.6130E-03  5.0298E-03 -1.6139E-02 -1.7281E-03  3.8627E-03  7.3164E-04
      10-
 mid.  surface     6.7560E-03  6.4897E-03 -1.5219E-02  1.9537E-03 -3.2875E-03  1.0671E-03
      11-
 mid.  surface     6.9803E-03  6.0323E-03 -1.1197E-02  2.1602E-03 -1.2923E-02 -3.7405E-03
      12-
 mid.  surface     5.6174E-03  5.7463E-03 -7.1680E-03  2.6826E-03 -1.2990E-02 -8.4371E-03
      17-
 mid.  surface     6.5143E-03  5.5396E-03 -1.0481E-02  2.1761E-03 -9.1171E-03 -6.5366E-03
      18-
 mid.  surface     3.1098E-03  6.7040E-03 -8.9499E-03  2.0501E-03 -1.9555E-03 -1.9742E-03
      19-
 mid.  surface     6.8860E-03  6.6270E-03 -1.4662E-02  2.4159E-04 -8.0296E-03 -7.9095E-03
      20-
 mid.  surface     6.4048E-03  4.6004E-03 -1.3545E-02  2.0857E-03  5.9370E-03  5.1036E-03
      21-
 mid.  surface     7.8832E-03  4.9632E-03 -1.8138E-02 -1.1345E-04  5.4792E-03  7.2763E-03
      22-
 mid.  surface     6.4179E-03  3.6622E-03 -1.1541E-02  2.6457E-03  7.1040E-03  4.1398E-03
      23-
 mid.  surface     7.1550E-03  4.9269E-03 -1.5138E-02  1.9958E-03  7.9040E-03  2.3244E-03
      40-
 mid.  surface     6.3298E-03  5.7334E-03 -1.5827E-02  1.3264E-03  3.3082E-04 -1.6807E-03
      41-
 mid.  surface     1.8595E-03  6.1044E-03 -9.3126E-03  1.3300E-03 -6.2686E-04  7.0040E-04
      85-
 mid.  surface    -3.2244E-04  7.3008E-03 -1.7922E-02  7.6701E-04  3.0034E-03 -1.2824E-02
      86-
 mid.  surface    -1.6657E-03  4.1144E-03 -6.3961E-03  5.4759E-03  8.9753E-03 -1.5305E-02
     100-
 mid.  surface     5.2115E-04  4.6428E-03 -6.6496E-03 -1.2638E-03 -6.3423E-03 -1.6908E-04
     110-
 mid.  surface     6.5328E-03  3.8476E-03 -1.4307E-02 -6.1578E-04 -6.6770E-03 -3.1153E-03



 n o d a l  s t r e s s  c a l c u l a t i o n s   f o r   t i m e  s t e p      183   ( at time 6.52946E+00 )

 node (global)
          stress       sig-xx      sig-yy      sig-zz      sig-xy      sig-yz      sig-zx       plastic
                                                                                                 strain 
       1-
 mid.  surface    -3.2488E+08 -2.2244E+08 -6.4554E+08  7.2983E+07 -6.5889E+06  1.5197E+08  5.2199E-04
       2-
 mid.  surface    -9.9213E+08 -8.8507E+08 -1.3060E+09  4.5671E+07 -1.7658E+07  1.8443E+08  1.5400E-02
       8-
 mid.  surface     2.5759E+07  7.4389E+07 -2.1267E+08 -2.7589E+07  3.6360E+07 -2.4361E+05  1.1010E-02
       9-
 mid.  surface    -2.5508E+08 -2.7554E+08 -5.4051E+08 -2.4831E+07  4.2080E+07  6.1914E+06  2.2891E-02
      10-
 mid.  surface    -1.3623E+07 -3.4472E+07 -2.3008E+08  1.5236E+07 -5.4534E+07  1.0382E+07  3.0532E-02
      11-
 mid.  surface     3.9332E+08  3.7161E+08  1.0203E+08  1.7540E+07 -1.6109E+08 -4.1804E+07  1.6192E-02
      12-
 mid.  surface     5.2202E+08  5.4761E+08  3.6725E+08  1.1624E+07 -1.4739E+08 -2.9216E+07  2.7605E-02
      17-
 mid.  surface     2.8437E+08  2.8424E+08  5.4721E+07  1.4024E+07 -1.4101E+08 -7.7885E+07  2.0644E-02
      18-
 mid.  surface     1.9483E+08  2.2694E+08  2.5418E+07  1.4873E+07 -4.5892E+07 -2.8841E+07  2.2775E-02
      19-
 mid.  surface    -9.9156E+07 -6.7214E+07 -2.2365E+08 -5.4344E+06 -1.2758E+08 -3.2789E+07  4.0335E-02
      20-
 mid.  surface    -8.2115E+07 -9.7450E+07 -3.9443E+08  2.2193E+07  5.7555E+07  5.3763E+07  1.6262E-02
      21-
 mid.  surface    -4.5170E+08 -4.7423E+08 -6.2820E+08 -8.8215E+06  8.0514E+07  2.1818E+07  3.8241E-02
      22-
 mid.  surface     2.4228E+07  6.5210E+06 -1.7746E+08  1.5231E+07  1.0220E+08 -6.4431E+05  2.5172E-02
      23-
 mid.  surface    -4.9420E+07 -7.6688E+07 -4.1881E+08  2.3129E+07  8.9442E+07  3.9983E+07  1.1678E-02
      40-
 mid.  surface    -2.6440E+08 -2.8773E+08 -5.0636E+08  7.9536E+06  3.6598E+07  6.1981E+04  2.9461E-02
      41-
 mid.  surface    -9.3213E+07 -5.8447E+07 -2.7579E+08  9.0739E+06  1.8480E+07  2.1041E+07  2.1660E-02
      85-
 mid.  surface    -1.0888E+09 -1.0206E+09 -1.3017E+09  9.3980E+06  1.2105E+08 -2.0595E+08  1.9877E-02
      86-
 mid.  surface    -3.0418E+08 -2.4364E+08 -5.1607E+08  4.9917E+07  1.7293E+08 -2.1759E+08  6.0469E-03
     100-
 mid.  surface    -1.4090E+08 -1.0352E+08 -3.5856E+08 -1.8779E+07 -6.3900E+07  4.5035E+06  1.0612E-02
     110-
 mid.  surface    -3.2108E+08 -3.6128E+08 -5.8534E+08 -1.6657E+07 -5.5944E+07 -2.8504E+07  2.3907E-02



 n o d a l  s t r a i n  c a l c u l a t i o n s   f o r   t i m e  s t e p      183   ( at time 6.52946E+00 )

 node (global)
          strain       eps-xx      eps-yy      eps-zz      eps-xy      eps-yz      eps-zx       
       1-
 mid.  surface     6.3776E-04  1.3445E-02 -1.9565E-02  9.3117E-03 -1.1858E-03  1.2556E-02
       2-
 mid.  surface     2.4827E-03  1.6205E-02 -3.3565E-02  4.2448E-03 -6.5418E-04  1.5426E-02
       8-
 mid.  surface     4.9799E-03  1.1406E-02 -1.6975E-02 -3.5474E-03  5.5204E-03  2.5332E-04
       9-
 mid.  surface     1.3102E-02  1.0495E-02 -2.8819E-02 -3.0001E-03  5.0458E-03  7.7828E-04
      10-
 mid.  surface     1.2944E-02  1.1323E-02 -2.5739E-02  2.7463E-03 -6.4069E-03  1.1547E-03
      11-
 mid.  surface     1.2518E-02  1.0509E-02 -1.9072E-02  2.8783E-03 -1.9594E-02 -5.7028E-03
      12-
 mid.  surface     9.6974E-03  1.1173E-02 -1.4239E-02  3.3176E-03 -1.8705E-02 -1.1660E-02
      17-
 mid.  surface     1.1572E-02  1.0821E-02 -1.9581E-02  2.5920E-03 -1.4873E-02 -1.0174E-02
      18-
 mid.  surface     7.2705E-03  1.2192E-02 -1.7412E-02  2.8357E-03 -4.5973E-03 -3.3575E-03
      19-
 mid.  surface     1.1204E-02  1.2493E-02 -2.5743E-02  2.6215E-04 -1.2269E-02 -1.1468E-02
      20-
 mid.  surface     1.1889E-02  9.4456E-03 -2.4239E-02  2.9088E-03  9.3798E-03  7.7077E-03
      21-
 mid.  surface     1.3513E-02  9.5448E-03 -3.0690E-02 -5.6731E-05  8.1918E-03  9.3357E-03
      22-
 mid.  surface     1.1430E-02  8.0904E-03 -2.0441E-02  3.7281E-03  1.0475E-02  5.6652E-03
      23-
 mid.  surface     1.2869E-02  9.3564E-03 -2.4996E-02  2.8417E-03  1.2809E-02  4.1357E-03
      40-
 mid.  surface     1.2070E-02  9.8270E-03 -2.7063E-02  1.6312E-03  1.5361E-03 -2.1527E-03
      41-
 mid.  surface     5.3422E-03  1.0760E-02 -1.8202E-02  1.7609E-03 -2.7027E-05  1.5145E-03
      85-
 mid.  surface     1.7900E-03  1.2485E-02 -3.0389E-02  7.5688E-04  5.4900E-03 -1.9508E-02
      86-
 mid.  surface     2.4774E-04  8.9980E-03 -1.4216E-02  7.1323E-03  1.3480E-02 -2.2397E-02
     100-
 mid.  surface     3.2800E-03  8.7596E-03 -1.4943E-02 -2.2025E-03 -9.1174E-03  2.5734E-04
     110-
 mid.  surface     1.2479E-02  7.6845E-03 -2.6345E-02 -1.6512E-03 -9.2627E-03 -4.4791E-03



 n o d a l  s t r e s s  c a l c u l a t i o n s   f o r   t i m e  s t e p      189   ( at time 8.52000E+00 )

 node (global)
          stress       sig-xx      sig-yy      sig-zz      sig-xy      sig-yz      sig-zx       plastic
                                                                                                 strain 
       1-
 mid.  surface    -3.2222E+08 -2.5054E+08 -6.0142E+08  4.2263E+07 -7.9847E+06  7.9836E+07  8.3472E-03
       2-
 mid.  surface    -1.1642E+09 -1.0930E+09 -1.4474E+09  3.1394E+07 -1.4840E+07  1.0391E+08  2.5195E-02
       8-
 mid.  surface     8.4093E+07  1.2797E+08 -1.4600E+08 -2.3613E+07  1.0751E+06 -6.6705E+04  1.9743E-02
       9-
 mid.  surface    -3.0244E+08 -3.1125E+08 -5.6778E+08 -2.0817E+07  4.7533E+06  4.6997E+06  3.4102E-02
      10-
 mid.  surface     3.4409E+07  2.1229E+07 -2.2536E+08  1.5159E+07 -6.6555E+07  3.6475E+06  4.0243E-02
      11-
 mid.  surface     4.4593E+08  4.2312E+08  1.6549E+08  9.0987E+06 -1.2885E+08 -2.8736E+07  2.4587E-02
      12-
 mid.  surface     6.4069E+08  6.6184E+08  4.1984E+08  5.9461E+06 -1.1396E+08 -3.7816E+07  3.5820E-02
      17-
 mid.  surface     3.1787E+08  3.2176E+08  8.3130E+07  8.9342E+06 -1.1853E+08 -5.8925E+07  3.0448E-02
      18-
 mid.  surface     3.0906E+08  3.3692E+08  8.4811E+07  1.4942E+07 -6.3369E+07 -2.4716E+07  3.1261E-02
      19-
 mid.  surface    -1.3014E+08 -9.6938E+07 -3.3222E+08  5.4907E+05 -1.0298E+08 -4.3221E+07  5.0852E-02
      20-
 mid.  surface    -1.1658E+08 -1.2403E+08 -4.1598E+08  1.9024E+07  4.8247E+07  3.5129E+07  2.5218E-02
      21-
 mid.  surface    -5.3465E+08 -5.5766E+08 -7.9451E+08  4.1069E+06  6.0764E+07  1.7090E+07  4.8498E-02
      22-
 mid.  surface     6.9720E+07  4.9409E+07 -1.9765E+08  1.6665E+07  7.8575E+07  2.6135E+06  3.3490E-02
      23-
 mid.  surface    -7.1431E+07 -9.3906E+07 -4.0692E+08  1.5884E+07  7.6767E+07  2.3432E+07  1.9762E-02
      40-
 mid.  surface    -3.1955E+08 -3.3465E+08 -6.0192E+08  5.6478E+06  3.3975E+07 -4.5328E+06  3.8970E-02
      41-
 mid.  surface    -8.5822E+07 -5.5345E+07 -3.2216E+08  7.2856E+06  2.0908E+07  1.2695E+07  2.9896E-02
      85-
 mid.  surface    -1.3136E+09 -1.2914E+09 -1.5480E+09 -3.7699E+05  9.2969E+07 -1.2489E+08  3.0518E-02
      86-
 mid.  surface    -3.2335E+08 -2.9864E+08 -5.4253E+08  2.5042E+07  1.2772E+08 -1.3179E+08  1.5058E-02
     100-
 mid.  surface    -1.8745E+08 -1.5619E+08 -4.0778E+08 -1.2371E+07 -3.1422E+07  6.4685E+06  1.9188E-02
     110-
 mid.  surface    -4.5563E+08 -4.8443E+08 -7.1699E+08 -9.8711E+06 -2.6895E+07 -1.9538E+07  3.4963E-02



 n o d a l  s t r a i n  c a l c u l a t i o n s   f o r   t i m e  s t e p      189   ( at time 8.52000E+00 )

 node (global)
          strain       eps-xx      eps-yy      eps-zz      eps-xy      eps-yz      eps-zx       
       1-
 mid.  surface     3.5814E-03  1.8707E-02 -2.7664E-02  1.0397E-02 -1.2609E-03  1.3616E-02
       2-
 mid.  surface     5.3861E-03  2.1570E-02 -4.4289E-02  5.2552E-03 -4.8974E-04  1.7166E-02
       8-
 mid.  surface     8.1413E-03  1.6591E-02 -2.4508E-02 -4.4400E-03  5.0318E-03  2.9582E-04
       9-
 mid.  surface     1.8011E-02  1.5357E-02 -3.9184E-02 -3.8466E-03  4.3657E-03  8.7050E-04
      10-
 mid.  surface     1.7847E-02  1.5881E-02 -3.4751E-02  3.5076E-03 -9.5312E-03  1.0998E-03
      11-
 mid.  surface     1.7204E-02  1.4173E-02 -2.6679E-02  3.2807E-03 -2.4109E-02 -6.6954E-03
      12-
 mid.  surface     1.3461E-02  1.5575E-02 -2.1079E-02  3.6312E-03 -2.2665E-02 -1.3841E-02
      17-
 mid.  surface     1.5823E-02  1.5407E-02 -2.7997E-02  3.0161E-03 -1.8621E-02 -1.2105E-02
      18-
 mid.  surface     1.0961E-02  1.7308E-02 -2.4913E-02  3.6363E-03 -7.2673E-03 -4.2486E-03
      19-
 mid.  surface     1.4821E-02  1.7485E-02 -3.5192E-02  5.9702E-04 -1.5205E-02 -1.3640E-02
      20-
 mid.  surface     1.6358E-02  1.3793E-02 -3.3522E-02  3.6321E-03  1.1430E-02  8.8801E-03
      21-
 mid.  surface     1.8359E-02  1.3500E-02 -4.1160E-02  3.8335E-04  9.6462E-03  1.0361E-02
      22-
 mid.  surface     1.6112E-02  1.1713E-02 -2.8504E-02  4.4913E-03  1.2181E-02  6.0945E-03
      23-
 mid.  surface     1.7618E-02  1.3039E-02 -3.3635E-02  3.3342E-03  1.5501E-02  4.6035E-03
      40-
 mid.  surface     1.6742E-02  1.3866E-02 -3.6775E-02  1.8428E-03  2.4670E-03 -2.6559E-03
      41-
 mid.  surface     8.5314E-03  1.5316E-02 -2.6159E-02  2.0994E-03  8.5763E-04  1.8786E-03
      85-
 mid.  surface     5.1807E-03  1.6382E-02 -4.1247E-02  5.2410E-04  7.8031E-03 -2.2846E-02
      86-
 mid.  surface     3.7809E-03  1.2846E-02 -2.2120E-02  7.6095E-03  1.6905E-02 -2.6329E-02
     100-
 mid.  surface     5.9987E-03  1.2790E-02 -2.2420E-02 -2.5449E-03 -1.0306E-02  5.4078E-04
     110-
 mid.  surface     1.7234E-02  1.1343E-02 -3.6667E-02 -1.9430E-03 -1.0699E-02 -5.4135E-03



 n o d a l  s t r e s s  c a l c u l a t i o n s   f o r   t i m e  s t e p      197   ( at time 1.16748E+01 )

 node (global)
          stress       sig-xx      sig-yy      sig-zz      sig-xy      sig-yz      sig-zx       plastic
                                                                                                 strain 
       1-
 mid.  surface    -2.2677E+08 -2.1194E+08 -4.8779E+08  2.2390E+07 -2.0047E+07  3.0324E+07  2.4047E-02
       2-
 mid.  surface    -1.2954E+09 -1.2794E+09 -1.5696E+09  3.1254E+07 -2.0425E+07  5.4616E+07  4.3056E-02
       8-
 mid.  surface     1.4027E+08  1.8226E+08 -7.8802E+07 -2.4541E+07 -2.7788E+07  1.9437E+06  3.3171E-02
       9-
 mid.  surface    -3.9443E+08 -4.0678E+08 -6.4454E+08 -2.4064E+07 -1.7633E+07  6.3090E+06  5.1603E-02
      10-
 mid.  surface     8.4233E+07  7.5661E+07 -1.8684E+08  8.8384E+06 -7.2839E+07 -9.7694E+05  5.5578E-02
      11-
 mid.  surface     5.1570E+08  4.8805E+08  2.3285E+08  3.4615E+06 -1.2119E+08 -3.8089E+07  3.6978E-02
      12-
 mid.  surface     6.7914E+08  7.1953E+08  4.4330E+08  3.0306E+04 -8.7742E+07 -5.7116E+07  4.6325E-02
      17-
 mid.  surface     3.1699E+08  3.0483E+08  5.6421E+07  5.1143E+06 -1.1701E+08 -5.9402E+07  4.5054E-02
      18-
 mid.  surface     4.3817E+08  4.6635E+08  1.9894E+08  1.6215E+07 -8.0322E+07 -2.7869E+07  4.4346E-02
      19-
 mid.  surface    -2.8736E+08 -2.3679E+08 -5.1818E+08 -5.6220E+05 -8.4126E+07 -5.3361E+07  6.4672E-02
      20-
 mid.  surface    -1.6703E+08 -1.8031E+08 -4.7755E+08  1.7064E+07  5.4366E+07  5.3117E+07  3.9749E-02
      21-
 mid.  surface    -6.0049E+08 -5.9577E+08 -8.8237E+08  1.8744E+07  6.8923E+07  4.7317E+07  6.3940E-02
      22-
 mid.  surface     1.6975E+08  1.6910E+08 -1.0702E+08  1.9609E+07  8.3743E+07  2.0895E+07  4.6322E-02
      23-
 mid.  surface    -4.9379E+07 -9.5430E+07 -3.8966E+08  1.0981E+07  8.5528E+07  2.8728E+07  3.2670E-02
      40-
 mid.  surface    -3.9537E+08 -3.9805E+08 -6.9252E+08  8.6624E+06  5.1974E+07 -5.0663E+05  5.4043E-02
      41-
 mid.  surface    -4.7596E+07 -5.5550E+06 -3.0480E+08  1.3019E+07  3.1277E+07  1.5847E+07  4.2431E-02
      85-
 mid.  surface    -1.6723E+09 -1.6572E+09 -1.9217E+09  1.1467E+07  7.0633E+07 -6.9828E+07  4.7997E-02
      86-
 mid.  surface    -3.6494E+08 -3.4283E+08 -5.9208E+08  1.9998E+07  8.9755E+07 -8.0788E+07  3.0736E-02
     100-
 mid.  surface    -2.5109E+08 -2.1166E+08 -4.6317E+08 -1.2750E+07 -3.4537E+06  1.5124E+07  3.2695E-02
     110-
 mid.  surface    -6.4779E+08 -6.6988E+08 -9.0255E+08 -1.0332E+07  5.3226E+06 -9.3530E+06  5.2426E-02



 n o d a l  s t r a i n  c a l c u l a t i o n s   f o r   t i m e  s t e p      197   ( at time 1.16748E+01 )

 node (global)
          strain       eps-xx      eps-yy      eps-zz      eps-xy      eps-yz      eps-zx       
       1-
 mid.  surface     1.1591E-02  2.5874E-02 -4.1719E-02  1.1710E-02 -2.3773E-03  1.4084E-02
       2-
 mid.  surface     1.3230E-02  2.9425E-02 -6.2087E-02  7.8904E-03 -1.3057E-03  1.9158E-02
       8-
 mid.  surface     1.2560E-02  2.4135E-02 -3.5705E-02 -5.9290E-03  3.5770E-03  5.7947E-04
       9-
 mid.  surface     2.5268E-02  2.2248E-02 -5.4744E-02 -5.3662E-03  3.0105E-03  1.1990E-03
      10-
 mid.  surface     2.5295E-02  2.2984E-02 -4.8783E-02  4.2458E-03 -1.3681E-02  9.5685E-04
      11-
 mid.  surface     2.4202E-02  1.9104E-02 -3.7790E-02  3.7849E-03 -3.0054E-02 -8.7013E-03
      12-
 mid.  surface     1.6746E-02  2.1942E-02 -3.0209E-02  3.6436E-03 -2.7451E-02 -1.7466E-02
      17-
 mid.  surface     2.3092E-02  2.1175E-02 -4.1346E-02  3.5638E-03 -2.3226E-02 -1.5181E-02
      18-
 mid.  surface     1.6417E-02  2.4903E-02 -3.6284E-02  4.9882E-03 -1.1319E-02 -5.8284E-03
      19-
 mid.  surface     1.8615E-02  2.4901E-02 -4.8695E-02  8.3130E-04 -1.8679E-02 -1.6516E-02
      20-
 mid.  surface     2.3949E-02  2.0343E-02 -4.8640E-02  4.6572E-03  1.4824E-02  1.2149E-02
      21-
 mid.  surface     2.4859E-02  2.1396E-02 -5.6651E-02  1.6845E-03  1.2568E-02  1.3662E-02
      22-
 mid.  surface     2.2267E-02  1.8363E-02 -4.0016E-02  5.5968E-03  1.5333E-02  7.1838E-03
      23-
 mid.  surface     2.5995E-02  1.7857E-02 -4.6847E-02  3.8905E-03  1.9701E-02  6.1298E-03
      40-
 mid.  surface     2.3838E-02  2.0812E-02 -5.2053E-02  2.5442E-03  5.0358E-03 -3.0109E-03
      41-
 mid.  surface     1.3277E-02  2.3096E-02 -3.8273E-02  3.1234E-03  2.7214E-03  2.7253E-03
      85-
 mid.  surface     1.0832E-02  2.3483E-02 -5.9349E-02  1.6338E-03  1.1088E-02 -2.6195E-02
      86-
 mid.  surface     9.9384E-03  1.9930E-02 -3.6184E-02  8.5830E-03  2.1384E-02 -3.0848E-02
     100-
 mid.  surface     9.7753E-03  1.9467E-02 -3.3751E-02 -3.2649E-03 -1.0915E-02  1.5961E-03
     110-
 mid.  surface     2.4325E-02  1.7292E-02 -5.2505E-02 -2.5338E-03 -1.1290E-02 -6.2758E-03



 n o d a l  s t r e s s  c a l c u l a t i o n s   f o r   t i m e  s t e p      205   ( at time 1.48296E+01 )

 node (global)
          stress       sig-xx      sig-yy      sig-zz      sig-xy      sig-yz      sig-zx       plastic
                                                                                                 strain 
       1-
 mid.  surface    -7.2196E+07 -5.3470E+07 -3.2832E+08  1.0976E+07 -1.1320E+07 -8.1873E+06  3.7417E-02
       2-
 mid.  surface    -1.4557E+09 -1.4451E+09 -1.7208E+09  8.2239E+06 -1.0057E+07  1.7117E+07  5.8456E-02
       8-
 mid.  surface     2.1630E+08  2.5131E+08  2.2510E+06 -2.2869E+07 -4.6203E+07  2.3215E+06  4.7939E-02
       9-
 mid.  surface    -4.8364E+08 -4.9858E+08 -7.2960E+08 -2.6675E+07 -2.6889E+07  6.6143E+06  7.0077E-02
      10-
 mid.  surface     2.3671E+08  2.2097E+08 -5.7216E+07  1.7932E+07 -9.9874E+07 -1.5834E+07  6.9546E-02
      11-
 mid.  surface     4.5184E+08  4.5538E+08  1.7370E+08 -1.0685E+07 -9.1531E+07 -2.1009E+07  4.8561E-02
      12-
 mid.  surface     7.0796E+08  7.2898E+08  4.4769E+08 -6.4346E+06 -5.6386E+07 -1.8882E+07  6.0134E-02
      17-
 mid.  surface     1.9840E+08  2.2389E+08 -5.4056E+07 -6.9933E+06 -1.1947E+08 -5.1741E+07  5.9009E-02
      18-
 mid.  surface     5.9097E+08  6.0616E+08  3.2011E+08  1.8982E+07 -1.0649E+08 -3.3012E+07  5.7387E-02
      19-
 mid.  surface    -4.4961E+08 -4.1656E+08 -7.0234E+08 -1.6522E+06 -7.5292E+07 -5.2505E+07  8.0848E-02
      20-
 mid.  surface    -1.0672E+08 -1.0616E+08 -4.1275E+08  2.4379E+07  5.8024E+07  4.1574E+07  5.4951E-02
      21-
 mid.  surface    -6.1959E+08 -6.3548E+08 -9.2918E+08  3.3319E+07  4.0723E+07  1.6811E+07  8.0796E-02
      22-
 mid.  surface     3.6478E+08  3.4993E+08  7.0962E+07  2.6310E+07  7.0224E+07  3.6243E+07  6.2522E-02
      23-
 mid.  surface     5.4779E+07  3.3268E+07 -2.5273E+08  1.3648E+07  1.0707E+08  3.7231E+07  4.7981E-02
      40-
 mid.  surface    -4.6698E+08 -4.9099E+08 -7.8902E+08  4.2110E+06  6.4946E+07 -5.4238E+05  6.8356E-02
      41-
 mid.  surface    -9.0191E+07 -7.4777E+07 -3.7883E+08  6.4978E+05  4.6382E+07  1.9740E+07  5.5536E-02
      85-
 mid.  surface    -2.0462E+09 -2.0148E+09 -2.3095E+09 -9.3238E+06  5.3682E+07 -2.4084E+07  6.2200E-02
      86-
 mid.  surface    -3.9490E+08 -3.5277E+08 -6.4390E+08  1.5247E+06  6.4208E+07 -4.3226E+07  4.3145E-02
     100-
 mid.  surface    -2.7204E+08 -2.2423E+08 -4.6924E+08 -9.8321E+06  9.1655E+06  2.0291E+07  4.8134E-02
     110-
 mid.  surface    -8.4054E+08 -8.4670E+08 -1.0773E+09 -1.0114E+07  2.7877E+07 -4.6090E+06  7.1679E-02



 n o d a l  s t r a i n  c a l c u l a t i o n s   f o r   t i m e  s t e p      205   ( at time 1.48296E+01 )

 node (global)
          strain       eps-xx      eps-yy      eps-zz      eps-xy      eps-yz      eps-zx       
       1-
 mid.  surface     1.8028E-02  3.3409E-02 -5.3451E-02  1.2863E-02 -2.6489E-03  1.2686E-02
       2-
 mid.  surface     1.9332E-02  3.5976E-02 -7.7023E-02  8.6304E-03 -8.9266E-04  1.9857E-02
       8-
 mid.  surface     1.7592E-02  3.2178E-02 -4.7788E-02 -7.3258E-03  1.5560E-03  8.1265E-04
       9-
 mid.  surface     3.2852E-02  2.9385E-02 -7.0897E-02 -7.0649E-03  1.4221E-03  1.4586E-03
      10-
 mid.  surface     3.3050E-02  2.9943E-02 -6.1630E-02  5.9887E-03 -1.9115E-02  5.1158E-05
      11-
 mid.  surface     2.9286E-02  2.4552E-02 -4.9178E-02  2.8610E-03 -3.5145E-02 -9.4059E-03
      12-
 mid.  surface     2.2569E-02  2.8865E-02 -4.2830E-02  3.6595E-03 -3.0397E-02 -1.7941E-02
      17-
 mid.  surface     2.7755E-02  2.8349E-02 -5.4768E-02  2.8824E-03 -2.8544E-02 -1.7353E-02
      18-
 mid.  surface     2.2837E-02  3.2712E-02 -4.8653E-02  6.8678E-03 -1.5821E-02 -7.5674E-03
      19-
 mid.  surface     2.3930E-02  3.2566E-02 -6.4287E-02  1.1152E-03 -2.1548E-02 -1.8530E-02
      20-
 mid.  surface     3.1679E-02  2.8349E-02 -6.3623E-02  6.1110E-03  1.8540E-02  1.4374E-02
      21-
 mid.  surface     3.3275E-02  2.9168E-02 -7.3544E-02  3.9638E-03  1.4027E-02  1.3862E-02
      22-
 mid.  surface     3.1320E-02  2.6170E-02 -5.4458E-02  7.4605E-03  1.7539E-02  8.8646E-03
      23-
 mid.  surface     3.4459E-02  2.4565E-02 -6.0446E-02  4.6564E-03  2.4672E-02  7.5912E-03
      40-
 mid.  surface     3.1541E-02  2.6213E-02 -6.6556E-02  2.7299E-03  7.8066E-03 -3.2626E-03
      41-
 mid.  surface     1.9170E-02  2.9635E-02 -5.1711E-02  3.1153E-03  6.1895E-03  3.8100E-03
      85-
 mid.  surface     1.4595E-02  3.0211E-02 -7.5285E-02  4.6910E-04  1.3981E-02 -2.6957E-02
      86-
 mid.  surface     1.4246E-02  2.7658E-02 -4.8764E-02  8.1955E-03  2.4594E-02 -3.3624E-02
     100-
 mid.  surface     1.3925E-02  2.7414E-02 -4.6099E-02 -3.7130E-03 -1.1392E-02  2.8442E-03
     110-
 mid.  surface     3.1272E-02  2.4280E-02 -6.9168E-02 -3.0675E-03 -1.1377E-02 -7.1635E-03



 n o d a l  s t r e s s  c a l c u l a t i o n s   f o r   t i m e  s t e p      213   ( at time 1.79844E+01 )

 node (global)
          stress       sig-xx      sig-yy      sig-zz      sig-xy      sig-yz      sig-zx       plastic
                                                                                                 strain 
       1-
 mid.  surface    -2.8984E+09 -2.8626E+09 -1.8162E+09 -2.6919E+06  1.0338E+08  7.1727E+07 -1.4074E-02
       2-
 mid.  surface    -4.7683E+09 -4.7902E+09 -3.7291E+09 -1.8895E+07  1.1584E+08  1.7557E+08  9.6892E-03
       8-
 mid.  surface     3.1662E+08  3.4072E+08  1.2173E+08 -1.6361E+07 -8.3508E+07  3.2962E+05  6.6552E-02
       9-
 mid.  surface    -4.5363E+08 -4.5126E+08 -6.8143E+08 -1.3195E+07 -6.6424E+07  9.3031E+05  8.9882E-02
      10-
 mid.  surface     3.0854E+08  2.7213E+08 -2.1306E+07 -8.2683E+06 -9.8449E+07  4.5236E+06  8.2693E-02
      11-
 mid.  surface     3.3685E+08  3.1498E+08  4.4003E+07 -2.7591E+07 -5.6664E+07  1.7417E+07  6.3427E-02
      12-
 mid.  surface    -7.8582E+08 -7.3192E+08 -3.6780E+08 -1.4762E+07 -3.2194E+06  2.6758E+07  4.1593E-02
      17-
 mid.  surface    -1.0280E+08 -1.0168E+08 -3.3163E+08 -3.9791E+07 -1.3136E+08 -6.7632E+07  7.8930E-02
      18-
 mid.  surface     6.3523E+08  6.3543E+08  3.5828E+08 -8.6050E+06 -1.5645E+08 -2.5790E+07  7.1476E-02
      19-
 mid.  surface    -2.3734E+09 -2.3539E+09 -1.9671E+09 -3.7900E+07 -8.9520E+06  3.5151E+07  6.6800E-02
      20-
 mid.  surface     8.8306E+07  9.7257E+07 -1.8924E+08  4.3120E+07  2.0359E+07 -2.9579E+06  7.6068E-02
      21-
 mid.  surface     8.5252E+08  8.6067E+08 -1.6259E+08  3.0855E+07 -3.5332E+07 -4.4757E+07  1.3801E-01
      22-
 mid.  surface     2.2320E+09  2.2438E+09  1.2122E+09  3.6643E+07 -1.4196E+07 -6.0549E+07  1.1533E-01
      23-
 mid.  surface     4.3333E+08  3.9453E+08  1.2761E+08  4.3306E+07  1.2644E+08  5.2115E+07  6.8968E-02
      40-
 mid.  surface    -3.8001E+08 -4.0484E+08 -7.1471E+08 -2.7190E+06  1.0421E+08  1.3244E+07  8.5010E-02
      41-
 mid.  surface    -3.9707E+07 -2.4203E+07 -3.3581E+08  3.7866E+06  2.7115E+07  7.6150E+06  7.0150E-02
      85-
 mid.  surface     1.2226E+09  1.2458E+09 -5.0611E+08  1.2552E+07 -6.7509E+07 -1.1064E+08  1.5406E-01
      86-
 mid.  surface     3.2115E+09  3.2752E+09  1.5201E+09  1.3103E+07 -6.7433E+07 -2.1705E+08  1.3214E-01
     100-
 mid.  surface    -4.0205E+08 -4.2265E+08 -6.0099E+08 -1.0298E+07  4.4584E+07  1.3549E+07  6.8236E-02
     110-
 mid.  surface    -1.0738E+09 -1.1124E+09 -1.3070E+09 -1.4160E+07  6.6454E+07 -4.1486E+06  9.3489E-02



 n o d a l  s t r a i n  c a l c u l a t i o n s   f o r   t i m e  s t e p      213   ( at time 1.79844E+01 )

 node (global)
          strain       eps-xx      eps-yy      eps-zz      eps-xy      eps-yz      eps-zx       
       1-
 mid.  surface     3.0793E-02  4.3787E-02 -6.6014E-02  1.6285E-02 -4.3757E-03  6.5226E-03
       2-
 mid.  surface     3.3215E-02  4.3203E-02 -9.5169E-02  1.0642E-02 -5.8043E-04  2.1333E-02
       8-
 mid.  surface     2.3691E-02  4.1732E-02 -6.2134E-02 -8.6695E-03 -2.3508E-03  1.0253E-03
       9-
 mid.  surface     4.0428E-02  3.7697E-02 -8.6391E-02 -7.5605E-03 -4.1353E-03  1.1607E-03
      10-
 mid.  surface     4.1351E-02  3.5645E-02 -7.5033E-02  5.1727E-03 -2.5340E-02  9.6123E-04
      11-
 mid.  surface     3.6841E-02  2.9979E-02 -6.4092E-02  8.1709E-04 -3.8842E-02 -7.7624E-03
      12-
 mid.  surface     3.0060E-02  3.8459E-02 -5.5163E-02  4.9420E-03 -3.4893E-02 -2.1387E-02
      17-
 mid.  surface     3.4717E-02  3.4631E-02 -7.2522E-02 -5.2630E-04 -3.4767E-02 -2.0378E-02
      18-
 mid.  surface     2.9295E-02  3.9945E-02 -6.1980E-02  5.9456E-03 -2.3388E-02 -7.9766E-03
      19-
 mid.  surface     3.2413E-02  4.0158E-02 -8.2701E-02  9.4517E-05 -2.4176E-02 -2.0017E-02
      20-
 mid.  surface     4.1971E-02  3.9535E-02 -8.2429E-02  9.7079E-03  2.0559E-02  1.3594E-02
      21-
 mid.  surface     3.7773E-02  3.8442E-02 -9.4053E-02  4.1598E-03  1.5759E-02  1.6594E-02
      22-
 mid.  surface     3.6319E-02  3.5204E-02 -6.9107E-02  8.2437E-03  1.8603E-02  9.1082E-03
      23-
 mid.  surface     4.7351E-02  3.3708E-02 -7.7428E-02  8.2954E-03  3.0575E-02  1.0156E-02
      40-
 mid.  surface     4.1103E-02  3.3290E-02 -8.2215E-02  2.4968E-03  1.2521E-02 -3.3064E-03
      41-
 mid.  surface     2.5796E-02  3.7973E-02 -6.6172E-02  3.5253E-03  9.5312E-03  4.1958E-03
      85-
 mid.  surface     1.5809E-02  3.9867E-02 -9.6169E-02 -2.3140E-03  1.8283E-02 -2.3580E-02
      86-
 mid.  surface     1.4975E-02  3.8777E-02 -6.4401E-02  5.1297E-03  2.8432E-02 -3.8346E-02
     100-
 mid.  surface     2.1364E-02  3.2983E-02 -6.1430E-02 -4.5874E-03 -8.7590E-03  3.4817E-03
     110-
 mid.  surface     4.0169E-02  2.8819E-02 -8.6235E-02 -3.9927E-03 -1.0582E-02 -8.3734E-03



 n o d a l  s t r e s s  c a l c u l a t i o n s   f o r   t i m e  s t e p      223   ( at time 2.11391E+01 )

 node (global)
          stress       sig-xx      sig-yy      sig-zz      sig-xy      sig-yz      sig-zx       plastic
                                                                                                 strain 
       1-
 mid.  surface    -2.3092E+09 -2.3981E+09 -1.6817E+09  3.7688E+07  7.8178E+07  5.4602E+07 -3.7894E-02
       2-
 mid.  surface    -3.8316E+09 -3.8951E+09 -3.4108E+09  8.2961E+07  7.0857E+07  4.2434E+07 -3.6014E-03
       8-
 mid.  surface     3.7582E+08  3.7474E+08  2.1577E+08 -1.1502E+06 -1.4235E+08 -7.3024E+06  9.1202E-02
       9-
 mid.  surface    -4.8213E+08 -4.6036E+08 -6.8952E+08 -2.4445E+07 -7.0740E+07  3.0436E+06  1.1324E-01
      10-
 mid.  surface     4.0651E+08  3.3417E+08  5.7006E+07 -1.9016E+07 -1.0363E+08 -1.7738E+07  9.2477E-02
      11-
 mid.  surface     5.0147E+08  4.8587E+08  2.4128E+08 -6.5773E+06 -8.8039E+07  3.0419E+06  8.1432E-02
      12-
 mid.  surface    -1.5693E+09 -1.5214E+09 -9.3165E+08 -3.3877E+07  1.4992E+07  7.1649E+07  1.0460E-02
      17-
 mid.  surface    -2.7287E+08 -2.5206E+08 -4.5916E+08 -1.8836E+07 -1.5010E+08 -4.7516E+07  1.0295E-01
      18-
 mid.  surface     5.8418E+08  5.4608E+08  3.0255E+08 -1.8483E+07 -1.6637E+08 -3.8129E+07  8.3764E-02
      19-
 mid.  surface    -2.6335E+09 -2.5816E+09 -2.3875E+09 -6.7738E+06 -2.9105E+07 -1.2420E+06  6.0990E-02
      20-
 mid.  surface    -7.7022E+07 -8.9185E+07 -3.6307E+08  1.6980E+07  2.2278E+07  1.3967E+07  9.7540E-02
      21-
 mid.  surface     5.3519E+08  5.7201E+08 -2.8972E+08 -2.0064E+07 -1.3464E+07 -5.6586E+07  1.7499E-01
      22-
 mid.  surface     1.4615E+09  1.5220E+09  1.0217E+09 -3.2391E+07  3.5411E+07  1.0670E+07  1.3127E-01
      23-
 mid.  surface     5.0212E+08  5.1137E+08  2.1668E+08  2.4382E+07  1.1176E+08  4.6739E+07  8.8703E-02
      40-
 mid.  surface    -2.5921E+08 -2.9359E+08 -6.1919E+08 -1.8811E+07  1.4437E+08  8.3777E+06  9.8089E-02
      41-
 mid.  surface     1.2893E+07 -1.5107E+07 -3.1302E+08 -8.7269E+06  5.9066E+07  8.6609E+06  8.2822E-02
      85-
 mid.  surface     2.4667E+09  2.5553E+09  3.3729E+08 -4.2129E+07 -2.8331E+07 -1.8260E+08  2.6018E-01
      86-
 mid.  surface     3.0004E+09  3.0844E+09  1.7136E+09 -8.6409E+07 -1.8750E+07 -1.0757E+08  1.9609E-01
     100-
 mid.  surface    -5.4773E+08 -5.3471E+08 -7.3822E+08  5.4673E+06  1.7114E+07  3.4419E+07  9.0867E-02
     110-
 mid.  surface    -1.2315E+09 -1.2053E+09 -1.4475E+09 -7.7972E+06  1.0912E+08  2.4931E+07  1.1875E-01



 n o d a l  s t r a i n  c a l c u l a t i o n s   f o r   t i m e  s t e p      223   ( at time 2.11391E+01 )

 node (global)
          strain       eps-xx      eps-yy      eps-zz      eps-xy      eps-yz      eps-zx       
       1-
 mid.  surface     4.0955E-02  5.2285E-02 -8.2212E-02  1.3893E-02 -4.3230E-03  5.4780E-03
       2-
 mid.  surface     4.2443E-02  5.2806E-02 -1.1214E-01  1.1644E-02 -2.6711E-04  1.9551E-02
       8-
 mid.  surface     3.2225E-02  5.2430E-02 -8.0678E-02 -8.4035E-03 -8.0229E-03  1.0464E-04
       9-
 mid.  surface     4.8484E-02  4.7447E-02 -1.0464E-01 -9.4091E-03 -9.8900E-03 -4.7456E-05
      10-
 mid.  surface     4.9512E-02  3.7845E-02 -8.4357E-02  4.0974E-03 -3.2533E-02 -3.4724E-05
      11-
 mid.  surface     4.6135E-02  3.7901E-02 -7.8936E-02  1.7143E-03 -4.3652E-02 -7.3038E-03
      12-
 mid.  surface     3.0566E-02  4.7212E-02 -6.5546E-02  1.1113E-03 -3.5953E-02 -2.1202E-02
      17-
 mid.  surface     4.2338E-02  4.4298E-02 -9.2214E-02 -9.6712E-04 -3.9428E-02 -2.0846E-02
      18-
 mid.  surface     3.5411E-02  4.4416E-02 -7.3571E-02  4.7803E-03 -2.9846E-02 -9.3188E-03
      19-
 mid.  surface     3.2414E-02  4.8967E-02 -9.7327E-02 -2.4921E-03 -2.6065E-02 -2.1012E-02
      20-
 mid.  surface     5.1665E-02  4.7591E-02 -1.0299E-01  9.8419E-03  2.3185E-02  1.4497E-02
      21-
 mid.  surface     4.4150E-02  4.5125E-02 -1.0912E-01  4.3781E-03  1.6403E-02  1.5155E-02
      22-
 mid.  surface     4.2107E-02  4.3860E-02 -8.0655E-02  8.6291E-03  2.0167E-02  8.8777E-03
      23-
 mid.  surface     5.6087E-02  4.2540E-02 -9.3982E-02  8.9647E-03  3.4370E-02  1.2041E-02
      40-
 mid.  surface     4.9951E-02  3.8039E-02 -9.4419E-02  7.0740E-04  1.6959E-02 -3.9344E-03
      41-
 mid.  surface     3.3332E-02  4.3496E-02 -7.9034E-02  2.4979E-03  1.6398E-02  5.2596E-03
      85-
 mid.  surface     2.4976E-02  4.7139E-02 -1.1446E-01 -1.6076E-03  2.2753E-02 -2.6793E-02
      86-
 mid.  surface     2.5478E-02  4.7792E-02 -8.2017E-02  4.3681E-03  3.2786E-02 -3.9771E-02
     100-
 mid.  surface     2.8352E-02  4.3130E-02 -8.0598E-02 -3.8311E-03 -8.3161E-03  6.1637E-03
     110-
 mid.  surface     4.8713E-02  3.8221E-02 -1.0632E-01 -4.5333E-03 -8.8031E-03 -7.7063E-03



 n o d a l  s t r e s s  c a l c u l a t i o n s   f o r   t i m e  s t e p      231   ( at time 2.42939E+01 )

 node (global)
          stress       sig-xx      sig-yy      sig-zz      sig-xy      sig-yz      sig-zx       plastic
                                                                                                 strain 
       1-
 mid.  surface    -2.4695E+09 -2.6114E+09 -1.8749E+09  6.2187E+07  4.5231E+07  2.2831E+07 -6.4920E-02
       2-
 mid.  surface    -4.4547E+09 -4.5334E+09 -4.0335E+09  1.0683E+08  4.5999E+07  4.2547E+07 -1.0609E-02
       8-
 mid.  surface     3.2896E+08  2.6839E+08  7.9629E+07 -3.1565E+07 -1.6192E+08  2.2178E+07  1.0820E-01
       9-
 mid.  surface    -5.4154E+08 -6.1359E+08 -8.5063E+08 -2.7612E+07 -8.2768E+07  2.0524E+07  1.2882E-01
      10-
 mid.  surface     4.1054E+08  3.6207E+08  8.1568E+07 -1.8052E+07 -6.6617E+07 -2.3424E+06  1.0946E-01
      11-
 mid.  surface     4.7116E+08  4.6908E+08  2.0542E+08 -8.8326E+06 -8.7380E+07  1.0108E+07  9.9563E-02
      12-
 mid.  surface    -1.7625E+09 -1.7213E+09 -1.1163E+09 -3.1342E+07 -2.4362E+07  3.6403E+07 -2.5418E-02
      17-
 mid.  surface    -4.1023E+08 -4.3675E+08 -6.3009E+08 -2.1284E+07 -1.4118E+08 -5.0124E+07  1.2509E-01
      18-
 mid.  surface     5.6646E+08  5.3970E+08  3.1901E+08 -1.7540E+07 -1.6090E+08 -1.5341E+07  1.0327E-01
      19-
 mid.  surface    -3.1727E+09 -3.1264E+09 -2.9360E+09 -2.0110E+07 -1.0972E+07  3.3296E+06  5.4301E-02
      20-
 mid.  surface    -8.4146E+07 -1.0913E+08 -3.9086E+08  2.8027E+07 -4.9115E+06  1.3506E+07  1.1724E-01
      21-
 mid.  surface     5.0212E+08  5.9416E+08 -2.9605E+08 -3.1090E+07  1.2457E+07 -2.5784E+07  2.1494E-01
      22-
 mid.  surface     1.8627E+09  1.9317E+09  1.4181E+09 -6.0511E+07  3.5319E+07 -1.3771E+07  1.4414E-01
      23-
 mid.  surface     7.3290E+08  7.0013E+08  3.9449E+08  2.4370E+07  1.0204E+08  3.2099E+07  1.0803E-01
      40-
 mid.  surface    -2.0571E+08 -1.7603E+08 -5.1491E+08 -1.5220E+07  1.4916E+08 -5.6402E+06  1.1902E-01
      41-
 mid.  surface     7.4818E+07  1.2899E+08 -1.8956E+08 -1.5359E+07  2.6149E+07  1.6552E+07  1.0137E-01
      85-
 mid.  surface     2.6734E+09  2.8037E+09  5.2052E+08 -2.5770E+07 -1.2099E+07 -1.2539E+08  3.8040E-01
      86-
 mid.  surface     3.6351E+09  3.6905E+09  2.3093E+09 -8.7438E+07  9.1355E+06 -9.3311E+07  2.6256E-01
     100-
 mid.  surface    -3.7496E+08 -3.6610E+08 -6.1549E+08 -1.1078E+06  1.8043E+07  3.6497E+07  1.1045E-01
     110-
 mid.  surface    -1.1885E+09 -1.1795E+09 -1.4803E+09  1.0770E+07  1.2228E+08  4.9838E+06  1.3800E-01



 n o d a l  s t r a i n  c a l c u l a t i o n s   f o r   t i m e  s t e p      231   ( at time 2.42939E+01 )

 node (global)
          strain       eps-xx      eps-yy      eps-zz      eps-xy      eps-yz      eps-zx       
       1-
 mid.  surface     5.3664E-02  5.9431E-02 -9.7371E-02  1.5587E-02 -6.6030E-03  5.3159E-04
       2-
 mid.  surface     5.4722E-02  6.3846E-02 -1.3732E-01  1.5670E-02 -1.4029E-03  1.7697E-02
       8-
 mid.  surface     4.1133E-02  5.8582E-02 -9.7176E-02 -1.1675E-02 -1.5191E-02  2.1228E-03
       9-
 mid.  surface     5.8659E-02  5.0290E-02 -1.1961E-01 -1.1719E-02 -1.6586E-02  1.7859E-03
      10-
 mid.  surface     5.9227E-02  4.3792E-02 -9.9979E-02  3.3690E-03 -3.6080E-02  9.5489E-04
      11-
 mid.  surface     5.3990E-02  4.5207E-02 -9.4715E-02  1.6659E-03 -4.6618E-02 -5.8736E-03
      12-
 mid.  surface     3.1688E-02  5.4520E-02 -7.2568E-02 -1.4625E-03 -3.9568E-02 -2.3876E-02
      17-
 mid.  surface     5.1571E-02  5.1144E-02 -1.1091E-01 -1.9654E-03 -4.2457E-02 -2.1680E-02
      18-
 mid.  surface     4.3796E-02  5.2067E-02 -8.9851E-02  3.8795E-03 -3.5591E-02 -8.6332E-03
      19-
 mid.  surface     3.4784E-02  5.7596E-02 -1.1236E-01 -4.9797E-03 -2.6396E-02 -2.1880E-02
      20-
 mid.  surface     6.1557E-02  5.6535E-02 -1.2235E-01  1.1472E-02  2.2926E-02  1.5338E-02
      21-
 mid.  surface     4.7555E-02  5.4807E-02 -1.2654E-01  3.2047E-03  1.8972E-02  1.7414E-02
      22-
 mid.  surface     4.5973E-02  5.1325E-02 -9.0113E-02  5.7605E-03  2.0409E-02  6.3173E-03
      23-
 mid.  surface     6.7905E-02  5.0659E-02 -1.1136E-01  9.7772E-03  3.6652E-02  1.3011E-02
      40-
 mid.  surface     5.8609E-02  4.8429E-02 -1.1246E-01 -5.0289E-04  2.1909E-02 -5.4733E-03
      41-
 mid.  surface     3.9139E-02  5.5736E-02 -9.5731E-02  1.0698E-03  1.8670E-02  6.0194E-03
      85-
 mid.  surface     3.4787E-02  5.9490E-02 -1.4291E-01 -4.8487E-04  2.8270E-02 -2.4957E-02
      86-
 mid.  surface     3.6032E-02  5.5578E-02 -1.0011E-01  1.8485E-03  4.0595E-02 -4.0567E-02
     100-
 mid.  surface     3.6533E-02  5.4501E-02 -9.8143E-02 -4.2390E-03 -5.3530E-03  8.8681E-03
     110-
 mid.  surface     5.7679E-02  4.6717E-02 -1.2385E-01 -3.6889E-03 -7.0757E-03 -9.0483E-03



 n o d a l  s t r e s s  c a l c u l a t i o n s   f o r   t i m e  s t e p      241   ( at time 2.74487E+01 )

 node (global)
          stress       sig-xx      sig-yy      sig-zz      sig-xy      sig-yz      sig-zx       plastic
                                                                                                 strain 
       1-
 mid.  surface    -2.7679E+09 -2.9252E+09 -2.1872E+09  5.4072E+07  1.2465E+08  8.0025E+07 -8.3879E-02
       2-
 mid.  surface    -5.0712E+09 -5.0321E+09 -4.5888E+09  1.7760E+08  8.7731E+07 -4.2273E+07 -1.2472E-02
       8-
 mid.  surface     2.4753E+08  1.2875E+08 -2.2687E+07 -7.2784E+07 -2.2170E+08  2.9224E+07  1.2185E-01
       9-
 mid.  surface    -9.8950E+08 -1.1368E+09 -1.3439E+09 -5.7599E+07 -4.8443E+07  5.1049E+07  1.4383E-01
      10-
 mid.  surface     4.1846E+08  4.2541E+08  9.9498E+07 -9.0634E+06 -6.8547E+07  1.7156E+07  1.2805E-01
      11-
 mid.  surface    -7.9684E+08 -8.4742E+08 -3.9367E+08 -5.4029E+06  1.9494E+07  2.3141E+06  8.4912E-02
      12-
 mid.  surface    -3.0717E+09 -3.0932E+09 -1.8136E+09  2.5882E+07  7.5864E+07  1.0164E+08 -8.5139E-02
      17-
 mid.  surface    -2.0083E+09 -2.1391E+09 -1.6262E+09  1.0707E+07  9.1740E+07  5.8056E+07  1.1519E-01
      18-
 mid.  surface     5.8800E+08  5.4093E+08  3.4762E+08  1.7691E+06 -1.9638E+08 -5.5123E+07  1.2592E-01
      19-
 mid.  surface    -4.8794E+09 -4.7605E+09 -3.9841E+09  8.3082E+07  1.3690E+08  1.2394E+08  2.0822E-02
      20-
 mid.  surface     1.0528E+09  1.0291E+09  8.3539E+07 -4.2329E+07 -7.2249E+07 -3.7426E+05  1.7262E-01
      21-
 mid.  surface     1.9907E+09  2.1242E+09  4.9501E+08 -1.0152E+08 -1.7922E+08 -5.0328E+07  2.8324E-01
      22-
 mid.  surface     3.6985E+09  3.7464E+09  2.5391E+09 -1.2368E+08 -1.9860E+08 -1.0460E+08  1.8767E-01
      23-
 mid.  surface     2.1627E+09  2.1459E+09  1.1369E+09 -4.6354E+07 -1.0525E+08 -1.0836E+08  1.5456E-01
      40-
 mid.  surface     2.7027E+07  9.9604E+07 -2.7550E+08  4.4496E+07  1.7346E+08  2.4226E+07  1.4387E-01
      41-
 mid.  surface     3.1850E+08  4.1084E+08  7.6768E+07  2.9167E+07  9.3630E+06  4.4924E+06  1.2320E-01
      85-
 mid.  surface     2.8300E+09  2.9760E+09  7.0962E+08 -5.5396E+07 -1.8106E+07 -2.9954E+08  4.8202E-01
      86-
 mid.  surface     4.4019E+09  4.3467E+09  3.0338E+09 -1.0428E+08  5.3725E+07 -7.2150E+07  3.2117E-01
     100-
 mid.  surface    -8.4893E+06  7.0830E+07 -2.0275E+08 -8.4847E+06 -5.3264E+07  3.0664E+07  1.2694E-01
     110-
 mid.  surface    -1.0104E+09 -9.8579E+08 -1.2958E+09  3.0053E+07  1.4520E+08  1.9756E+06  1.5944E-01



 n o d a l  s t r a i n  c a l c u l a t i o n s   f o r   t i m e  s t e p      241   ( at time 2.74487E+01 )

 node (global)
          strain       eps-xx      eps-yy      eps-zz      eps-xy      eps-yz      eps-zx       
       1-
 mid.  surface     6.0083E-02  6.7157E-02 -1.1169E-01  1.1061E-02 -7.7044E-03 -5.2372E-04
       2-
 mid.  surface     5.9680E-02  7.8932E-02 -1.6135E-01  1.8403E-02 -3.2608E-03  1.1916E-02
       8-
 mid.  surface     4.9742E-02  6.0663E-02 -1.0942E-01 -1.7845E-02 -2.3477E-02  5.6813E-03
       9-
 mid.  surface     6.9394E-02  4.8363E-02 -1.3550E-01 -1.6947E-02 -2.1114E-02  5.5072E-03
      10-
 mid.  surface     6.8125E-02  5.2874E-02 -1.1784E-01  3.4532E-03 -3.8243E-02  2.0408E-03
      11-
 mid.  surface     6.3647E-02  4.9153E-02 -1.0407E-01  1.1607E-03 -5.2287E-02 -1.1445E-02
      12-
 mid.  surface     3.4103E-02  6.2045E-02 -7.6218E-02 -2.4164E-03 -4.8635E-02 -2.8705E-02
      17-
 mid.  surface     6.6251E-02  5.4913E-02 -1.3020E-01  7.0842E-04 -4.2402E-02 -2.3881E-02
      18-
 mid.  surface     5.4978E-02  6.0312E-02 -1.0929E-01  5.5707E-03 -4.1573E-02 -1.1289E-02
      19-
 mid.  surface     3.7615E-02  7.2120E-02 -1.2870E-01 -1.0795E-03 -3.2661E-02 -2.1351E-02
      20-
 mid.  surface     6.6870E-02  6.3744E-02 -1.4334E-01  6.6390E-03  3.1007E-02  2.2774E-02
      21-
 mid.  surface     5.0939E-02  6.4309E-02 -1.4507E-01 -1.4006E-04  2.1332E-02  2.5937E-02
      22-
 mid.  surface     4.6703E-02  5.6131E-02 -9.6277E-02  9.7068E-04  1.9896E-02  4.1630E-03
      23-
 mid.  surface     7.0767E-02  5.4340E-02 -1.2228E-01  3.9408E-03  3.6567E-02  1.0647E-02
      40-
 mid.  surface     6.8792E-02  6.2415E-02 -1.3348E-01  2.9689E-03  2.6822E-02 -4.0724E-03
      41-
 mid.  surface     4.6358E-02  7.1864E-02 -1.1554E-01  3.9239E-03  1.7933E-02  5.7987E-03
      85-
 mid.  surface     5.1233E-02  6.6440E-02 -1.6998E-01  5.0499E-03  3.5986E-02 -3.1856E-02
      86-
 mid.  surface     5.4342E-02  6.0245E-02 -1.1783E-01  4.8342E-03  5.1868E-02 -3.8747E-02
     100-
 mid.  surface     3.9981E-02  6.8951E-02 -1.1031E-01 -4.5028E-03 -7.9314E-03  1.0924E-02
     110-
 mid.  surface     6.7145E-02  5.7696E-02 -1.4179E-01 -1.2036E-03 -7.5437E-03 -1.2852E-02



 n o d a l  s t r e s s  c a l c u l a t i o n s   f o r   t i m e  s t e p      251   ( at time 3.06035E+01 )

 node (global)
          stress       sig-xx      sig-yy      sig-zz      sig-xy      sig-yz      sig-zx       plastic
                                                                                                 strain 
       1-
 mid.  surface    -3.1951E+09 -3.3662E+09 -2.6867E+09  1.3332E+08  1.8662E+08  6.9929E+07 -9.2860E-02
       2-
 mid.  surface     5.7810E+08  1.7951E+08 -2.2121E+09  7.8831E+07  1.7918E+08 -4.7828E+06  1.5272E-01
       8-
 mid.  surface     1.8958E+08  9.3018E+07 -4.8527E+07 -3.6526E+07 -2.2516E+08  1.3616E+07  1.4233E-01
       9-
 mid.  surface    -1.2881E+09 -1.3809E+09 -1.5888E+09 -2.3679E+07 -6.3337E+07  4.0244E+07  1.6256E-01
      10-
 mid.  surface     5.2622E+08  5.4887E+08  2.3178E+08 -7.7546E+06 -9.3199E+07  5.4181E+06  1.4849E-01
      11-
 mid.  surface     7.6116E+08  7.1139E+08  3.8948E+08 -1.1504E+07  1.8529E+08  1.0022E+08  1.1076E-01
      12-
 mid.  surface    -1.8285E+09 -1.7500E+09 -1.2901E+09  7.5668E+07  3.3561E+08  1.8084E+08 -1.1291E-01
      17-
 mid.  surface    -7.0509E+08 -8.3490E+08 -1.0603E+09 -1.7707E+07  1.6152E+08  1.1732E+08  1.4771E-01
      18-
 mid.  surface     5.4334E+08  5.0621E+08  3.2901E+08  5.6898E+06 -2.2886E+08 -4.5119E+07  1.5066E-01
      19-
 mid.  surface    -6.0439E+08 -6.5525E+08 -2.0412E+09  2.2611E+07  3.5863E+08  1.5866E+08  1.0459E-01
      20-
 mid.  surface    -6.2343E+08 -6.0942E+08 -9.0992E+08 -2.9525E+07 -2.3800E+08 -7.3720E+07  1.8914E-01
      21-
 mid.  surface     1.1562E+09  1.3089E+09  2.8917E+08 -7.9913E+07 -3.3306E+08 -1.2181E+08  3.2420E-01
      22-
 mid.  surface     1.4923E+07  2.7680E+08  1.0564E+09 -5.5891E+07 -3.1760E+08 -1.3700E+08  1.2034E-01
      23-
 mid.  surface     9.3666E+08  9.7578E+08  5.8023E+08 -3.8148E+07 -1.6389E+08 -1.2950E+08  1.6455E-01
      40-
 mid.  surface     1.2592E+08  2.0897E+08 -1.8896E+08  3.5908E+07  1.7183E+08  2.5291E+07  1.6743E-01
      41-
 mid.  surface     5.5242E+08  6.0663E+08  2.6822E+08  2.6767E+07 -1.0611E+06 -3.1471E+05  1.4300E-01
      85-
 mid.  surface     4.2124E+09  4.1407E+09  1.7957E+09 -9.3533E+07 -1.8329E+08 -2.5408E+08  6.2732E-01
      86-
 mid.  surface    -4.8841E+08 -3.1125E+08  1.0660E+09 -3.0214E+07 -1.3733E+08 -6.4526E+07  2.5455E-01
     100-
 mid.  surface     9.3322E+07  1.2625E+08 -9.6852E+07 -4.8295E+06 -2.5141E+07  1.2944E+07  1.4916E-01
     110-
 mid.  surface    -1.0550E+09 -1.0450E+09 -1.3128E+09  2.9449E+07  1.4998E+08  1.8449E+07  1.8371E-01



 n o d a l  s t r a i n  c a l c u l a t i o n s   f o r   t i m e  s t e p      251   ( at time 3.06035E+01 )

 node (global)
          strain       eps-xx      eps-yy      eps-zz      eps-xy      eps-yz      eps-zx       
       1-
 mid.  surface     8.4659E-02  7.6432E-02 -1.4027E-01  1.1419E-02 -1.5338E-02 -1.2295E-03
       2-
 mid.  surface     8.5502E-02  8.7305E-02 -1.9457E-01  2.5509E-02 -1.0266E-02  1.1665E-02
       8-
 mid.  surface     5.9586E-02  6.7326E-02 -1.2669E-01 -2.0251E-02 -3.0921E-02  8.1149E-03
       9-
 mid.  surface     7.8649E-02  5.1211E-02 -1.5151E-01 -1.8368E-02 -2.9832E-02  7.4958E-03
      10-
 mid.  surface     7.6943E-02  6.3554E-02 -1.3589E-01  3.4285E-03 -4.1193E-02  1.7683E-03
      11-
 mid.  surface     6.7830E-02  5.2138E-02 -1.1302E-01 -1.8478E-03 -5.4808E-02 -1.2423E-02
      12-
 mid.  surface     3.0361E-02  7.1476E-02 -7.8700E-02 -4.4522E-03 -5.6328E-02 -3.0958E-02
      17-
 mid.  surface     7.4733E-02  5.9792E-02 -1.4854E-01 -1.3338E-03 -4.5297E-02 -2.5636E-02
      18-
 mid.  surface     6.4762E-02  7.0968E-02 -1.3043E-01  7.3624E-03 -4.7168E-02 -1.3510E-02
      19-
 mid.  surface     3.7006E-02  8.4800E-02 -1.4163E-01 -2.3095E-04 -3.7686E-02 -2.1431E-02
      20-
 mid.  surface     7.7891E-02  7.1875E-02 -1.6547E-01  7.3341E-03  3.5414E-02  2.9179E-02
      21-
 mid.  surface     5.4397E-02  7.8666E-02 -1.6337E-01  2.6049E-03  2.7730E-02  3.0787E-02
      22-
 mid.  surface     4.9582E-02  6.6740E-02 -1.0434E-01 -1.4406E-03  2.4742E-02 -2.6224E-04
      23-
 mid.  surface     8.1234E-02  6.1243E-02 -1.3621E-01  2.4543E-03  3.6942E-02  1.1934E-02
      40-
 mid.  surface     7.7890E-02  7.5397E-02 -1.5453E-01  4.9233E-03  3.1251E-02 -3.4682E-03
      41-
 mid.  surface     5.4866E-02  8.6340E-02 -1.3575E-01  5.9700E-03  1.8756E-02  5.4288E-03
      85-
 mid.  surface     6.9148E-02  7.7831E-02 -2.0570E-01  1.0269E-02  4.4159E-02 -4.1790E-02
      86-
 mid.  surface     7.4437E-02  7.0095E-02 -1.4927E-01  8.6651E-04  6.4555E-02 -3.6444E-02
     100-
 mid.  surface     4.6490E-02  8.0396E-02 -1.2725E-01 -4.6573E-03 -8.2440E-03  1.1649E-02
     110-
 mid.  surface     7.6189E-02  6.6180E-02 -1.6012E-01  1.1232E-03 -9.6565E-03 -1.4109E-02



 n o d a l  s t r e s s  c a l c u l a t i o n s   f o r   t i m e  s t e p      261   ( at time 3.37583E+01 )

 node (global)
          stress       sig-xx      sig-yy      sig-zz      sig-xy      sig-yz      sig-zx       plastic
                                                                                                 strain 
       1-
 mid.  surface    -2.1180E+09 -2.2375E+09 -2.6093E+09  9.2112E+07  1.8615E+08  6.9445E+07 -3.9254E-02
       2-
 mid.  surface     2.2346E+09  1.8348E+09 -5.6222E+08  9.7977E+07  3.5250E+08  3.0125E+07  3.2611E-01
       8-
 mid.  surface    -8.3076E+06 -7.6596E+07 -1.6929E+08  1.4633E+07 -2.4745E+08 -5.9715E+06  1.7540E-01
       9-
 mid.  surface    -1.5105E+09 -1.5233E+09 -1.7161E+09 -2.8375E+06 -8.2856E+07  2.3699E+07  1.8803E-01
      10-
 mid.  surface    -2.6801E+08 -2.7585E+08 -2.1458E+07  5.0525E+07  1.0780E+08  4.1132E+07  1.2182E-01
      11-
 mid.  surface    -1.1440E+09 -1.1399E+09 -1.8011E+08  9.5389E+07  4.8863E+08  1.8033E+08  6.9962E-02
      12-
 mid.  surface    -3.4338E+09 -3.3381E+09 -2.6885E+09 -5.3288E+07  2.2967E+08  1.6528E+08 -1.5521E-01
      17-
 mid.  surface    -2.1273E+08 -2.2737E+08 -7.1511E+08  1.0395E+08  3.6571E+08  1.2181E+08  1.9279E-01
      18-
 mid.  surface    -6.1108E+08 -7.0332E+08 -3.3952E+08  3.5591E+07 -1.2176E+07  1.7151E+07  1.2920E-01
      19-
 mid.  surface     1.0959E+09  1.1311E+09 -1.1241E+09  2.1753E+06  2.1870E+08  9.8384E+07  2.2022E-01
      20-
 mid.  surface     1.6962E+09  1.7453E+09  8.5264E+07 -5.2055E+07 -4.9676E+08 -1.9893E+08  3.0596E-01
      21-
 mid.  surface     1.5265E+09  1.7133E+09  7.1629E+08 -3.8739E+07 -3.6304E+08 -1.0374E+08  3.5993E-01
      22-
 mid.  surface    -2.1143E+09 -1.8176E+09 -3.1620E+08 -8.6181E+07 -3.9520E+08 -1.2286E+08  1.0911E-02
      23-
 mid.  surface     7.2217E+08  7.7267E+08  5.7914E+08 -6.9501E+07 -3.4238E+08 -1.4485E+08  1.9988E-01
      40-
 mid.  surface     1.4785E+09  1.5099E+09  4.8229E+08 -6.3092E+07 -8.7183E+07 -1.2425E+07  2.2245E-01
      41-
 mid.  surface     1.5903E+09  1.5609E+09  6.0957E+08 -8.8650E+07 -2.2853E+08 -5.1818E+07  1.9809E-01
      85-
 mid.  surface     4.1761E+09  3.8801E+09  3.2329E+09  6.3684E+07  8.4066E+07 -1.4127E+08  6.8269E-01
      86-
 mid.  surface    -5.2008E+08 -5.1766E+08  9.8752E+08  5.1007E+07  2.3239E+07 -9.8201E+07  1.9177E-01
     100-
 mid.  surface     3.0158E+07  7.5707E+07 -1.2857E+08  2.2545E+07  5.1776E+06  2.2090E+07  1.8162E-01
     110-
 mid.  surface    -1.2504E+09 -1.1642E+09 -1.4173E+09  3.2303E+07  1.7850E+08  6.3032E+07  2.1644E-01



 n o d a l  s t r a i n  c a l c u l a t i o n s   f o r   t i m e  s t e p      261   ( at time 3.37583E+01 )

 node (global)
          strain       eps-xx      eps-yy      eps-zz      eps-xy      eps-yz      eps-zx       
       1-
 mid.  surface     1.0892E-01  8.7634E-02 -1.5661E-01  1.2806E-02 -2.1849E-02 -1.3145E-02
       2-
 mid.  surface     1.1086E-01  1.0489E-01 -2.3428E-01  3.6233E-02 -1.4516E-02  7.7044E-03
       8-
 mid.  surface     7.1946E-02  8.0633E-02 -1.5492E-01 -1.7566E-02 -3.9497E-02  7.1609E-03
       9-
 mid.  surface     8.6738E-02  5.9734E-02 -1.7066E-01 -1.7901E-02 -4.2444E-02  6.4983E-03
      10-
 mid.  surface     8.3592E-02  6.5362E-02 -1.4293E-01  2.3524E-03 -4.8205E-02 -4.5305E-04
      11-
 mid.  surface     7.5306E-02  7.0544E-02 -1.3825E-01  1.5612E-03 -5.3464E-02 -8.6204E-03
      12-
 mid.  surface     3.2032E-02  8.0088E-02 -8.2046E-02 -1.2083E-02 -6.5959E-02 -3.5049E-02
      17-
 mid.  surface     8.6421E-02  7.5062E-02 -1.7555E-01  3.1504E-03 -4.3975E-02 -2.4319E-02
      18-
 mid.  surface     7.3590E-02  7.4368E-02 -1.4659E-01  5.9968E-03 -5.3542E-02 -1.4150E-02
      19-
 mid.  surface     4.1705E-02  9.3878E-02 -1.5369E-01 -3.9911E-04 -3.9956E-02 -2.1785E-02
      20-
 mid.  surface     9.2352E-02  8.6694E-02 -1.9374E-01  1.0957E-02  3.7877E-02  2.6278E-02
      21-
 mid.  surface     6.1509E-02  8.7192E-02 -1.8182E-01  8.9673E-04  3.1187E-02  4.0963E-02
      22-
 mid.  surface     5.1776E-02  7.6262E-02 -1.1257E-01 -7.2698E-03  1.5688E-02 -5.4393E-03
      23-
 mid.  surface     9.2173E-02  7.9057E-02 -1.6455E-01  4.1245E-03  4.0379E-02  9.1654E-03
      40-
 mid.  surface     8.6157E-02  8.3141E-02 -1.6654E-01  4.2358E-03  3.2966E-02 -2.6727E-03
      41-
 mid.  surface     6.2548E-02  9.4439E-02 -1.5219E-01  4.0049E-03  2.7191E-02  7.9042E-03
      85-
 mid.  surface     8.4897E-02  9.3971E-02 -2.5401E-01  1.6187E-02  5.4733E-02 -4.1652E-02
      86-
 mid.  surface     9.0737E-02  7.7653E-02 -1.7457E-01  2.8826E-03  8.5732E-02 -3.9180E-02
     100-
 mid.  surface     5.5563E-02  9.7247E-02 -1.5420E-01 -2.1001E-03 -8.8723E-03  1.4226E-02
     110-
 mid.  surface     8.2871E-02  7.9000E-02 -1.8209E-01  3.3943E-03 -1.1468E-02 -8.9859E-03



 n o d a l  s t r e s s  c a l c u l a t i o n s   f o r   t i m e  s t e p      276   ( at time 3.69131E+01 )

 node (global)
          stress       sig-xx      sig-yy      sig-zz      sig-xy      sig-yz      sig-zx       plastic
                                                                                                 strain 
       1-
 mid.  surface     2.0073E+09  1.5144E+09 -3.5367E+08  5.3453E+07  2.8211E+08 -7.4787E+07  1.2097E-01
       2-
 mid.  surface     4.8822E+08  3.7219E+08 -7.8052E+08  6.0494E+07  4.3670E+08 -1.8059E+08  4.5265E-01
       8-
 mid.  surface    -1.9130E+08 -3.3894E+08 -2.2989E+08 -1.1911E+07 -4.1173E+08 -2.0391E+07  2.2075E-01
       9-
 mid.  surface    -2.1663E+09 -2.2081E+09 -2.4180E+09 -3.3105E+07 -5.0177E+07  8.0728E+07  2.1434E-01
      10-
 mid.  surface     8.0877E+08  8.7267E+08  3.4145E+08  2.4797E+07  4.8421E+08 -1.3121E+07  1.4773E-01
      11-
 mid.  surface     1.9478E+09  1.7963E+09  1.0615E+09  3.4372E+07  9.7873E+08  1.1859E+07  1.2897E-01
      12-
 mid.  surface    -4.7217E+08 -9.6271E+08 -1.3926E+09 -3.6992E+07  2.4986E+08 -1.3729E+08 -1.0414E-01
      17-
 mid.  surface    -1.0436E+08 -1.5014E+08 -3.0032E+08  1.2849E+08  9.0015E+08 -1.9012E+07  2.3676E-01
      18-
 mid.  surface    -2.4467E+07 -2.3629E+08 -3.6916E+08  4.4702E+07  3.4371E+08 -5.7053E+07  1.7099E-01
      19-
 mid.  surface    -1.0552E+09 -9.8528E+08 -1.1329E+09  5.2810E+07  1.8114E+08 -1.8357E+08  2.5461E-01
      20-
 mid.  surface     2.5433E+08  6.0957E+08  1.8942E+08 -3.2588E+07 -7.8772E+08  1.0644E+08  3.7557E-01
      21-
 mid.  surface    -2.2761E+09 -1.8185E+09 -1.1477E+09 -4.7469E+07 -5.3477E+08  3.7345E+07  3.0377E-01
      22-
 mid.  surface    -2.3531E+08 -2.7726E+08 -3.2320E+08 -1.4677E+08 -5.2257E+08  5.7696E+07 -4.0366E-03
      23-
 mid.  surface     1.4351E+09  1.5211E+09  8.9153E+08 -1.5363E+08 -7.2691E+08  6.3285E+07  2.6267E-01
      40-
 mid.  surface     1.0755E+09  1.3528E+09  8.5900E+08 -4.3904E+07 -4.2779E+08  2.3182E+07  2.5017E-01
      41-
 mid.  surface     1.1404E+09  1.1854E+09  1.0719E+09 -5.7467E+07 -6.1576E+08 -1.0749E+07  2.3220E-01
      85-
 mid.  surface     8.9738E+08  1.0150E+09  1.5754E+09  5.4387E+07  1.1006E+08  5.0847E+07  6.3641E-01
      86-
 mid.  surface     1.2077E+09  1.0482E+09  9.5882E+08  5.6206E+07  4.6289E+07  1.3802E+08  1.9191E-01
     100-
 mid.  surface     6.7149E+08  7.7522E+08  6.9200E+08  1.7204E+07 -1.3074E+08 -1.7540E+07  2.2171E-01
     110-
 mid.  surface    -1.1970E+09 -1.0237E+09 -1.3777E+09  4.4614E+07  2.4653E+08  9.7125E+07  2.5423E-01



 n o d a l  s t r a i n  c a l c u l a t i o n s   f o r   t i m e  s t e p      276   ( at time 3.69131E+01 )

 node (global)
          strain       eps-xx      eps-yy      eps-zz      eps-xy      eps-yz      eps-zx       
       1-
 mid.  surface     1.1885E-01  1.0660E-01 -1.6319E-01  2.9363E-02 -2.6145E-02 -2.7480E-02
       2-
 mid.  surface     1.3296E-01  1.1908E-01 -2.6880E-01  4.2597E-02 -8.7673E-03  9.2484E-03
       8-
 mid.  surface     8.9322E-02  8.8617E-02 -1.8328E-01 -2.0242E-02 -5.7168E-02  9.0387E-03
       9-
 mid.  surface     9.8105E-02  6.0337E-02 -1.9259E-01 -2.3384E-02 -6.4237E-02  8.9792E-03
      10-
 mid.  surface     8.9784E-02  8.1982E-02 -1.5764E-01  5.4062E-03 -5.5229E-02 -2.7554E-03
      11-
 mid.  surface     7.3845E-02  9.3090E-02 -1.5608E-01  2.4839E-03 -5.5576E-02  2.2961E-03
      12-
 mid.  surface     3.5307E-02  9.4214E-02 -9.3546E-02 -9.4052E-03 -7.8008E-02 -3.7932E-02
      17-
 mid.  surface     9.1343E-02  8.9619E-02 -2.0110E-01 -4.1803E-04 -4.6715E-02 -2.0425E-02
      18-
 mid.  surface     8.3863E-02  8.8004E-02 -1.6988E-01  1.1814E-02 -6.0228E-02 -1.7719E-02
      19-
 mid.  surface     5.5717E-02  1.0198E-01 -1.8568E-01 -7.7215E-03 -4.0772E-02 -2.4764E-02
      20-
 mid.  surface     1.1323E-01  9.3659E-02 -2.2199E-01  1.0190E-02  4.5267E-02  2.6717E-02
      21-
 mid.  surface     8.3283E-02  9.8148E-02 -2.2531E-01 -4.0592E-03  3.4027E-02  4.2915E-02
      22-
 mid.  surface     6.4788E-02  9.2283E-02 -1.3171E-01 -4.6761E-03  7.6527E-03 -1.2971E-02
      23-
 mid.  surface     1.0839E-01  9.6007E-02 -1.8781E-01  7.4910E-03  4.4154E-02  7.5941E-03
      40-
 mid.  surface     9.4052E-02  9.5959E-02 -1.8655E-01  1.7234E-03  3.8359E-02 -2.2731E-03
      41-
 mid.  surface     6.9735E-02  1.0751E-01 -1.7233E-01 -2.7365E-04  3.6256E-02  8.7065E-03
      85-
 mid.  surface     9.9948E-02  1.1990E-01 -3.0779E-01  1.1190E-02  6.7616E-02 -3.1599E-02
      86-
 mid.  surface     9.2274E-02  9.7915E-02 -1.9643E-01  4.4501E-03  1.0795E-01 -5.6103E-02
     100-
 mid.  surface     6.0548E-02  1.2415E-01 -1.7635E-01 -1.9669E-04 -1.5158E-02  1.4841E-02
     110-
 mid.  surface     8.8079E-02  9.9946E-02 -2.0779E-01  8.3546E-03 -1.6738E-02 -5.5335E-03



 n o d a l  s t r e s s  c a l c u l a t i o n s   f o r   t i m e  s t e p      284   ( at time 4.00679E+01 )

 node (global)
          stress       sig-xx      sig-yy      sig-zz      sig-xy      sig-yz      sig-zx       plastic
                                                                                                 strain 
       1-
 mid.  surface    -2.2168E+08 -2.6338E+08 -1.4644E+09  4.9217E+06  1.9739E+08 -3.5419E+07  1.7706E-01
       2-
 mid.  surface    -1.0357E+09 -9.7786E+08 -1.4283E+09  1.4025E+07  2.7757E+08 -9.2395E+06  4.6938E-01
       8-
 mid.  surface    -2.8163E+07 -2.5379E+08 -4.3408E+08 -4.7941E+07 -3.4749E+08  4.3582E+07  2.1982E-01
       9-
 mid.  surface    -2.3309E+09 -2.5146E+09 -2.7533E+09 -1.5226E+07 -2.5590E+08  8.5973E+07  2.1480E-01
      10-
 mid.  surface    -1.4870E+08 -8.6826E+07  1.1577E+08  2.9775E+07  1.6220E+08  7.7942E+07  1.4504E-01
      11-
 mid.  surface     1.1479E+09  1.1615E+09  5.9488E+08  1.8021E+07  5.1830E+08  1.4469E+08  1.6007E-01
      12-
 mid.  surface     1.0461E+08 -1.2572E+07 -1.0509E+09  3.1156E+06  1.0871E+08 -1.0917E+08 -4.4131E-02
      17-
 mid.  surface    -1.9991E+08 -2.0275E+08 -7.1030E+08  6.8881E+07  5.7925E+08  5.2659E+07  2.6606E-01
      18-
 mid.  surface    -4.7253E+08 -5.4146E+08 -5.7450E+08  2.7322E+07  1.5806E+08  2.2870E+07  1.9310E-01
      19-
 mid.  surface    -5.0998E+08 -4.6031E+08 -7.1689E+08  4.8108E+07  1.3570E+08 -1.1691E+08  2.7091E-01
      20-
 mid.  surface     1.3210E+09  1.4037E+09  4.7242E+08 -5.7565E+07 -4.8344E+08 -7.8613E+07  4.2573E-01
      21-
 mid.  surface    -5.1488E+08 -4.6111E+08 -1.0460E+08 -1.3982E+07 -3.3681E+08 -5.4695E+07  2.8947E-01
      22-
 mid.  surface     3.8310E+08  2.6843E+08  1.4787E+08 -5.9172E+07 -3.3604E+08 -5.6460E+07  1.1317E-02
      23-
 mid.  surface     2.0919E+09  2.0631E+09  1.1411E+09 -1.1217E+08 -4.9047E+08 -4.2867E+07  3.1611E-01
      40-
 mid.  surface     7.0927E+08  8.7281E+08  7.3374E+08 -3.4677E+07 -2.4386E+08 -3.1963E+07  2.7035E-01
      41-
 mid.  surface     1.4759E+09  1.5668E+09  1.0839E+09 -5.7811E+07 -2.7207E+08 -8.4913E+07  2.7209E-01
      85-
 mid.  surface    -1.2326E+09 -1.1956E+09  3.8083E+08 -1.6464E+07  1.7285E+08  1.1799E+08  5.4936E-01
      86-
 mid.  surface    -9.6961E+08 -9.6349E+08 -2.7785E+08 -4.9073E+06  1.1403E+08  1.2242E+08  1.4980E-01
     100-
 mid.  surface     1.1466E+09  1.1602E+09  8.3964E+08  2.3739E+06  7.1210E+07  1.4503E+07  2.3346E-01
     110-
 mid.  surface    -7.0342E+08 -6.6999E+08 -1.1281E+09  6.1977E+07  1.7313E+08  4.9543E+07  2.5920E-01



 n o d a l  s t r a i n  c a l c u l a t i o n s   f o r   t i m e  s t e p      284   ( at time 4.00679E+01 )

 node (global)
          strain       eps-xx      eps-yy      eps-zz      eps-xy      eps-yz      eps-zx       
       1-
 mid.  surface     1.2335E-01  1.1977E-01 -1.7856E-01  3.2465E-02 -2.7466E-02 -2.5643E-02
       2-
 mid.  surface     1.3992E-01  1.2764E-01 -2.8617E-01  4.1628E-02 -7.2960E-03  1.3560E-02
       8-
 mid.  surface     9.9995E-02  9.0584E-02 -1.9530E-01 -2.3439E-02 -6.5463E-02  1.6156E-02
       9-
 mid.  surface     1.0570E-01  5.0021E-02 -1.9415E-01 -2.3960E-02 -7.5098E-02  1.4740E-02
      10-
 mid.  surface     9.6170E-02  9.1118E-02 -1.7521E-01  4.7756E-03 -5.6236E-02 -5.3093E-04
      11-
 mid.  surface     8.1310E-02  1.0403E-01 -1.7169E-01  2.1354E-03 -5.6521E-02  2.5653E-03
      12-
 mid.  surface     4.7006E-02  1.0620E-01 -1.0820E-01 -6.2095E-03 -8.2271E-02 -4.0074E-02
      17-
 mid.  surface     1.0016E-01  9.7767E-02 -2.2112E-01 -9.0804E-04 -4.6990E-02 -2.0252E-02
      18-
 mid.  surface     9.3498E-02  1.0107E-01 -1.9482E-01  1.0811E-02 -6.3650E-02 -1.5709E-02
      19-
 mid.  surface     6.9156E-02  1.1107E-01 -2.0562E-01 -7.5027E-03 -4.3525E-02 -2.3347E-02
      20-
 mid.  surface     1.2072E-01  1.0383E-01 -2.4318E-01  7.7278E-03  4.9409E-02  2.7415E-02
      21-
 mid.  surface     9.1545E-02  1.0741E-01 -2.4694E-01 -5.9576E-03  3.3623E-02  4.4021E-02
      22-
 mid.  surface     7.1358E-02  1.0317E-01 -1.4845E-01 -4.0748E-03  5.6339E-03 -1.5139E-02
      23-
 mid.  surface     1.1570E-01  1.0558E-01 -2.0543E-01  6.5585E-03  4.4679E-02  7.7569E-03
      40-
 mid.  surface     1.0285E-01  1.0961E-01 -2.0989E-01  1.9932E-03  4.1345E-02 -5.7320E-03
      41-
 mid.  surface     7.8118E-02  1.2579E-01 -1.9814E-01 -1.6645E-03  3.7426E-02  6.3207E-03
      85-
 mid.  surface     1.0702E-01  1.2897E-01 -3.2905E-01  9.0929E-03  7.2564E-02 -3.8077E-02
      86-
 mid.  surface     9.8242E-02  1.1290E-01 -2.1489E-01  3.6775E-03  1.1199E-01 -6.0197E-02
     100-
 mid.  surface     6.8291E-02  1.3467E-01 -1.9013E-01  6.5801E-05 -6.3899E-03  1.6593E-02
     110-
 mid.  surface     9.5281E-02  1.0340E-01 -2.1366E-01  1.2962E-02 -2.6071E-02 -7.2639E-03



 n o d a l  s t r e s s  c a l c u l a t i o n s   f o r   t i m e  s t e p      294   ( at time 4.32227E+01 )

 node (global)
          stress       sig-xx      sig-yy      sig-zz      sig-xy      sig-yz      sig-zx       plastic
                                                                                                 strain 
       1-
 mid.  surface    -1.0158E+08 -2.4073E+08 -1.4097E+09  4.1159E+06  1.5401E+08 -6.8493E+07  2.4333E-01
       2-
 mid.  surface    -6.9313E+08 -6.9352E+08 -1.1197E+09  3.5851E+07  2.6396E+08 -9.6076E+06  4.9349E-01
       8-
 mid.  surface     1.1455E+08 -2.1218E+06 -2.5111E+08 -2.8598E+07 -1.9949E+08  4.5847E+07  2.2761E-01
       9-
 mid.  surface    -2.5204E+09 -2.6443E+09 -2.9376E+09 -6.2002E+06 -2.3096E+08  5.0642E+07  2.2444E-01
      10-
 mid.  surface    -7.7784E+07 -6.9477E+07  1.8032E+08  4.7814E+07  1.2740E+08  6.6322E+07  1.3225E-01
      11-
 mid.  surface     8.9975E+08  1.0592E+09  3.4928E+08  4.2856E+07  3.8724E+08  1.2625E+08  1.9535E-01
      12-
 mid.  surface     1.7316E+08  8.3162E+07 -1.4236E+09  1.4888E+07 -4.4137E+07 -8.6643E+07  4.7857E-02
      17-
 mid.  surface    -3.3365E+07  8.7433E+07 -9.0963E+08 -6.7669E+05  4.0187E+08  3.1935E+07  3.3406E-01
      18-
 mid.  surface    -5.7510E+08 -6.3207E+08 -6.7257E+08  5.7136E+06  1.5489E+08  1.3490E+07  2.1183E-01
      19-
 mid.  surface    -5.5717E+08 -5.9594E+08 -9.3029E+08  4.5842E+07  1.0771E+08 -8.3405E+07  2.9793E-01
      20-
 mid.  surface     8.6767E+08  9.8929E+08  4.2621E+08 -7.7168E+07 -3.4832E+08 -4.5323E+07  4.6153E-01
      21-
 mid.  surface    -4.2684E+08 -4.7407E+08  3.1732E+08 -1.3397E+07 -1.6774E+08 -5.4147E+07  2.5222E-01
      22-
 mid.  surface    -1.7544E+08 -2.3382E+08  5.3141E+07 -3.2980E+07 -2.3250E+08 -2.5611E+07 -1.5715E-03
      23-
 mid.  surface     1.6581E+09  1.7802E+09  1.1542E+09 -6.7834E+07 -3.8205E+08  1.5359E+07  3.4549E-01
      40-
 mid.  surface     5.2871E+08  5.3516E+08  4.2672E+08  1.3943E+06 -2.2658E+08 -2.1604E+07  2.7449E-01
      41-
 mid.  surface     1.2690E+09  1.2546E+09  7.7639E+08 -5.6881E+07 -2.3630E+08 -5.8182E+07  3.0725E-01
      85-
 mid.  surface    -1.0445E+09 -1.0342E+09  5.9351E+08 -8.3106E+06  1.9800E+08  7.3978E+07  4.5103E-01
      86-
 mid.  surface    -7.5806E+08 -8.2217E+08 -7.0695E+07 -4.9063E+06  1.0982E+08  4.9786E+07  1.0307E-01
     100-
 mid.  surface     1.3342E+09  1.3259E+09  1.0228E+09 -1.2643E+07  1.5798E+08  3.6642E+07  2.4671E-01
     110-
 mid.  surface    -7.0692E+08 -7.2982E+08 -1.1855E+09  3.0541E+07  1.6282E+08  1.2687E+07  2.6832E-01



 n o d a l  s t r a i n  c a l c u l a t i o n s   f o r   t i m e  s t e p      294   ( at time 4.32227E+01 )

 node (global)
          strain       eps-xx      eps-yy      eps-zz      eps-xy      eps-yz      eps-zx       
       1-
 mid.  surface     1.2975E-01  1.3531E-01 -1.9585E-01  3.1899E-02 -2.7625E-02 -2.6277E-02
       2-
[...]
      23-
 mid.  surface     1.8697E-01  2.8727E-01 -5.0109E-01  3.1400E-03  1.2880E-01 -6.2579E-02
      40-
 mid.  surface     2.1516E-01  1.6833E-01 -4.2093E-01 -2.6564E-02  1.2219E-02  4.5720E-02
      41-
 mid.  surface     2.3829E-01  2.0251E-01 -4.8014E-01 -3.6554E-02  1.4034E-01  3.9242E-02
      85-
 mid.  surface     2.1381E-01  2.5926E-01 -6.3580E-01 -3.6967E-03  1.3448E-01 -2.4398E-03
      86-
 mid.  surface     1.9937E-01  2.7268E-01 -4.2684E-01  1.0672E-02  1.9639E-01 -2.8390E-02
     100-
 mid.  surface     2.1061E-01  3.2526E-01 -4.9277E-01  5.4892E-03  2.2457E-02  5.3085E-02
     110-
 mid.  surface     2.1790E-01  2.1991E-01 -5.1471E-01  6.9404E-03 -1.7266E-01 -4.0078E-03



 n o d a l  s t r e s s  c a l c u l a t i o n s   f o r   t i m e  s t e p      418   ( at time 8.97705E+01 )

 node (global)
          stress       sig-xx      sig-yy      sig-zz      sig-xy      sig-yz      sig-zx       plastic
                                                                                                 strain 
       1-
 mid.  surface    -2.3043E+08 -4.6163E+08 -1.6773E+09 -3.4286E+07 -1.8327E+07 -1.5711E+08  1.2925E+00
       2-
 mid.  surface    -4.4905E+08 -7.0537E+08 -9.9018E+08 -3.6136E+06 -1.2791E+07 -4.8297E+07  6.5487E-01
       8-
 mid.  surface     7.5273E+08  7.1255E+08  8.2760E+08 -1.3562E+07 -4.8277E+07  1.3465E+07  5.8856E-01
       9-
 mid.  surface     4.5774E+08 -2.4317E+08 -5.3999E+09 -2.5126E+08  5.6842E+07  2.8651E+07  2.0791E+00
      10-
 mid.  surface     2.2798E+08  1.8718E+08 -2.1748E+08  2.3872E+07 -2.2862E+08 -5.4725E+07 -9.9805E-02
      11-
 mid.  surface     1.5105E+09  1.4427E+09  8.7529E+08 -3.7567E+07 -3.9311E+07 -1.0367E+08  4.2266E-01
      12-
 mid.  surface    -6.1050E+08 -4.1149E+08 -1.8945E+09 -8.2348E+07 -1.3921E+07 -9.5983E+07  1.3943E+00
      17-
 mid.  surface    -9.7217E+08 -1.0534E+09 -1.7220E+09 -7.2437E+07 -1.7283E+07 -1.9206E+07  8.9369E-01
      18-
 mid.  surface    -2.0466E+09 -1.8169E+09 -1.0704E+09  2.1391E+07 -2.7155E+08  1.2008E+05  2.7116E-01
      19-
 mid.  surface    -3.8379E+08 -2.1186E+08  3.3580E+08  2.9417E+07  1.3065E+07  6.1185E+06  4.1598E-01
      20-
 mid.  surface    -9.9667E+08 -1.0900E+09 -7.3683E+08  2.4016E+07  4.2531E+07  5.7359E+07  5.2801E-01
      21-
 mid.  surface    -3.7446E+08 -1.7513E+08  6.1411E+08  3.6053E+07  1.2539E+07  7.5550E+07 -4.9668E-01
      22-
 mid.  surface    -8.2778E+08 -6.2121E+08 -1.0789E+09 -3.8999E+07 -8.7386E+06  6.0239E+07  1.5988E-01
      23-
 mid.  surface     1.5459E+09  1.4901E+09  1.8249E+09  4.1759E+07  9.2572E+06  2.0832E+06  2.3765E-01
      40-
 mid.  surface     8.4855E+08  8.7372E+08  1.8903E+09  1.0847E+08  2.3613E+07 -1.9643E+07 -1.0726E-01
      41-
 mid.  surface    -1.7210E+09 -1.4131E+09  3.9141E+08  8.7072E+07 -2.7148E+07  2.0545E+07  3.2857E-02
      85-
 mid.  surface    -6.9288E+08 -9.7722E+08 -2.2380E+08  3.0595E+07 -6.6154E+06  7.3060E+07 -5.4841E-01
      86-
 mid.  surface    -4.4905E+08 -7.0537E+08 -9.9019E+08 -3.6139E+06 -1.2791E+07 -4.8297E+07 -1.4768E-01
     100-
 mid.  surface     9.0760E+08  9.4208E+08  2.2634E+09  2.9612E+07  2.9959E+08  2.8641E+07  2.5197E-02
     110-
 mid.  surface     2.2772E+09  1.6301E+09 -2.2724E+09 -1.9652E+08  3.3883E+08  7.1996E+07  1.5735E+00



 n o d a l  s t r a i n  c a l c u l a t i o n s   f o r   t i m e  s t e p      418   ( at time 8.97705E+01 )

 node (global)
          strain       eps-xx      eps-yy      eps-zz      eps-xy      eps-yz      eps-zx       
       1-
 mid.  surface     2.2419E-01  2.8212E-01 -3.9640E-01  3.5368E-02 -2.2326E-02  6.6402E-03
       2-
 mid.  surface     2.4455E-01  2.5918E-01 -5.8152E-01  3.6089E-02  1.3238E-02  1.0565E-02
       8-
 mid.  surface     2.7029E-01  3.0342E-01 -5.0535E-01 -1.6345E-03 -1.0160E-01  3.2458E-02
       9-
 mid.  surface     2.6484E-01  1.3723E-01 -4.7649E-01 -2.0936E-02 -1.4299E-01  2.3686E-02
      10-
 mid.  surface     2.1818E-01  1.3791E-01 -3.1365E-01  1.4355E-02 -1.0549E-01  1.5287E-02
      11-
 mid.  surface     1.7218E-01  3.2102E-01 -4.7250E-01 -1.1284E-02 -5.6144E-02  2.1773E-02
      12-
 mid.  surface     1.9429E-01  2.5926E-01 -4.3635E-01 -3.6100E-02 -9.3206E-02 -7.6325E-03
      17-
 mid.  surface     2.2317E-01  3.0911E-01 -5.4282E-01 -2.1238E-02 -3.8736E-02 -3.0923E-02
      18-
 mid.  surface     2.5710E-01  2.1815E-01 -4.4513E-01 -3.7447E-03 -9.1510E-02 -2.4077E-03
      19-
 mid.  surface     2.2263E-01  2.2811E-01 -4.6704E-01 -1.9513E-02 -3.5078E-02 -2.2025E-02
      20-
 mid.  surface     2.5924E-01  2.8434E-01 -5.8067E-01 -1.2136E-02  1.0210E-01 -6.8231E-03
      21-
 mid.  surface     2.6659E-01  2.0916E-01 -5.0730E-01 -2.8242E-03  1.2580E-03  8.6069E-03
      22-
 mid.  surface     2.2061E-01  2.6636E-01 -4.5918E-01 -4.8531E-03 -1.1426E-01 -3.7525E-02
      23-
 mid.  surface     2.0040E-01  2.9877E-01 -5.3092E-01 -6.6000E-04  1.2863E-01 -6.1876E-02
      40-
 mid.  surface     2.2693E-01  1.7218E-01 -4.4247E-01 -3.0277E-02  1.3021E-02  5.2410E-02
      41-
 mid.  surface     2.5298E-01  2.1081E-01 -5.1094E-01 -4.1537E-02  1.4659E-01  4.8312E-02
      85-
 mid.  surface     2.3887E-01  2.6477E-01 -6.7369E-01 -9.2165E-04  1.4305E-01  2.3910E-03
      86-
 mid.  surface     2.2279E-01  2.7934E-01 -4.7003E-01  1.2224E-02  2.0030E-01 -6.2048E-03
     100-
 mid.  surface     2.3039E-01  3.4193E-01 -5.4009E-01  4.1463E-03  4.7453E-02  4.3975E-02
     110-
 mid.  surface     2.3021E-01  2.3160E-01 -5.3987E-01  9.0320E-03 -1.7791E-01 -4.1380E-03



 n o d a l  s t r e s s  c a l c u l a t i o n s   f o r   t i m e  s t e p      428   ( at time 9.47705E+01 )

 node (global)
          stress       sig-xx      sig-yy      sig-zz      sig-xy      sig-yz      sig-zx       plastic
                                                                                                 strain 
       1-
 mid.  surface     8.3967E+08  5.8787E+08 -6.1398E+08 -3.5536E+07 -6.6111E+07 -2.1399E+08  1.4002E+00
       2-
 mid.  surface     7.9451E+07 -1.2998E+08 -4.3336E+08 -2.1522E+07 -3.5137E+07 -8.4524E+07  6.9373E-01
       8-
 mid.  surface     9.9396E+07  1.9678E+08  7.3010E+08  1.6142E+07  7.6019E+07 -2.7789E+06  5.3838E-01
       9-
 mid.  surface     1.9249E+09  1.4566E+09 -4.3708E+09 -2.2078E+08 -2.0350E+08  6.9997E+07  2.5919E+00
      10-
 mid.  surface     3.2442E+08  2.8621E+08  1.6811E+08  3.3981E+07 -2.2008E+08 -5.9645E+07 -6.9638E-02
      11-
 mid.  surface     1.6390E+09  1.6101E+09  1.0291E+09 -4.3174E+07 -5.7581E+07 -1.6887E+08  4.6925E-01
      12-
 mid.  surface    -6.5449E+08 -5.2987E+08 -1.9857E+09 -5.2753E+07 -2.8187E+06 -9.5222E+07  1.4888E+00
      17-
 mid.  surface    -7.2262E+08 -7.8566E+08 -1.4648E+09 -8.4191E+07 -2.8087E+07 -6.0149E+07  9.4479E-01
      18-
 mid.  surface    -3.0131E+09 -2.8370E+09 -1.3169E+09  3.5486E+07 -7.5921E+07 -3.9685E+07  1.2861E-01
      19-
 mid.  surface    -7.5393E+08 -6.2562E+08 -5.9365E+07  4.6985E+07  2.8344E+07  4.4181E+07  3.6858E-01
      20-
 mid.  surface    -1.0118E+09 -1.0623E+09 -7.2693E+08 -1.1612E+07  4.3701E+07  7.0911E+07  5.0011E-01
      21-
 mid.  surface    -8.8604E+08 -7.3964E+08  6.9690E+07  6.0853E+07  4.1023E+07  1.3693E+08 -5.6250E-01
      22-
 mid.  surface    -1.2511E+09 -1.0961E+09 -1.5412E+09 -1.6799E+07  3.2658E+07  1.0531E+08  1.7917E-01
      23-
 mid.  surface     1.5362E+09  1.5123E+09  1.8392E+09  2.4540E+07 -8.9853E+05 -1.2771E+07  2.1406E-01
      40-
 mid.  surface     1.0845E+09  1.0384E+09  1.8807E+09  9.8009E+07 -3.8727E+07 -4.4939E+06 -1.6303E-01
      41-
 mid.  surface    -2.5823E+09 -2.3889E+09 -2.3443E+08  7.2905E+07  1.0249E+08  1.1660E+07 -1.7383E-01
      85-
 mid.  surface    -7.6842E+08 -9.3060E+08 -2.3191E+08 -5.8929E+06 -5.9166E+05  5.9872E+07 -5.8635E-01
      86-
 mid.  surface     7.9459E+07 -1.2997E+08 -4.3336E+08 -2.1522E+07 -3.5137E+07 -8.4525E+07 -1.0882E-01
     100-
 mid.  surface     7.5426E+08  7.6097E+08  1.5889E+09  5.2737E+07  2.2002E+08 -4.7786E+06 -5.3534E-02
     110-
 mid.  surface     3.7158E+09  3.2004E+09 -1.5908E+09 -1.7640E+08  9.9603E+07  1.1948E+08  1.9842E+00



 n o d a l  s t r a i n  c a l c u l a t i o n s   f o r   t i m e  s t e p      428   ( at time 9.47705E+01 )

 node (global)
          strain       eps-xx      eps-yy      eps-zz      eps-xy      eps-yz      eps-zx       
       1-
 mid.  surface     2.2672E-01  2.9982E-01 -4.2466E-01  2.4390E-02 -1.9256E-02  1.7728E-02
       2-
 mid.  surface     2.4750E-01  2.7744E-01 -6.0759E-01  3.0137E-02  1.3976E-02  1.1282E-02
       8-
 mid.  surface     2.9216E-01  3.2983E-01 -5.5289E-01 -6.1555E-04 -1.1538E-01  2.9508E-02
       9-
 mid.  surface     2.8305E-01  1.5386E-01 -5.0853E-01 -2.1274E-02 -1.6385E-01  2.2859E-02
      10-
 mid.  surface     2.3275E-01  1.4030E-01 -3.2020E-01  1.3706E-02 -1.0885E-01  1.4486E-02
      11-
 mid.  surface     1.8613E-01  3.3303E-01 -4.9638E-01 -1.2895E-02 -5.4694E-02  2.3392E-02
      12-
 mid.  surface     2.0232E-01  2.7727E-01 -4.7002E-01 -3.8250E-02 -9.0208E-02 -9.3593E-03
      17-
 mid.  surface     2.3855E-01  3.2143E-01 -5.6774E-01 -2.1110E-02 -4.0479E-02 -3.5396E-02
      18-
 mid.  surface     2.7546E-01  2.2605E-01 -4.6923E-01 -3.7819E-03 -8.9523E-02 -6.4304E-03
      19-
 mid.  surface     2.3065E-01  2.4796E-01 -5.0020E-01 -1.6777E-02 -3.0831E-02 -2.9218E-02
      20-
 mid.  surface     2.7185E-01  2.9264E-01 -6.0723E-01 -1.8588E-02  1.0282E-01 -7.6673E-03
      21-
 mid.  surface     2.8604E-01  2.1803E-01 -5.3454E-01 -1.5512E-03  5.5243E-03  1.1668E-02
      22-
 mid.  surface     2.3718E-01  2.8179E-01 -4.9095E-01 -3.4925E-03 -1.1128E-01 -4.1719E-02
      23-
 mid.  surface     2.0974E-01  3.0854E-01 -5.5621E-01 -7.0374E-03  1.2849E-01 -6.3809E-02
      40-
 mid.  surface     2.3925E-01  1.7538E-01 -4.5568E-01 -3.3268E-02  1.3260E-02  6.4784E-02
      41-
 mid.  surface     2.6842E-01  2.1701E-01 -5.3746E-01 -4.5596E-02  1.5552E-01  6.2306E-02
      85-
 mid.  surface     2.6605E-01  2.6741E-01 -6.9298E-01 -2.0479E-03  1.4095E-01  2.3324E-02
      86-
 mid.  surface     2.4379E-01  2.8991E-01 -4.9418E-01  1.5132E-02  1.8987E-01 -7.4240E-03
     100-
 mid.  surface     2.4970E-01  3.6302E-01 -5.9179E-01  4.4789E-03  6.0161E-02  3.4959E-02
     110-
 mid.  surface     2.4318E-01  2.4945E-01 -5.7591E-01  1.0177E-02 -1.7778E-01  1.7337E-03



 n o d a l  s t r e s s  c a l c u l a t i o n s   f o r   t i m e  s t e p      438   ( at time 9.97705E+01 )

 node (global)
          stress       sig-xx      sig-yy      sig-zz      sig-xy      sig-yz      sig-zx       plastic
                                                                                                 strain 
       1-
 mid.  surface     7.5940E+08  6.0344E+08 -6.3534E+08 -5.9623E+07 -1.4431E+08 -2.3265E+08  1.5027E+00
       2-
 mid.  surface     8.8662E+07 -8.4894E+07 -4.0105E+08 -3.4239E+07 -1.1344E+08 -7.2074E+07  7.3353E-01
       8-
 mid.  surface    -4.3762E+08 -3.0050E+08  6.3800E+08  4.8867E+07 -4.4282E+07 -1.3028E+06  4.5156E-01
       9-
 mid.  surface     2.9170E+09  2.3954E+09 -2.7837E+09 -2.5776E+08 -5.0349E+08  3.6610E+07  3.0166E+00
      10-
 mid.  surface     1.7701E+08  7.1830E+07  2.2018E+08 -3.0096E+07 -2.9902E+08 -2.3344E+07 -6.7508E-02
      11-
 mid.  surface     8.5244E+08  7.3690E+08  1.0683E+09  7.6785E+07 -1.1584E+08 -1.4822E+08  4.6704E-01
      12-
 mid.  surface     7.9628E+08  9.1644E+08 -1.4913E+09 -9.3541E+07 -7.2287E+07 -1.4071E+08  1.6417E+00
      17-
 mid.  surface    -1.8025E+09 -1.7030E+09 -1.5873E+09 -1.7427E+06 -4.9953E+07 -8.4109E+07  9.4569E-01
      18-
 mid.  surface    -3.6024E+09 -3.2827E+09 -2.0306E+09 -2.7672E+06 -3.4487E+06 -5.5375E+07  1.6075E-02
      19-
 mid.  surface     2.9518E+08  4.4420E+08  5.1592E+07 -1.6249E+07  4.1086E+07  4.6964E+07  3.8016E-01
      20-
 mid.  surface    -2.0224E+09 -2.0097E+09 -8.3656E+08  9.0182E+07  1.1403E+08  7.6758E+07  4.2562E-01
      21-
 mid.  surface     2.4058E+08  3.8326E+08  2.3691E+08  1.0587E+07  8.2326E+07  1.1605E+08 -5.6587E-01
      22-
 mid.  surface     2.2195E+08  3.1311E+08 -1.0680E+09 -2.9999E+07  1.3388E+07  5.3248E+07  2.6539E-01
      23-
 mid.  surface     5.3440E+08  3.4082E+08  1.6063E+09  1.5804E+08  5.0573E+07  1.2331E+07  1.4705E-01
      40-
 mid.  surface     1.3015E+09  1.0779E+09  1.7921E+09  2.8097E+07  7.8740E+07  4.1952E+07 -2.0798E-01
      41-
 mid.  surface    -3.1843E+09 -2.9192E+09 -1.4031E+09  2.2811E+07  3.3865E+08  3.2169E+07 -3.1414E-01
      85-
 mid.  surface    -6.5942E+08 -8.5259E+08 -1.3976E+08 -5.9281E+06 -7.9003E+07  1.0702E+08 -6.1641E-01
      86-
 mid.  surface     8.8669E+07 -8.4887E+07 -4.0106E+08 -3.4239E+07 -1.1344E+08 -7.2075E+07 -6.9013E-02
     100-
 mid.  surface     4.1303E+08  3.6330E+08  7.4834E+08  3.7146E+07  4.0621E+08 -2.4504E+07 -9.0098E-02
     110-
 mid.  surface     4.8630E+09  4.2831E+09 -8.7888E+07 -2.5071E+08 -5.3077E+07  7.6198E+07  2.3238E+00



 n o d a l  s t r a i n  c a l c u l a t i o n s   f o r   t i m e  s t e p      438   ( at time 9.97705E+01 )

 node (global)
          strain       eps-xx      eps-yy      eps-zz      eps-xy      eps-yz      eps-zx       
       1-
 mid.  surface     2.3642E-01  3.1485E-01 -4.7487E-01  1.7447E-02 -1.8551E-02  3.6094E-02
       2-
 mid.  surface     2.6052E-01  2.9606E-01 -6.4046E-01  2.2403E-02  8.4271E-03  1.4445E-02
       8-
 mid.  surface     3.1437E-01  3.6008E-01 -6.0459E-01  9.2899E-04 -1.2955E-01  2.4739E-02
       9-
 mid.  surface     2.9866E-01  1.6700E-01 -5.3199E-01 -2.1175E-02 -1.8617E-01  1.8430E-02
      10-
 mid.  surface     2.4648E-01  1.3615E-01 -3.2102E-01  1.0063E-02 -1.1413E-01  1.5621E-02
      11-
 mid.  surface     2.0715E-01  3.5157E-01 -5.3503E-01 -7.5626E-03 -4.9035E-02  2.9206E-02
      12-
 mid.  surface     2.1062E-01  2.9719E-01 -5.0036E-01 -4.1755E-02 -8.9270E-02 -1.1710E-02
      17-
 mid.  surface     2.5630E-01  3.3391E-01 -6.0466E-01 -2.1216E-02 -3.3199E-02 -3.0042E-02
      18-
 mid.  surface     2.8841E-01  2.3249E-01 -4.8379E-01 -9.8478E-03 -8.8264E-02 -5.8100E-03
      19-
 mid.  surface     2.4096E-01  2.6306E-01 -5.1946E-01 -2.2137E-02 -2.6422E-02 -3.6372E-02
      20-
 mid.  surface     2.8766E-01  3.0501E-01 -6.4072E-01 -2.0008E-02  9.1520E-02 -2.0429E-02
      21-
 mid.  surface     2.9722E-01  2.2386E-01 -5.3893E-01 -4.9747E-03  7.4034E-03  5.4762E-03
      22-
 mid.  surface     2.4518E-01  2.9798E-01 -5.1140E-01 -9.5363E-04 -1.0280E-01 -4.7857E-02
      23-
 mid.  surface     2.2585E-01  3.2234E-01 -5.9281E-01 -4.9205E-03  1.3972E-01 -5.4287E-02
      40-
 mid.  surface     2.5220E-01  1.7372E-01 -4.5992E-01 -3.5362E-02  7.0261E-03  6.5883E-02
      41-
 mid.  surface     2.8014E-01  2.1907E-01 -5.5229E-01 -5.3658E-02  1.7072E-01  7.6288E-02
      85-
 mid.  surface     2.8417E-01  2.6977E-01 -7.0569E-01 -3.9603E-04  1.3785E-01  2.6434E-02
      86-
 mid.  surface     2.5969E-01  2.9455E-01 -5.2664E-01  1.6814E-02  1.7829E-01  1.7690E-02
     100-
 mid.  surface     2.7025E-01  3.8189E-01 -6.4518E-01  3.9251E-03  8.1713E-02  2.6942E-02
     110-
 mid.  surface     2.5696E-01  2.6117E-01 -6.0652E-01  9.4729E-03 -1.6280E-01  3.2533E-03



 n o d a l  s t r e s s  c a l c u l a t i o n s   f o r   t i m e  s t e p      442   ( at time 1.00000E+02 )

 node (global)
          stress       sig-xx      sig-yy      sig-zz      sig-xy      sig-yz      sig-zx       plastic
                                                                                                 strain 
       1-
 mid.  surface     7.6507E+08  6.3321E+08 -5.9980E+08 -2.2683E+07 -1.2898E+08 -2.8479E+08  1.5051E+00
       2-
 mid.  surface     2.1199E+08  4.0487E+07 -2.8029E+08  3.9954E+07 -1.0163E+08 -9.6574E+07  7.3446E-01
       8-
 mid.  surface    -1.6879E+08 -1.5693E+08  4.8322E+08  3.2117E+07 -4.3617E+07 -6.2708E+07  4.4805E-01
       9-
 mid.  surface     2.7007E+09  2.1745E+09 -2.6046E+09 -2.6297E+08 -5.5018E+08  8.1155E+07  3.0266E+00
      10-
 mid.  surface     1.6035E+08  6.8827E+07  4.9443E+08 -1.1224E+07 -3.1309E+08 -2.3609E+07 -6.7151E-02
      11-
 mid.  surface     1.0304E+09  8.0926E+08  1.2908E+09  1.1104E+08 -1.2909E+08 -2.1214E+08  4.6732E-01
      12-
 mid.  surface     5.2426E+08  6.4836E+08 -1.7147E+09 -2.1167E+08 -9.1039E+07 -1.5696E+08  1.6456E+00
      17-
 mid.  surface    -1.7374E+09 -1.6658E+09 -1.4578E+09  6.4758E+07 -3.4013E+07 -9.2688E+07  9.4524E-01
      18-
 mid.  surface    -3.5058E+09 -3.1959E+09 -2.0103E+09  1.5354E+07  3.9209E+07 -6.1965E+07  1.3052E-02
      19-
 mid.  surface     2.0208E+08  3.7790E+08 -2.3251E+07 -7.6461E+07  3.5630E+07  5.8218E+07  3.8042E-01
      20-
 mid.  surface    -2.0322E+09 -1.9840E+09 -9.3507E+08  1.5275E+08  1.0873E+08  9.5735E+07  4.2404E-01
      21-
 mid.  surface    -2.7073E+07  1.4462E+08 -2.2879E+07 -5.0024E+07  9.0338E+07  1.7618E+08 -5.6591E-01
      22-
 mid.  surface     4.1110E+07  1.4691E+08 -1.2316E+09 -1.0856E+08  1.0190E+07  1.0864E+08  2.6782E-01
      23-
 mid.  surface     5.8411E+08  3.6233E+08  1.5531E+09  1.8229E+08  2.3004E+07 -3.1640E+07  1.4625E-01
      40-
 mid.  surface     1.2101E+09  1.0559E+09  1.8560E+09  1.0250E+07  6.4374E+07  3.7896E+07 -2.0826E-01
      41-
 mid.  surface    -3.1433E+09 -2.8121E+09 -1.5691E+09 -1.3873E+07  3.8247E+08  3.6889E+07 -3.1762E-01
      85-
 mid.  surface    -4.0487E+08 -6.2058E+08  7.6046E+07  1.0981E+08 -7.1118E+07  1.1335E+08 -6.1718E-01
      86-
 mid.  surface     2.1199E+08  4.0493E+07 -2.8030E+08  3.9953E+07 -1.0163E+08 -9.6574E+07 -6.8087E-02
     100-
 mid.  surface     5.3103E+08  3.7900E+08  4.6971E+08  1.5202E+06  4.2005E+08 -5.8075E+07 -9.2184E-02
     110-
 mid.  surface     4.6281E+09  4.0535E+09  4.9239E+07 -2.5884E+08 -7.9509E+07  1.6777E+08  2.3311E+00



 n o d a l  s t r a i n  c a l c u l a t i o n s   f o r   t i m e  s t e p      442   ( at time 1.00000E+02 )

 node (global)
          strain       eps-xx      eps-yy      eps-zz      eps-xy      eps-yz      eps-zx       
       1-
 mid.  surface     2.3536E-01  3.1501E-01 -4.7375E-01  1.6766E-02 -1.8367E-02  3.6483E-02
       2-
 mid.  surface     2.5964E-01  2.9657E-01 -6.4206E-01  2.2210E-02  7.7711E-03  1.3454E-02
       8-
 mid.  surface     3.1483E-01  3.6080E-01 -6.0506E-01  4.5737E-04 -1.2987E-01  2.4472E-02
       9-
 mid.  surface     2.9844E-01  1.6688E-01 -5.3260E-01 -2.2018E-02 -1.8737E-01  1.8270E-02
      10-
 mid.  surface     2.4666E-01  1.3544E-01 -3.2017E-01  1.0064E-02 -1.1351E-01  1.5695E-02
      11-
 mid.  surface     2.0735E-01  3.5256E-01 -5.3672E-01 -7.1327E-03 -4.8813E-02  2.8531E-02
      12-
 mid.  surface     2.0928E-01  2.9702E-01 -5.0044E-01 -4.2598E-02 -8.9296E-02 -1.3430E-02
      17-
 mid.  surface     2.5684E-01  3.3464E-01 -6.0709E-01 -2.1105E-02 -3.2978E-02 -3.0900E-02
      18-
 mid.  surface     2.8876E-01  2.3212E-01 -4.8306E-01 -9.7941E-03 -8.7602E-02 -6.3762E-03
      19-
 mid.  surface     2.4004E-01  2.6285E-01 -5.2010E-01 -2.2976E-02 -2.6308E-02 -3.8837E-02
      20-
 mid.  surface     2.8830E-01  3.0514E-01 -6.4271E-01 -2.0080E-02  9.0906E-02 -2.1378E-02
      21-
 mid.  surface     2.9748E-01  2.2331E-01 -5.4004E-01 -5.4257E-03  7.9659E-03  7.2101E-03
      22-
 mid.  surface     2.4479E-01  2.9821E-01 -5.1162E-01 -1.2768E-03 -1.0412E-01 -4.8699E-02
      23-
 mid.  surface     2.2579E-01  3.2297E-01 -5.9422E-01 -4.8082E-03  1.3993E-01 -5.3145E-02
      40-
 mid.  surface     2.5210E-01  1.7271E-01 -4.5932E-01 -3.5515E-02  6.6468E-03  6.6946E-02
      41-
 mid.  surface     2.8023E-01  2.1857E-01 -5.5182E-01 -5.4273E-02  1.7095E-01  7.7494E-02
      85-
 mid.  surface     2.8591E-01  2.6992E-01 -7.0884E-01 -3.8332E-04  1.3876E-01  3.0620E-02
      86-
 mid.  surface     2.6063E-01  2.9475E-01 -5.2751E-01  1.6855E-02  1.7918E-01  1.8935E-02
     100-
 mid.  surface     2.7056E-01  3.8364E-01 -6.4659E-01  3.9309E-03  8.2808E-02  2.6233E-02
     110-
 mid.  surface     2.5689E-01  2.6252E-01 -6.0803E-01  9.5074E-03 -1.6328E-01  2.7101E-03
