 LS-DYNA keyword deck by LS-PrePost                                      
                    ls-dyna smp d R14 R14.1.1s_1_ef50e1 date 06/16/2024

{BEGIN LEGEND}
 Entity #        Title
        1     Notched Bar                                                             
{END LEGEND}



 time =   0.0000E+00
 mat.#=    1             inten=  -2.2741E-12     kinen=   0.0000E+00     eroded_ie=   0.0000E+00     eroded_ke=   0.0000E+00
 x-mom=   0.0000E+00     y-mom=   0.0000E+00     z-mom=   0.0000E+00
 x-rbv=   0.0000E+00     y-rbv=   0.0000E+00     z-rbv=   0.0000E+00


 time =   1.2924E+00
 mat.#=    1             inten=   7.7522E-03     kinen=   0.0000E+00     eroded_ie=   0.0000E+00     eroded_ke=   0.0000E+00
 x-mom=   0.0000E+00     y-mom=   0.0000E+00     z-mom=   0.0000E+00
 x-rbv=   0.0000E+00     y-rbv=   0.0000E+00     z-rbv=   0.0000E+00


 time =   2.5484E+00
 mat.#=    1             inten=   3.0667E-02     kinen=   0.0000E+00     eroded_ie=   0.0000E+00     eroded_ke=   0.0000E+00
 x-mom=   0.0000E+00     y-mom=   0.0000E+00     z-mom=   0.0000E+00
 x-rbv=   0.0000E+00     y-rbv=   0.0000E+00     z-rbv=   0.0000E+00


 time =   4.5389E+00
 mat.#=    1             inten=   2.1803E-01     kinen=   0.0000E+00     eroded_ie=   0.0000E+00     eroded_ke=   0.0000E+00
 x-mom=   0.0000E+00     y-mom=   0.0000E+00     z-mom=   0.0000E+00
 x-rbv=   0.0000E+00     y-rbv=   0.0000E+00     z-rbv=   0.0000E+00


 time =   6.5295E+00
 mat.#=    1             inten=   3.3618E-01     kinen=   0.0000E+00     eroded_ie=   0.0000E+00     eroded_ke=   0.0000E+00
 x-mom=   0.0000E+00     y-mom=   0.0000E+00     z-mom=   0.0000E+00
 x-rbv=   0.0000E+00     y-rbv=   0.0000E+00     z-rbv=   0.0000E+00


 time =   8.5200E+00
 mat.#=    1             inten=   4.1271E-01     kinen=   0.0000E+00     eroded_ie=   0.0000E+00     eroded_ke=   0.0000E+00
 x-mom=   0.0000E+00     y-mom=   0.0000E+00     z-mom=   0.0000E+00
 x-rbv=   0.0000E+00     y-rbv=   0.0000E+00     z-rbv=   0.0000E+00


 time =   1.1675E+01
 mat.#=    1             inten=   5.7196E-01     kinen=   0.0000E+00     eroded_ie=   0.0000E+00     eroded_ke=   0.0000E+00
 x-mom=   0.0000E+00     y-mom=   0.0000E+00     z-mom=   0.0000E+00
 x-rbv=   0.0000E+00     y-rbv=   0.0000E+00     z-rbv=   0.0000E+00


 time =   1.4830E+01
 mat.#=    1             inten=   7.0723E-01     kinen=   0.0000E+00     eroded_ie=   0.0000E+00     eroded_ke=   0.0000E+00
 x-mom=   0.0000E+00     y-mom=   0.0000E+00     z-mom=   0.0000E+00
 x-rbv=   0.0000E+00     y-rbv=   0.0000E+00     z-rbv=   0.0000E+00


 time =   1.7984E+01
 mat.#=    1             inten=   8.0990E-01     kinen=   0.0000E+00     eroded_ie=   0.0000E+00     eroded_ke=   0.0000E+00
 x-mom=   0.0000E+00     y-mom=   0.0000E+00     z-mom=   0.0000E+00
 x-rbv=   0.0000E+00     y-rbv=   0.0000E+00     z-rbv=   0.0000E+00


 time =   2.1139E+01
 mat.#=    1             inten=   9.0998E-01     kinen=   0.0000E+00     eroded_ie=   0.0000E+00     eroded_ke=   0.0000E+00
 x-mom=   0.0000E+00     y-mom=   0.0000E+00     z-mom=   0.0000E+00
 x-rbv=   0.0000E+00     y-rbv=   0.0000E+00     z-rbv=   0.0000E+00


 time =   2.4294E+01
 mat.#=    1             inten=   1.0120E+00     kinen=   0.0000E+00     eroded_ie=   0.0000E+00     eroded_ke=   0.0000E+00
 x-mom=   0.0000E+00     y-mom=   0.0000E+00     z-mom=   0.0000E+00
 x-rbv=   0.0000E+00     y-rbv=   0.0000E+00     z-rbv=   0.0000E+00


 time =   2.7449E+01
 mat.#=    1             inten=   1.1128E+00     kinen=   0.0000E+00     eroded_ie=   0.0000E+00     eroded_ke=   0.0000E+00
 x-mom=   0.0000E+00     y-mom=   0.0000E+00     z-mom=   0.0000E+00
 x-rbv=   0.0000E+00     y-rbv=   0.0000E+00     z-rbv=   0.0000E+00


 time =   3.0604E+01
 mat.#=    1             inten=   1.2074E+00     kinen=   0.0000E+00     eroded_ie=   0.0000E+00     eroded_ke=   0.0000E+00
 x-mom=   0.0000E+00     y-mom=   0.0000E+00     z-mom=   0.0000E+00
 x-rbv=   0.0000E+00     y-rbv=   0.0000E+00     z-rbv=   0.0000E+00


 time =   3.3758E+01
 mat.#=    1             inten=   1.2953E+00     kinen=   0.0000E+00     eroded_ie=   0.0000E+00     eroded_ke=   0.0000E+00
 x-mom=   0.0000E+00     y-mom=   0.0000E+00     z-mom=   0.0000E+00
 x-rbv=   0.0000E+00     y-rbv=   0.0000E+00     z-rbv=   0.0000E+00


 time =   3.6913E+01
 mat.#=    1             inten=   1.3650E+00     kinen=   0.0000E+00     eroded_ie=   0.0000E+00     eroded_ke=   0.0000E+00
 x-mom=   0.0000E+00     y-mom=   0.0000E+00     z-mom=   0.0000E+00
 x-rbv=   0.0000E+00     y-rbv=   0.0000E+00     z-rbv=   0.0000E+00


 time =   4.0068E+01
 mat.#=    1             inten=   1.4567E+00     kinen=   0.0000E+00     eroded_ie=   0.0000E+00     eroded_ke=   0.0000E+00
 x-mom=   0.0000E+00     y-mom=   0.0000E+00     z-mom=   0.0000E+00
 x-rbv=   0.0000E+00     y-rbv=   0.0000E+00     z-rbv=   0.0000E+00


 time =   4.3223E+01
 mat.#=    1             inten=   1.5387E+00     kinen=   0.0000E+00     eroded_ie=   0.0000E+00     eroded_ke=   0.0000E+00
 x-mom=   0.0000E+00     y-mom=   0.0000E+00     z-mom=   0.0000E+00
 x-rbv=   0.0000E+00     y-rbv=   0.0000E+00     z-rbv=   0.0000E+00


 time =   4.6377E+01
 mat.#=    1             inten=   1.6123E+00     kinen=   0.0000E+00     eroded_ie=   0.0000E+00     eroded_ke=   0.0000E+00
 x-mom=   0.0000E+00     y-mom=   0.0000E+00     z-mom=   0.0000E+00
 x-rbv=   0.0000E+00     y-rbv=   0.0000E+00     z-rbv=   0.0000E+00


 time =   4.9532E+01
 mat.#=    1             inten=   1.6906E+00     kinen=   0.0000E+00     eroded_ie=   0.0000E+00     eroded_ke=   0.0000E+00
 x-mom=   0.0000E+00     y-mom=   0.0000E+00     z-mom=   0.0000E+00
 x-rbv=   0.0000E+00     y-rbv=   0.0000E+00     z-rbv=   0.0000E+00


 time =   5.2687E+01
 mat.#=    1             inten=   1.7689E+00     kinen=   0.0000E+00     eroded_ie=   0.0000E+00     eroded_ke=   0.0000E+00
 x-mom=   0.0000E+00     y-mom=   0.0000E+00     z-mom=   0.0000E+00
 x-rbv=   0.0000E+00     y-rbv=   0.0000E+00     z-rbv=   0.0000E+00


 time =   5.5842E+01
 mat.#=    1             inten=   1.8374E+00     kinen=   0.0000E+00     eroded_ie=   0.0000E+00     eroded_ke=   0.0000E+00
 x-mom=   0.0000E+00     y-mom=   0.0000E+00     z-mom=   0.0000E+00
 x-rbv=   0.0000E+00     y-rbv=   0.0000E+00     z-rbv=   0.0000E+00


 time =   5.8997E+01
 mat.#=    1             inten=   1.9156E+00     kinen=   0.0000E+00     eroded_ie=   0.0000E+00     eroded_ke=   0.0000E+00
 x-mom=   0.0000E+00     y-mom=   0.0000E+00     z-mom=   0.0000E+00
 x-rbv=   0.0000E+00     y-rbv=   0.0000E+00     z-rbv=   0.0000E+00


 time =   6.2151E+01
 mat.#=    1             inten=   1.9850E+00     kinen=   0.0000E+00     eroded_ie=   0.0000E+00     eroded_ke=   0.0000E+00
 x-mom=   0.0000E+00     y-mom=   0.0000E+00     z-mom=   0.0000E+00
 x-rbv=   0.0000E+00     y-rbv=   0.0000E+00     z-rbv=   0.0000E+00


 time =   6.5306E+01
 mat.#=    1             inten=   2.0632E+00     kinen=   0.0000E+00     eroded_ie=   0.0000E+00     eroded_ke=   0.0000E+00
 x-mom=   0.0000E+00     y-mom=   0.0000E+00     z-mom=   0.0000E+00
 x-rbv=   0.0000E+00     y-rbv=   0.0000E+00     z-rbv=   0.0000E+00


 time =   6.8461E+01
 mat.#=    1             inten=   2.1395E+00     kinen=   0.0000E+00     eroded_ie=   0.0000E+00     eroded_ke=   0.0000E+00
 x-mom=   0.0000E+00     y-mom=   0.0000E+00     z-mom=   0.0000E+00
 x-rbv=   0.0000E+00     y-rbv=   0.0000E+00     z-rbv=   0.0000E+00


 time =   7.1616E+01
 mat.#=    1             inten=   2.2096E+00     kinen=   0.0000E+00     eroded_ie=   0.0000E+00     eroded_ke=   0.0000E+00
 x-mom=   0.0000E+00     y-mom=   0.0000E+00     z-mom=   0.0000E+00
 x-rbv=   0.0000E+00     y-rbv=   0.0000E+00     z-rbv=   0.0000E+00


 time =   7.4771E+01
 mat.#=    1             inten=   2.2749E+00     kinen=   0.0000E+00     eroded_ie=   0.0000E+00     eroded_ke=   0.0000E+00
 x-mom=   0.0000E+00     y-mom=   0.0000E+00     z-mom=   0.0000E+00
 x-rbv=   0.0000E+00     y-rbv=   0.0000E+00     z-rbv=   0.0000E+00


 time =   7.9771E+01
 mat.#=    1             inten=   2.3950E+00     kinen=   0.0000E+00     eroded_ie=   0.0000E+00     eroded_ke=   0.0000E+00
 x-mom=   0.0000E+00     y-mom=   0.0000E+00     z-mom=   0.0000E+00
 x-rbv=   0.0000E+00     y-rbv=   0.0000E+00     z-rbv=   0.0000E+00


 time =   8.4771E+01
 mat.#=    1             inten=   2.5035E+00     kinen=   0.0000E+00     eroded_ie=   0.0000E+00     eroded_ke=   0.0000E+00
 x-mom=   0.0000E+00     y-mom=   0.0000E+00     z-mom=   0.0000E+00
 x-rbv=   0.0000E+00     y-rbv=   0.0000E+00     z-rbv=   0.0000E+00


 time =   8.9771E+01
 mat.#=    1             inten=   2.6162E+00     kinen=   0.0000E+00     eroded_ie=   0.0000E+00     eroded_ke=   0.0000E+00
 x-mom=   0.0000E+00     y-mom=   0.0000E+00     z-mom=   0.0000E+00
 x-rbv=   0.0000E+00     y-rbv=   0.0000E+00     z-rbv=   0.0000E+00


 time =   9.4771E+01
 mat.#=    1             inten=   2.7224E+00     kinen=   0.0000E+00     eroded_ie=   0.0000E+00     eroded_ke=   0.0000E+00
 x-mom=   0.0000E+00     y-mom=   0.0000E+00     z-mom=   0.0000E+00
 x-rbv=   0.0000E+00     y-rbv=   0.0000E+00     z-rbv=   0.0000E+00


 time =   9.9771E+01
 mat.#=    1             inten=   2.8341E+00     kinen=   0.0000E+00     eroded_ie=   0.0000E+00     eroded_ke=   0.0000E+00
 x-mom=   0.0000E+00     y-mom=   0.0000E+00     z-mom=   0.0000E+00
 x-rbv=   0.0000E+00     y-rbv=   0.0000E+00     z-rbv=   0.0000E+00


 time =   1.0000E+02
 mat.#=    1             inten=   2.8302E+00     kinen=   0.0000E+00     eroded_ie=   0.0000E+00     eroded_ke=   0.0000E+00
 x-mom=   0.0000E+00     y-mom=   0.0000E+00     z-mom=   0.0000E+00
 x-rbv=   0.0000E+00     y-rbv=   0.0000E+00     z-rbv=   0.0000E+00
