 LS-DYNA keyword deck by LS-PrePost                                      
                    ls-dyna smp d R14 R14.1.1s_1_ef50e1 date 06/16/2024

{BEGIN LEGEND}
 Entity #        Title
        1                                                                                     
        2                                                                                     
        3                                                                                     
        4                                                                                     
        5                                                                                     
        6                                                                                     
        7                                                                                     
        8                                                                                     
        9                                                                                     
       10                                                                                     
       11                                                                                     
       12                                                                                     
       13                                                                                     
       14                                                                                     
       15                                                                                     
       16                                                                                     
       17                                                                                     
       18                                                                                     
       19                                                                                     
      167                                                                                     
      168                                                                                     
      169                                                                                     
      170                                                                                     
      197                                                                                     
      198                                                                                     
      225                                                                                     
      226                                                                                     
      279                                                                                     
      280                                                                                     
      281                                                                                     
      282                                                                                     
      296                                                                                     
      323                                                                                     
      324                                                                                     
      338                                                                                     
      352                                                                                     
      366                                                                                     
      380                                                                                     
      608                                                                                     
      609                                                                                     
      610                                                                                     
      611                                                                                     
      804                                                                                     
      806                                                                                     
      808                                                                                     
      810                                                                                     
      852                                                                                     
      854                                                                                     
      856                                                                                     
      858                                                                                     
      864                                                                                     
      866                                                                                     
      868                                                                                     
      870                                                                                     
      880                                                                                     
      882                                                                                     
      884                                                                                     
      886                                                                                     
{END LEGEND}




 n o d a l   p r i n t   o u t   f o r   t i m e  s t e p       1                              ( at time 0.0000000E+00 )

 nodal point  x-disp     y-disp      z-disp      x-vel       y-vel       z-vel      x-accl      y-accl      z-accl      x-coor      y-coor      z-coor
        1  0.00000E+00 0.00000E+00 0.00000E+00 0.00000E+00 0.00000E+00 0.00000E+00 0.00000E+00 0.00000E+00 0.00000E+00 3.17500E-03 0.00000E+00-1.78000E-18
        2  0.00000E+00 0.00000E+00 0.00000E+00 0.00000E+00 0.00000E+00 0.00000E+00 0.00000E+00 0.00000E+00 0.00000E+00 2.38130E-03 0.00000E+00 0.00000E+00
        3  0.00000E+00 0.00000E+00 0.00000E+00 0.00000E+00 0.00000E+00 0.00000E+00 0.00000E+00 0.00000E+00 0.00000E+00 1.58750E-03 0.00000E+00 0.00000E+00
        4  0.00000E+00 0.00000E+00 0.00000E+00 0.00000E+00 0.00000E+00 0.00000E+00 0.00000E+00 0.00000E+00 0.00000E+00 7.93750E-04 0.00000E+00 0.00000E+00
        5  0.00000E+00 0.00000E+00 0.00000E+00 0.00000E+00 0.00000E+00 0.00000E+00 0.00000E+00 0.00000E+00 0.00000E+00 0.00000E+00 0.00000E+00 0.00000E+00
        6  0.00000E+00 0.00000E+00 0.00000E+00 0.00000E+00 0.00000E+00 0.00000E+00 0.00000E+00 0.00000E+00 0.00000E+00 4.86000E-20 7.93750E-04 0.00000E+00
        7  0.00000E+00 0.00000E+00 0.00000E+00 0.00000E+00 0.00000E+00 0.00000E+00 0.00000E+00 0.00000E+00 0.00000E+00 9.72100E-20 1.58750E-03 0.00000E+00
        8  0.00000E+00 0.00000E+00 0.00000E+00 0.00000E+00 0.00000E+00 0.00000E+00 0.00000E+00 0.00000E+00 0.00000E+00 1.45800E-19 2.38130E-03 0.00000E+00
        9  0.00000E+00 0.00000E+00 0.00000E+00 0.00000E+00 0.00000E+00 0.00000E+00 0.00000E+00 0.00000E+00 0.00000E+00 1.94400E-19 3.17500E-03 0.00000E+00
       10  0.00000E+00 0.00000E+00 0.00000E+00 0.00000E+00 0.00000E+00 0.00000E+00 0.00000E+00 0.00000E+00 0.00000E+00 1.21500E-03 2.93330E-03 0.00000E+00
       11  0.00000E+00 0.00000E+00 0.00000E+00 0.00000E+00 0.00000E+00 0.00000E+00 0.00000E+00 0.00000E+00 0.00000E+00 2.24510E-03 2.24510E-03 0.00000E+00
       12  0.00000E+00 0.00000E+00 0.00000E+00 0.00000E+00 0.00000E+00 0.00000E+00 0.00000E+00 0.00000E+00 0.00000E+00 2.93330E-03 1.21500E-03 0.00000E+00
       13  0.00000E+00 0.00000E+00 0.00000E+00 0.00000E+00 0.00000E+00 0.00000E+00 0.00000E+00 0.00000E+00 0.00000E+00 1.30830E-03 1.35190E-03 0.00000E+00
       14  0.00000E+00 0.00000E+00 0.00000E+00 0.00000E+00 0.00000E+00 0.00000E+00 0.00000E+00 0.00000E+00 0.00000E+00 1.48830E-03 7.06977E-04 0.00000E+00
       15  0.00000E+00 0.00000E+00 0.00000E+00 0.00000E+00 0.00000E+00 0.00000E+00 0.00000E+00 0.00000E+00 0.00000E+00 6.69510E-04 1.50700E-03 0.00000E+00
       16  0.00000E+00 0.00000E+00 0.00000E+00 0.00000E+00 0.00000E+00 0.00000E+00 0.00000E+00 0.00000E+00 0.00000E+00 7.53638E-04 7.82337E-04 0.00000E+00
       17  0.00000E+00 0.00000E+00 0.00000E+00 0.00000E+00 0.00000E+00 0.00000E+00 0.00000E+00 0.00000E+00 0.00000E+00 1.73630E-03 1.76750E-03 0.00000E+00
       18  0.00000E+00 0.00000E+00 0.00000E+00 0.00000E+00 0.00000E+00 0.00000E+00 0.00000E+00 0.00000E+00 0.00000E+00 9.20131E-04 2.19110E-03 0.00000E+00
       19  0.00000E+00 0.00000E+00 0.00000E+00 0.00000E+00 0.00000E+00 0.00000E+00 0.00000E+00 0.00000E+00 0.00000E+00 2.16330E-03 9.50859E-04 0.00000E+00
      167  0.00000E+00 0.00000E+00 0.00000E+00 0.00000E+00 0.00000E+00 0.00000E+00 0.00000E+00 0.00000E+00 0.00000E+00 3.12470E-03 3.18070E-03 2.54000E-02
      168  0.00000E+00 0.00000E+00 0.00000E+00 0.00000E+00 0.00000E+00 0.00000E+00 0.00000E+00 0.00000E+00 0.00000E+00 2.35430E-03 2.43270E-03 2.54000E-02
      169  0.00000E+00 0.00000E+00 0.00000E+00 0.00000E+00 0.00000E+00 0.00000E+00 0.00000E+00 0.00000E+00 0.00000E+00 2.67800E-03 1.27200E-03 2.54000E-02
      170  0.00000E+00 0.00000E+00 0.00000E+00 0.00000E+00 0.00000E+00 0.00000E+00 0.00000E+00 0.00000E+00 0.00000E+00 3.89280E-03 1.71090E-03 2.54000E-02
      197  0.00000E+00 0.00000E+00 0.00000E+00 0.00000E+00 0.00000E+00 0.00000E+00 0.00000E+00 0.00000E+00 0.00000E+00 1.20460E-03 2.71160E-03 2.54000E-02
      198  0.00000E+00 0.00000E+00 0.00000E+00 0.00000E+00 0.00000E+00 0.00000E+00 0.00000E+00 0.00000E+00 0.00000E+00 1.65560E-03 3.94280E-03 2.54000E-02
      225  0.00000E+00 0.00000E+00 0.00000E+00 0.00000E+00 0.00000E+00 0.00000E+00 0.00000E+00 0.00000E+00 0.00000E+00 2.85750E-03 0.00000E+00 2.54000E-02
      226  0.00000E+00 0.00000E+00 0.00000E+00 0.00000E+00 0.00000E+00 0.00000E+00 0.00000E+00 0.00000E+00 0.00000E+00 4.28630E-03 0.00000E+00 2.54000E-02
      279  0.00000E+00 0.00000E+00 0.00000E+00 0.00000E+00 0.00000E+00 0.00000E+00 0.00000E+00 0.00000E+00 0.00000E+00 1.42880E-03 0.00000E+00 2.54000E-02
      280  0.00000E+00 0.00000E+00 0.00000E+00 0.00000E+00 0.00000E+00 0.00000E+00 0.00000E+00 0.00000E+00 0.00000E+00 1.35620E-03 1.40780E-03 2.54000E-02
      281  0.00000E+00 0.00000E+00 0.00000E+00 0.00000E+00 0.00000E+00 0.00000E+00 0.00000E+00 0.00000E+00 0.00000E+00 8.74900E-20 1.42880E-03 2.54000E-02
      282  0.00000E+00 0.00000E+00 0.00000E+00 0.00000E+00 0.00000E+00 0.00000E+00 0.00000E+00 0.00000E+00 0.00000E+00 0.00000E+00 0.00000E+00 2.54000E-02
      296  0.00000E+00 0.00000E+00 0.00000E+00 0.00000E+00 0.00000E+00 0.00000E+00 0.00000E+00 0.00000E+00 0.00000E+00 1.75000E-19 2.85750E-03 2.54000E-02
      323  0.00000E+00 0.00000E+00 0.00000E+00 0.00000E+00 0.00000E+00 0.00000E+00 0.00000E+00 0.00000E+00 0.00000E+00 4.04110E-03 4.04120E-03 2.54000E-02
      324  0.00000E+00 0.00000E+00 0.00000E+00 0.00000E+00 0.00000E+00 0.00000E+00 0.00000E+00 0.00000E+00 0.00000E+00 2.18670E-03 5.28010E-03 2.54000E-02
      338  0.00000E+00 0.00000E+00 0.00000E+00 0.00000E+00 0.00000E+00 0.00000E+00 0.00000E+00 0.00000E+00 0.00000E+00 5.28000E-03 2.18690E-03 2.54000E-02
      352  0.00000E+00 0.00000E+00 0.00000E+00 0.00000E+00 0.00000E+00 0.00000E+00 0.00000E+00 0.00000E+00 0.00000E+00 2.62500E-19 4.28630E-03 2.54000E-02
      366  0.00000E+00 0.00000E+00 0.00000E+00 0.00000E+00 0.00000E+00 0.00000E+00 0.00000E+00 0.00000E+00 0.00000E+00 5.71500E-03 0.00000E+00 2.54000E-02
      380  0.00000E+00 0.00000E+00 0.00000E+00 0.00000E+00 0.00000E+00 0.00000E+00 0.00000E+00 0.00000E+00 0.00000E+00 3.49900E-19 5.71500E-03 2.54000E-02
      608  0.00000E+00 0.00000E+00 0.00000E+00 0.00000E+00 0.00000E+00 0.00000E+00 0.00000E+00 0.00000E+00 0.00000E+00 1.27000E-02 0.00000E+00 2.54000E-02
      609  0.00000E+00 0.00000E+00 0.00000E+00 0.00000E+00 0.00000E+00 0.00000E+00 0.00000E+00 0.00000E+00 0.00000E+00 1.09538E-02 0.00000E+00 2.54000E-02
      610  0.00000E+00 0.00000E+00 0.00000E+00 0.00000E+00 0.00000E+00 0.00000E+00 0.00000E+00 0.00000E+00 0.00000E+00 9.20750E-03 0.00000E+00 2.54000E-02
      611  0.00000E+00 0.00000E+00 0.00000E+00 0.00000E+00 0.00000E+00 0.00000E+00 0.00000E+00 0.00000E+00 0.00000E+00 7.46130E-03 0.00000E+00 2.54000E-02
      804  0.00000E+00 0.00000E+00 0.00000E+00 0.00000E+00 0.00000E+00 0.00000E+00 0.00000E+00 0.00000E+00 0.00000E+00 6.90200E-03 2.83400E-03 2.54000E-02
      806  0.00000E+00 0.00000E+00 0.00000E+00 0.00000E+00 0.00000E+00 0.00000E+00 0.00000E+00 0.00000E+00 0.00000E+00 5.27800E-03 5.27380E-03 2.54000E-02
      808  0.00000E+00 0.00000E+00 0.00000E+00 0.00000E+00 0.00000E+00 0.00000E+00 0.00000E+00 0.00000E+00 0.00000E+00 2.83770E-03 6.90050E-03 2.54000E-02
      810  0.00000E+00 0.00000E+00 0.00000E+00 0.00000E+00 0.00000E+00 0.00000E+00 0.00000E+00 0.00000E+00 0.00000E+00 4.56900E-19 7.46130E-03 2.54000E-02
      852  0.00000E+00 0.00000E+00 0.00000E+00 0.00000E+00 0.00000E+00 0.00000E+00 0.00000E+00 0.00000E+00 0.00000E+00 8.52400E-03 3.48110E-03 2.54000E-02
      854  0.00000E+00 0.00000E+00 0.00000E+00 0.00000E+00 0.00000E+00 0.00000E+00 0.00000E+00 0.00000E+00 0.00000E+00 6.51500E-03 6.50640E-03 2.54000E-02
      856  0.00000E+00 0.00000E+00 0.00000E+00 0.00000E+00 0.00000E+00 0.00000E+00 0.00000E+00 0.00000E+00 0.00000E+00 3.48870E-03 8.52100E-03 2.54000E-02
      858  0.00000E+00 0.00000E+00 0.00000E+00 0.00000E+00 0.00000E+00 0.00000E+00 0.00000E+00 0.00000E+00 0.00000E+00 5.63800E-19 9.20750E-03 2.54000E-02
      864  0.00000E+00 0.00000E+00 0.00000E+00 0.00000E+00 0.00000E+00 0.00000E+00 0.00000E+00 0.00000E+00 0.00000E+00 1.01461E-02 4.12810E-03 2.54000E-02
      866  0.00000E+00 0.00000E+00 0.00000E+00 0.00000E+00 0.00000E+00 0.00000E+00 0.00000E+00 0.00000E+00 0.00000E+00 7.75190E-03 7.73900E-03 2.54000E-02
      868  0.00000E+00 0.00000E+00 0.00000E+00 0.00000E+00 0.00000E+00 0.00000E+00 0.00000E+00 0.00000E+00 0.00000E+00 4.13970E-03 1.01414E-02 2.54000E-02
      870  0.00000E+00 0.00000E+00 0.00000E+00 0.00000E+00 0.00000E+00 0.00000E+00 0.00000E+00 0.00000E+00 0.00000E+00 6.70700E-19 1.09538E-02 2.54000E-02
      880  0.00000E+00 0.00000E+00 0.00000E+00 0.00000E+00 0.00000E+00 0.00000E+00 0.00000E+00 0.00000E+00 0.00000E+00 1.17681E-02 4.77520E-03 2.54000E-02
      882  0.00000E+00 0.00000E+00 0.00000E+00 0.00000E+00 0.00000E+00 0.00000E+00 0.00000E+00 0.00000E+00 0.00000E+00 8.98890E-03 8.97160E-03 2.54000E-02
      884  0.00000E+00 0.00000E+00 0.00000E+00 0.00000E+00 0.00000E+00 0.00000E+00 0.00000E+00 0.00000E+00 0.00000E+00 4.79070E-03 1.17618E-02 2.54000E-02
      886  0.00000E+00 0.00000E+00 0.00000E+00 0.00000E+00 0.00000E+00 0.00000E+00 0.00000E+00 0.00000E+00 0.00000E+00 7.77700E-19 1.27000E-02 2.54000E-02



 n o d a l   p r i n t   o u t   f o r   t i m e  s t e p      10                              ( at time 1.2924466E+00 )

 nodal point  x-disp     y-disp      z-disp      x-vel       y-vel       z-vel      x-accl      y-accl      z-accl      x-coor      y-coor      z-coor
        1  1.55885E-06 0.00000E+00 0.00000E+00 0.00000E+00 0.00000E+00 0.00000E+00 0.00000E+00 0.00000E+00 0.00000E+00 3.17656E-03 0.00000E+00-1.78000E-18
        2  9.28554E-07 0.00000E+00 0.00000E+00 0.00000E+00 0.00000E+00 0.00000E+00 0.00000E+00 0.00000E+00 0.00000E+00 2.38223E-03 0.00000E+00 0.00000E+00
        3  5.31308E-07 0.00000E+00 0.00000E+00 0.00000E+00 0.00000E+00 0.00000E+00 0.00000E+00 0.00000E+00 0.00000E+00 1.58803E-03 0.00000E+00 0.00000E+00
        4  2.44286E-07 0.00000E+00 0.00000E+00 0.00000E+00 0.00000E+00 0.00000E+00 0.00000E+00 0.00000E+00 0.00000E+00 7.93994E-04 0.00000E+00 0.00000E+00
        5  0.00000E+00 0.00000E+00 0.00000E+00 0.00000E+00 0.00000E+00 0.00000E+00 0.00000E+00 0.00000E+00 0.00000E+00 0.00000E+00 0.00000E+00 0.00000E+00
        6  0.00000E+00 2.28798E-07 0.00000E+00 0.00000E+00 0.00000E+00 0.00000E+00 0.00000E+00 0.00000E+00 0.00000E+00 4.86000E-20 7.93979E-04 0.00000E+00
        7  0.00000E+00 5.24346E-07 0.00000E+00 0.00000E+00 0.00000E+00 0.00000E+00 0.00000E+00 0.00000E+00 0.00000E+00 9.72100E-20 1.58802E-03 0.00000E+00
        8  0.00000E+00 9.87926E-07 0.00000E+00 0.00000E+00 0.00000E+00 0.00000E+00 0.00000E+00 0.00000E+00 0.00000E+00 1.45800E-19 2.38229E-03 0.00000E+00
        9  0.00000E+00 1.69943E-06 0.00000E+00 0.00000E+00 0.00000E+00 0.00000E+00 0.00000E+00 0.00000E+00 0.00000E+00 1.94400E-19 3.17670E-03 0.00000E+00
       10  5.73351E-07 1.62325E-06 0.00000E+00 0.00000E+00 0.00000E+00 0.00000E+00 0.00000E+00 0.00000E+00 0.00000E+00 1.21557E-03 2.93492E-03 0.00000E+00
       11  1.17699E-06 1.45145E-06 0.00000E+00 0.00000E+00 0.00000E+00 0.00000E+00 0.00000E+00 0.00000E+00 0.00000E+00 2.24628E-03 2.24655E-03 0.00000E+00
       12  1.48518E-06 8.23258E-07 0.00000E+00 0.00000E+00 0.00000E+00 0.00000E+00 0.00000E+00 0.00000E+00 0.00000E+00 2.93479E-03 1.21582E-03 0.00000E+00
       13  5.72765E-07 5.71025E-07 0.00000E+00 0.00000E+00 0.00000E+00 0.00000E+00 0.00000E+00 0.00000E+00 0.00000E+00 1.30887E-03 1.35247E-03 0.00000E+00
       14  5.51029E-07 2.76291E-07 0.00000E+00 0.00000E+00 0.00000E+00 0.00000E+00 0.00000E+00 0.00000E+00 0.00000E+00 1.48885E-03 7.07253E-04 0.00000E+00
       15  2.71792E-07 5.41893E-07 0.00000E+00 0.00000E+00 0.00000E+00 0.00000E+00 0.00000E+00 0.00000E+00 0.00000E+00 6.69782E-04 1.50754E-03 0.00000E+00
       16  2.58677E-07 2.60557E-07 0.00000E+00 0.00000E+00 0.00000E+00 0.00000E+00 0.00000E+00 0.00000E+00 0.00000E+00 7.53896E-04 7.82598E-04 0.00000E+00
       17  8.90138E-07 8.10414E-07 0.00000E+00 0.00000E+00 0.00000E+00 0.00000E+00 0.00000E+00 0.00000E+00 0.00000E+00 1.73719E-03 1.76831E-03 0.00000E+00
       18  4.48499E-07 9.15661E-07 0.00000E+00 0.00000E+00 0.00000E+00 0.00000E+00 0.00000E+00 0.00000E+00 0.00000E+00 9.20579E-04 2.19202E-03 0.00000E+00
       19  9.29426E-07 3.78610E-07 0.00000E+00 0.00000E+00 0.00000E+00 0.00000E+00 0.00000E+00 0.00000E+00 0.00000E+00 2.16423E-03 9.51237E-04 0.00000E+00
      167  1.44478E-07 1.62128E-07-1.29245E-05 0.00000E+00 0.00000E+00 0.00000E+00 0.00000E+00 0.00000E+00 0.00000E+00 3.12484E-03 3.18086E-03 2.53871E-02
      168  9.90362E-08 1.19289E-07-1.29245E-05 0.00000E+00 0.00000E+00 0.00000E+00 0.00000E+00 0.00000E+00 0.00000E+00 2.35440E-03 2.43282E-03 2.53871E-02
      169  1.10373E-07 4.70262E-08-1.29245E-05 0.00000E+00 0.00000E+00 0.00000E+00 0.00000E+00 0.00000E+00 0.00000E+00 2.67811E-03 1.27205E-03 2.53871E-02
      170  1.42758E-07 8.60441E-08-1.29245E-05 0.00000E+00 0.00000E+00 0.00000E+00 0.00000E+00 0.00000E+00 0.00000E+00 3.89294E-03 1.71099E-03 2.53871E-02
      197  3.62312E-08 1.19368E-07-1.29245E-05 0.00000E+00 0.00000E+00 0.00000E+00 0.00000E+00 0.00000E+00 0.00000E+00 1.20464E-03 2.71172E-03 2.53871E-02
      198  7.02231E-08 1.49910E-07-1.29245E-05 0.00000E+00 0.00000E+00 0.00000E+00 0.00000E+00 0.00000E+00 0.00000E+00 1.65567E-03 3.94295E-03 2.53871E-02
      225  1.26333E-07 0.00000E+00-1.29245E-05 0.00000E+00 0.00000E+00 0.00000E+00 0.00000E+00 0.00000E+00 0.00000E+00 2.85763E-03 0.00000E+00 2.53871E-02
      226  1.95760E-07 0.00000E+00-1.29245E-05 0.00000E+00 0.00000E+00 0.00000E+00 0.00000E+00 0.00000E+00 0.00000E+00 4.28650E-03 0.00000E+00 2.53871E-02
      279  6.19494E-08 0.00000E+00-1.29245E-05 0.00000E+00 0.00000E+00 0.00000E+00 0.00000E+00 0.00000E+00 0.00000E+00 1.42886E-03 0.00000E+00 2.53871E-02
      280  6.47059E-08 8.65784E-08-1.29245E-05 0.00000E+00 0.00000E+00 0.00000E+00 0.00000E+00 0.00000E+00 0.00000E+00 1.35626E-03 1.40789E-03 2.53871E-02
      281  0.00000E+00 7.68506E-08-1.29245E-05 0.00000E+00 0.00000E+00 0.00000E+00 0.00000E+00 0.00000E+00 0.00000E+00 8.74900E-20 1.42888E-03 2.53871E-02
      282  0.00000E+00 0.00000E+00-1.29245E-05 0.00000E+00 0.00000E+00 0.00000E+00 0.00000E+00 0.00000E+00 0.00000E+00 0.00000E+00 0.00000E+00 2.53871E-02
      296  0.00000E+00 1.48489E-07-1.29245E-05 0.00000E+00 0.00000E+00 0.00000E+00 0.00000E+00 0.00000E+00 0.00000E+00 1.75000E-19 2.85765E-03 2.53871E-02
      323  1.68086E-07 1.78123E-07-1.29245E-05 0.00000E+00 0.00000E+00 0.00000E+00 0.00000E+00 0.00000E+00 0.00000E+00 4.04127E-03 4.04138E-03 2.53871E-02
      324  9.24522E-08 2.30859E-07-1.29245E-05 0.00000E+00 0.00000E+00 0.00000E+00 0.00000E+00 0.00000E+00 0.00000E+00 2.18679E-03 5.28033E-03 2.53871E-02
      338  2.16328E-07 1.01675E-07-1.29245E-05 0.00000E+00 0.00000E+00 0.00000E+00 0.00000E+00 0.00000E+00 0.00000E+00 5.28022E-03 2.18700E-03 2.53871E-02
      352  0.00000E+00 2.18397E-07-1.29245E-05 0.00000E+00 0.00000E+00 0.00000E+00 0.00000E+00 0.00000E+00 0.00000E+00 2.62500E-19 4.28652E-03 2.53871E-02
      366  2.29436E-07 0.00000E+00-1.29245E-05 0.00000E+00 0.00000E+00 0.00000E+00 0.00000E+00 0.00000E+00 0.00000E+00 5.71523E-03 0.00000E+00 2.53871E-02
      380  0.00000E+00 2.58990E-07-1.29245E-05 0.00000E+00 0.00000E+00 0.00000E+00 0.00000E+00 0.00000E+00 0.00000E+00 3.49900E-19 5.71526E-03 2.53871E-02
      608  4.88313E-07 0.00000E+00-1.29245E-05 0.00000E+00 0.00000E+00 0.00000E+00 0.00000E+00 0.00000E+00 0.00000E+00 1.27005E-02 0.00000E+00 2.53871E-02
      609  4.20791E-07 0.00000E+00-1.29245E-05 0.00000E+00 0.00000E+00 0.00000E+00 0.00000E+00 0.00000E+00 0.00000E+00 1.09542E-02 0.00000E+00 2.53871E-02
      610  3.65459E-07 0.00000E+00-1.29245E-05 0.00000E+00 0.00000E+00 0.00000E+00 0.00000E+00 0.00000E+00 0.00000E+00 9.20787E-03 0.00000E+00 2.53871E-02
      611  3.05681E-07 0.00000E+00-1.29245E-05 0.00000E+00 0.00000E+00 0.00000E+00 0.00000E+00 0.00000E+00 0.00000E+00 7.46161E-03 0.00000E+00 2.53871E-02
      804  2.89014E-07 1.39225E-07-1.29245E-05 0.00000E+00 0.00000E+00 0.00000E+00 0.00000E+00 0.00000E+00 0.00000E+00 6.90229E-03 2.83414E-03 2.53871E-02
      806  2.30302E-07 2.54384E-07-1.29245E-05 0.00000E+00 0.00000E+00 0.00000E+00 0.00000E+00 0.00000E+00 0.00000E+00 5.27823E-03 5.27405E-03 2.53871E-02
      808  1.25410E-07 3.25470E-07-1.29245E-05 0.00000E+00 0.00000E+00 0.00000E+00 0.00000E+00 0.00000E+00 0.00000E+00 2.83783E-03 6.90083E-03 2.53871E-02
      810  0.00000E+00 3.55279E-07-1.29245E-05 0.00000E+00 0.00000E+00 0.00000E+00 0.00000E+00 0.00000E+00 0.00000E+00 4.56900E-19 7.46166E-03 2.53871E-02
      852  3.47628E-07 1.69175E-07-1.29245E-05 0.00000E+00 0.00000E+00 0.00000E+00 0.00000E+00 0.00000E+00 0.00000E+00 8.52435E-03 3.48127E-03 2.53871E-02
      854  2.81708E-07 3.12798E-07-1.29245E-05 0.00000E+00 0.00000E+00 0.00000E+00 0.00000E+00 0.00000E+00 0.00000E+00 6.51528E-03 6.50671E-03 2.53871E-02
      856  1.55749E-07 3.99584E-07-1.29245E-05 0.00000E+00 0.00000E+00 0.00000E+00 0.00000E+00 0.00000E+00 0.00000E+00 3.48886E-03 8.52140E-03 2.53871E-02
      858  0.00000E+00 4.30202E-07-1.29245E-05 0.00000E+00 0.00000E+00 0.00000E+00 0.00000E+00 0.00000E+00 0.00000E+00 5.63800E-19 9.20793E-03 2.53871E-02
      864  4.04798E-07 1.97585E-07-1.29245E-05 0.00000E+00 0.00000E+00 0.00000E+00 0.00000E+00 0.00000E+00 0.00000E+00 1.01465E-02 4.12830E-03 2.53871E-02
      866  3.32249E-07 3.72892E-07-1.29245E-05 0.00000E+00 0.00000E+00 0.00000E+00 0.00000E+00 0.00000E+00 0.00000E+00 7.75223E-03 7.73937E-03 2.53871E-02
      868  1.84468E-07 4.79362E-07-1.29245E-05 0.00000E+00 0.00000E+00 0.00000E+00 0.00000E+00 0.00000E+00 0.00000E+00 4.13988E-03 1.01419E-02 2.53871E-02
      870  0.00000E+00 5.16075E-07-1.29245E-05 0.00000E+00 0.00000E+00 0.00000E+00 0.00000E+00 0.00000E+00 0.00000E+00 6.70700E-19 1.09543E-02 2.53871E-02
      880  4.63721E-07 2.26634E-07-1.29245E-05 0.00000E+00 0.00000E+00 0.00000E+00 0.00000E+00 0.00000E+00 0.00000E+00 1.17686E-02 4.77543E-03 2.53871E-02
      882  3.85400E-07 4.38720E-07-1.29245E-05 0.00000E+00 0.00000E+00 0.00000E+00 0.00000E+00 0.00000E+00 0.00000E+00 8.98929E-03 8.97204E-03 2.53871E-02
      884  2.35411E-07 6.26327E-07-1.29245E-05 0.00000E+00 0.00000E+00 0.00000E+00 0.00000E+00 0.00000E+00 0.00000E+00 4.79094E-03 1.17624E-02 2.53871E-02
      886  0.00000E+00 7.15981E-07-1.29245E-05 0.00000E+00 0.00000E+00 0.00000E+00 0.00000E+00 0.00000E+00 0.00000E+00 7.77700E-19 1.27007E-02 2.53871E-02



 n o d a l   p r i n t   o u t   f o r   t i m e  s t e p      14                              ( at time 2.5483898E+00 )

 nodal point  x-disp     y-disp      z-disp      x-vel       y-vel       z-vel      x-accl      y-accl      z-accl      x-coor      y-coor      z-coor
        1  3.19897E-06 0.00000E+00 0.00000E+00 0.00000E+00 0.00000E+00 0.00000E+00 0.00000E+00 0.00000E+00 0.00000E+00 3.17820E-03 0.00000E+00-1.78000E-18
        2  1.80991E-06 0.00000E+00 0.00000E+00 0.00000E+00 0.00000E+00 0.00000E+00 0.00000E+00 0.00000E+00 0.00000E+00 2.38311E-03 0.00000E+00 0.00000E+00
        3  1.00769E-06 0.00000E+00 0.00000E+00 0.00000E+00 0.00000E+00 0.00000E+00 0.00000E+00 0.00000E+00 0.00000E+00 1.58851E-03 0.00000E+00 0.00000E+00
        4  4.60777E-07 0.00000E+00 0.00000E+00 0.00000E+00 0.00000E+00 0.00000E+00 0.00000E+00 0.00000E+00 0.00000E+00 7.94211E-04 0.00000E+00 0.00000E+00
        5  0.00000E+00 0.00000E+00 0.00000E+00 0.00000E+00 0.00000E+00 0.00000E+00 0.00000E+00 0.00000E+00 0.00000E+00 0.00000E+00 0.00000E+00 0.00000E+00
        6  0.00000E+00 4.24073E-07 0.00000E+00 0.00000E+00 0.00000E+00 0.00000E+00 0.00000E+00 0.00000E+00 0.00000E+00 4.86000E-20 7.94174E-04 0.00000E+00
        7  0.00000E+00 9.96675E-07 0.00000E+00 0.00000E+00 0.00000E+00 0.00000E+00 0.00000E+00 0.00000E+00 0.00000E+00 9.72100E-20 1.58850E-03 0.00000E+00
        8  0.00000E+00 1.95961E-06 0.00000E+00 0.00000E+00 0.00000E+00 0.00000E+00 0.00000E+00 0.00000E+00 0.00000E+00 1.45800E-19 2.38326E-03 0.00000E+00
        9  0.00000E+00 3.52050E-06 0.00000E+00 0.00000E+00 0.00000E+00 0.00000E+00 0.00000E+00 0.00000E+00 0.00000E+00 1.94400E-19 3.17852E-03 0.00000E+00
       10  1.20333E-06 3.40561E-06 0.00000E+00 0.00000E+00 0.00000E+00 0.00000E+00 0.00000E+00 0.00000E+00 0.00000E+00 1.21620E-03 2.93671E-03 0.00000E+00
       11  2.49247E-06 3.09912E-06 0.00000E+00 0.00000E+00 0.00000E+00 0.00000E+00 0.00000E+00 0.00000E+00 0.00000E+00 2.24759E-03 2.24820E-03 0.00000E+00
       12  3.11928E-06 1.76042E-06 0.00000E+00 0.00000E+00 0.00000E+00 0.00000E+00 0.00000E+00 0.00000E+00 0.00000E+00 2.93642E-03 1.21676E-03 0.00000E+00
       13  1.17227E-06 1.16996E-06 0.00000E+00 0.00000E+00 0.00000E+00 0.00000E+00 0.00000E+00 0.00000E+00 0.00000E+00 1.30947E-03 1.35307E-03 0.00000E+00
       14  1.10705E-06 5.64365E-07 0.00000E+00 0.00000E+00 0.00000E+00 0.00000E+00 0.00000E+00 0.00000E+00 0.00000E+00 1.48941E-03 7.07541E-04 0.00000E+00
       15  5.53450E-07 1.07017E-06 0.00000E+00 0.00000E+00 0.00000E+00 0.00000E+00 0.00000E+00 0.00000E+00 0.00000E+00 6.70064E-04 1.50807E-03 0.00000E+00
       16  5.15569E-07 5.10166E-07 0.00000E+00 0.00000E+00 0.00000E+00 0.00000E+00 0.00000E+00 0.00000E+00 0.00000E+00 7.54153E-04 7.82847E-04 0.00000E+00
       17  1.82974E-06 1.68695E-06 0.00000E+00 0.00000E+00 0.00000E+00 0.00000E+00 0.00000E+00 0.00000E+00 0.00000E+00 1.73813E-03 1.76919E-03 0.00000E+00
       18  9.09471E-07 1.85498E-06 0.00000E+00 0.00000E+00 0.00000E+00 0.00000E+00 0.00000E+00 0.00000E+00 0.00000E+00 9.21040E-04 2.19295E-03 0.00000E+00
       19  1.88887E-06 7.91081E-07 0.00000E+00 0.00000E+00 0.00000E+00 0.00000E+00 0.00000E+00 0.00000E+00 0.00000E+00 2.16519E-03 9.51650E-04 0.00000E+00
      167  2.74968E-07 3.22966E-07-2.54839E-05 0.00000E+00 0.00000E+00 0.00000E+00 0.00000E+00 0.00000E+00 0.00000E+00 3.12497E-03 3.18102E-03 2.53745E-02
      168  1.81709E-07 2.35757E-07-2.54839E-05 0.00000E+00 0.00000E+00 0.00000E+00 0.00000E+00 0.00000E+00 0.00000E+00 2.35448E-03 2.43294E-03 2.53745E-02
      169  2.00090E-07 9.93982E-08-2.54839E-05 0.00000E+00 0.00000E+00 0.00000E+00 0.00000E+00 0.00000E+00 0.00000E+00 2.67820E-03 1.27210E-03 2.53745E-02
      170  2.62336E-07 1.75771E-07-2.54839E-05 0.00000E+00 0.00000E+00 0.00000E+00 0.00000E+00 0.00000E+00 0.00000E+00 3.89306E-03 1.71108E-03 2.53745E-02
      197  6.33630E-08 2.27606E-07-2.54839E-05 0.00000E+00 0.00000E+00 0.00000E+00 0.00000E+00 0.00000E+00 0.00000E+00 1.20466E-03 2.71183E-03 2.53745E-02
      198  1.30283E-07 2.79819E-07-2.54839E-05 0.00000E+00 0.00000E+00 0.00000E+00 0.00000E+00 0.00000E+00 0.00000E+00 1.65573E-03 3.94308E-03 2.53745E-02
      225  2.31088E-07 0.00000E+00-2.54839E-05 0.00000E+00 0.00000E+00 0.00000E+00 0.00000E+00 0.00000E+00 0.00000E+00 2.85773E-03 0.00000E+00 2.53745E-02
      226  3.66659E-07 0.00000E+00-2.54839E-05 0.00000E+00 0.00000E+00 0.00000E+00 0.00000E+00 0.00000E+00 0.00000E+00 4.28667E-03 0.00000E+00 2.53745E-02
      279  1.09257E-07 0.00000E+00-2.54839E-05 0.00000E+00 0.00000E+00 0.00000E+00 0.00000E+00 0.00000E+00 0.00000E+00 1.42891E-03 0.00000E+00 2.53745E-02
      280  1.16712E-07 1.75207E-07-2.54839E-05 0.00000E+00 0.00000E+00 0.00000E+00 0.00000E+00 0.00000E+00 0.00000E+00 1.35632E-03 1.40798E-03 2.53745E-02
      281  0.00000E+00 1.60324E-07-2.54839E-05 0.00000E+00 0.00000E+00 0.00000E+00 0.00000E+00 0.00000E+00 0.00000E+00 8.74900E-20 1.42896E-03 2.53745E-02
      282  0.00000E+00 0.00000E+00-2.54839E-05 0.00000E+00 0.00000E+00 0.00000E+00 0.00000E+00 0.00000E+00 0.00000E+00 0.00000E+00 0.00000E+00 2.53745E-02
      296  0.00000E+00 2.97797E-07-2.54839E-05 0.00000E+00 0.00000E+00 0.00000E+00 0.00000E+00 0.00000E+00 0.00000E+00 1.75000E-19 2.85780E-03 2.53745E-02
      323  3.20245E-07 3.56097E-07-2.54839E-05 0.00000E+00 0.00000E+00 0.00000E+00 0.00000E+00 0.00000E+00 0.00000E+00 4.04142E-03 4.04156E-03 2.53745E-02
      324  1.74835E-07 4.45165E-07-2.54839E-05 0.00000E+00 0.00000E+00 0.00000E+00 0.00000E+00 0.00000E+00 0.00000E+00 2.18687E-03 5.28055E-03 2.53745E-02
      338  4.04993E-07 2.09764E-07-2.54839E-05 0.00000E+00 0.00000E+00 0.00000E+00 0.00000E+00 0.00000E+00 0.00000E+00 5.28040E-03 2.18711E-03 2.53745E-02
      352  0.00000E+00 4.31181E-07-2.54839E-05 0.00000E+00 0.00000E+00 0.00000E+00 0.00000E+00 0.00000E+00 0.00000E+00 2.62500E-19 4.28673E-03 2.53745E-02
      366  4.24009E-07 0.00000E+00-2.54839E-05 0.00000E+00 0.00000E+00 0.00000E+00 0.00000E+00 0.00000E+00 0.00000E+00 5.71542E-03 0.00000E+00 2.53745E-02
      380  0.00000E+00 5.03979E-07-2.54839E-05 0.00000E+00 0.00000E+00 0.00000E+00 0.00000E+00 0.00000E+00 0.00000E+00 3.49900E-19 5.71550E-03 2.53745E-02
      608  8.92396E-07 0.00000E+00-2.54839E-05 0.00000E+00 0.00000E+00 0.00000E+00 0.00000E+00 0.00000E+00 0.00000E+00 1.27009E-02 0.00000E+00 2.53745E-02
      609  7.80029E-07 0.00000E+00-2.54839E-05 0.00000E+00 0.00000E+00 0.00000E+00 0.00000E+00 0.00000E+00 0.00000E+00 1.09546E-02 0.00000E+00 2.53745E-02
      610  6.79947E-07 0.00000E+00-2.54839E-05 0.00000E+00 0.00000E+00 0.00000E+00 0.00000E+00 0.00000E+00 0.00000E+00 9.20818E-03 0.00000E+00 2.53745E-02
      611  5.68497E-07 0.00000E+00-2.54839E-05 0.00000E+00 0.00000E+00 0.00000E+00 0.00000E+00 0.00000E+00 0.00000E+00 7.46187E-03 0.00000E+00 2.53745E-02
      804  5.43129E-07 2.86342E-07-2.54839E-05 0.00000E+00 0.00000E+00 0.00000E+00 0.00000E+00 0.00000E+00 0.00000E+00 6.90254E-03 2.83429E-03 2.53745E-02
      806  4.42554E-07 5.08256E-07-2.54839E-05 0.00000E+00 0.00000E+00 0.00000E+00 0.00000E+00 0.00000E+00 0.00000E+00 5.27844E-03 5.27431E-03 2.53745E-02
      808  2.43071E-07 6.36719E-07-2.54839E-05 0.00000E+00 0.00000E+00 0.00000E+00 0.00000E+00 0.00000E+00 0.00000E+00 2.83794E-03 6.90114E-03 2.53745E-02
      810  0.00000E+00 6.96156E-07-2.54839E-05 0.00000E+00 0.00000E+00 0.00000E+00 0.00000E+00 0.00000E+00 0.00000E+00 4.56900E-19 7.46200E-03 2.53745E-02
      852  6.54618E-07 3.48849E-07-2.54839E-05 0.00000E+00 0.00000E+00 0.00000E+00 0.00000E+00 0.00000E+00 0.00000E+00 8.52465E-03 3.48145E-03 2.53745E-02
      854  5.43362E-07 6.25027E-07-2.54839E-05 0.00000E+00 0.00000E+00 0.00000E+00 0.00000E+00 0.00000E+00 0.00000E+00 6.51554E-03 6.50703E-03 2.53745E-02
      856  3.05989E-07 7.86824E-07-2.54839E-05 0.00000E+00 0.00000E+00 0.00000E+00 0.00000E+00 0.00000E+00 0.00000E+00 3.48901E-03 8.52179E-03 2.53745E-02
      858  0.00000E+00 8.45247E-07-2.54839E-05 0.00000E+00 0.00000E+00 0.00000E+00 0.00000E+00 0.00000E+00 0.00000E+00 5.63800E-19 9.20835E-03 2.53745E-02
      864  7.62275E-07 4.05384E-07-2.54839E-05 0.00000E+00 0.00000E+00 0.00000E+00 0.00000E+00 0.00000E+00 0.00000E+00 1.01469E-02 4.12851E-03 2.53745E-02
      866  6.43256E-07 7.43720E-07-2.54839E-05 0.00000E+00 0.00000E+00 0.00000E+00 0.00000E+00 0.00000E+00 0.00000E+00 7.75254E-03 7.73974E-03 2.53745E-02
      868  3.62557E-07 9.47121E-07-2.54839E-05 0.00000E+00 0.00000E+00 0.00000E+00 0.00000E+00 0.00000E+00 0.00000E+00 4.14006E-03 1.01423E-02 2.53745E-02
      870  0.00000E+00 1.02212E-06-2.54839E-05 0.00000E+00 0.00000E+00 0.00000E+00 0.00000E+00 0.00000E+00 0.00000E+00 6.70700E-19 1.09548E-02 2.53745E-02
      880  8.58395E-07 4.52769E-07-2.54839E-05 0.00000E+00 0.00000E+00 0.00000E+00 0.00000E+00 0.00000E+00 0.00000E+00 1.17690E-02 4.77565E-03 2.53745E-02
      882  7.32601E-07 8.62666E-07-2.54839E-05 0.00000E+00 0.00000E+00 0.00000E+00 0.00000E+00 0.00000E+00 0.00000E+00 8.98963E-03 8.97246E-03 2.53745E-02
      884  4.64402E-07 1.25427E-06-2.54839E-05 0.00000E+00 0.00000E+00 0.00000E+00 0.00000E+00 0.00000E+00 0.00000E+00 4.79116E-03 1.17631E-02 2.53745E-02
      886  0.00000E+00 1.46587E-06-2.54839E-05 0.00000E+00 0.00000E+00 0.00000E+00 0.00000E+00 0.00000E+00 0.00000E+00 7.77700E-19 1.27015E-02 2.53745E-02



 n o d a l   p r i n t   o u t   f o r   t i m e  s t e p     175                              ( at time 4.5389257E+00 )

 nodal point  x-disp     y-disp      z-disp      x-vel       y-vel       z-vel      x-accl      y-accl      z-accl      x-coor      y-coor      z-coor
        1  1.06443E-05 0.00000E+00 0.00000E+00 0.00000E+00 0.00000E+00 0.00000E+00 0.00000E+00 0.00000E+00 0.00000E+00 3.18564E-03 0.00000E+00-1.78000E-18
        2  5.41674E-06 0.00000E+00 0.00000E+00 0.00000E+00 0.00000E+00 0.00000E+00 0.00000E+00 0.00000E+00 0.00000E+00 2.38672E-03 0.00000E+00 0.00000E+00
        3  2.62934E-06 0.00000E+00 0.00000E+00 0.00000E+00 0.00000E+00 0.00000E+00 0.00000E+00 0.00000E+00 0.00000E+00 1.59013E-03 0.00000E+00 0.00000E+00
        4  1.23472E-06 0.00000E+00 0.00000E+00 0.00000E+00 0.00000E+00 0.00000E+00 0.00000E+00 0.00000E+00 0.00000E+00 7.94985E-04 0.00000E+00 0.00000E+00
        5  0.00000E+00 0.00000E+00 0.00000E+00 0.00000E+00 0.00000E+00 0.00000E+00 0.00000E+00 0.00000E+00 0.00000E+00 0.00000E+00 0.00000E+00 0.00000E+00
        6  0.00000E+00 1.50012E-06 0.00000E+00 0.00000E+00 0.00000E+00 0.00000E+00 0.00000E+00 0.00000E+00 0.00000E+00 4.86000E-20 7.95250E-04 0.00000E+00
        7  0.00000E+00 3.87607E-06 0.00000E+00 0.00000E+00 0.00000E+00 0.00000E+00 0.00000E+00 0.00000E+00 0.00000E+00 9.72100E-20 1.59138E-03 0.00000E+00
        8  0.00000E+00 7.92662E-06 0.00000E+00 0.00000E+00 0.00000E+00 0.00000E+00 0.00000E+00 0.00000E+00 0.00000E+00 1.45800E-19 2.38923E-03 0.00000E+00
        9  0.00000E+00 1.33722E-05 0.00000E+00 0.00000E+00 0.00000E+00 0.00000E+00 0.00000E+00 0.00000E+00 0.00000E+00 1.94400E-19 3.18837E-03 0.00000E+00
       10  5.86348E-06 1.43174E-05 0.00000E+00 0.00000E+00 0.00000E+00 0.00000E+00 0.00000E+00 0.00000E+00 0.00000E+00 1.22086E-03 2.94762E-03 0.00000E+00
       11  1.21438E-05 1.42053E-05 0.00000E+00 0.00000E+00 0.00000E+00 0.00000E+00 0.00000E+00 0.00000E+00 0.00000E+00 2.25724E-03 2.25931E-03 0.00000E+00
       12  1.58124E-05 9.10438E-06 0.00000E+00 0.00000E+00 0.00000E+00 0.00000E+00 0.00000E+00 0.00000E+00 0.00000E+00 2.94911E-03 1.22410E-03 0.00000E+00
       13  7.20368E-06 7.71854E-06 0.00000E+00 0.00000E+00 0.00000E+00 0.00000E+00 0.00000E+00 0.00000E+00 0.00000E+00 1.31550E-03 1.35962E-03 0.00000E+00
       14  7.63696E-06 4.47478E-06 0.00000E+00 0.00000E+00 0.00000E+00 0.00000E+00 0.00000E+00 0.00000E+00 0.00000E+00 1.49594E-03 7.11452E-04 0.00000E+00
       15  3.36452E-06 5.56822E-06 0.00000E+00 0.00000E+00 0.00000E+00 0.00000E+00 0.00000E+00 0.00000E+00 0.00000E+00 6.72875E-04 1.51257E-03 0.00000E+00
       16  3.46015E-06 2.65716E-06 0.00000E+00 0.00000E+00 0.00000E+00 0.00000E+00 0.00000E+00 0.00000E+00 0.00000E+00 7.57098E-04 7.84994E-04 0.00000E+00
       17  1.02552E-05 9.91678E-06 0.00000E+00 0.00000E+00 0.00000E+00 0.00000E+00 0.00000E+00 0.00000E+00 0.00000E+00 1.74656E-03 1.77742E-03 0.00000E+00
       18  4.86139E-06 9.18530E-06 0.00000E+00 0.00000E+00 0.00000E+00 0.00000E+00 0.00000E+00 0.00000E+00 0.00000E+00 9.24992E-04 2.20029E-03 0.00000E+00
       19  1.17757E-05 5.76361E-06 0.00000E+00 0.00000E+00 0.00000E+00 0.00000E+00 0.00000E+00 0.00000E+00 0.00000E+00 2.17508E-03 9.56622E-04 0.00000E+00
      167  1.12046E-07 9.12145E-07-4.53893E-05 0.00000E+00 0.00000E+00 0.00000E+00 0.00000E+00 0.00000E+00 0.00000E+00 3.12481E-03 3.18161E-03 2.53546E-02
      168  1.12743E-07 5.91745E-07-4.53893E-05 0.00000E+00 0.00000E+00 0.00000E+00 0.00000E+00 0.00000E+00 0.00000E+00 2.35441E-03 2.43329E-03 2.53546E-02
      169 -3.13600E-08 1.07135E-06-4.53893E-05 0.00000E+00 0.00000E+00 0.00000E+00 0.00000E+00 0.00000E+00 0.00000E+00 2.67797E-03 1.27307E-03 2.53546E-02
      170 -1.20774E-07 1.10082E-06-4.53893E-05 0.00000E+00 0.00000E+00 0.00000E+00 0.00000E+00 0.00000E+00 0.00000E+00 3.89268E-03 1.71200E-03 2.53546E-02
      197 -1.01653E-08 4.76431E-07-4.53893E-05 0.00000E+00 0.00000E+00 0.00000E+00 0.00000E+00 0.00000E+00 0.00000E+00 1.20459E-03 2.71208E-03 2.53546E-02
      198 -3.95066E-08 2.96459E-07-4.53893E-05 0.00000E+00 0.00000E+00 0.00000E+00 0.00000E+00 0.00000E+00 0.00000E+00 1.65556E-03 3.94310E-03 2.53546E-02
      225  1.52276E-06 0.00000E+00-4.53893E-05 0.00000E+00 0.00000E+00 0.00000E+00 0.00000E+00 0.00000E+00 0.00000E+00 2.85902E-03 0.00000E+00 2.53546E-02
      226  9.40676E-07 0.00000E+00-4.53893E-05 0.00000E+00 0.00000E+00 0.00000E+00 0.00000E+00 0.00000E+00 0.00000E+00 4.28724E-03 0.00000E+00 2.53546E-02
      279  1.85560E-06 0.00000E+00-4.53893E-05 0.00000E+00 0.00000E+00 0.00000E+00 0.00000E+00 0.00000E+00 0.00000E+00 1.43066E-03 0.00000E+00 2.53546E-02
      280 -2.26108E-08 9.85065E-07-4.53893E-05 0.00000E+00 0.00000E+00 0.00000E+00 0.00000E+00 0.00000E+00 0.00000E+00 1.35618E-03 1.40879E-03 2.53546E-02
      281  0.00000E+00 1.11300E-06-4.53893E-05 0.00000E+00 0.00000E+00 0.00000E+00 0.00000E+00 0.00000E+00 0.00000E+00 8.74900E-20 1.42991E-03 2.53546E-02
      282  0.00000E+00 0.00000E+00-4.53893E-05 0.00000E+00 0.00000E+00 0.00000E+00 0.00000E+00 0.00000E+00 0.00000E+00 0.00000E+00 0.00000E+00 2.53546E-02
      296  0.00000E+00 9.21966E-07-4.53893E-05 0.00000E+00 0.00000E+00 0.00000E+00 0.00000E+00 0.00000E+00 0.00000E+00 1.75000E-19 2.85842E-03 2.53546E-02
      323  2.25999E-07 8.62728E-07-4.53893E-05 0.00000E+00 0.00000E+00 0.00000E+00 0.00000E+00 0.00000E+00 0.00000E+00 4.04133E-03 4.04206E-03 2.53546E-02
      324  8.82159E-08 5.53587E-07-4.53893E-05 0.00000E+00 0.00000E+00 0.00000E+00 0.00000E+00 0.00000E+00 0.00000E+00 2.18679E-03 5.28065E-03 2.53546E-02
      338  2.04199E-07 1.07368E-06-4.53893E-05 0.00000E+00 0.00000E+00 0.00000E+00 0.00000E+00 0.00000E+00 0.00000E+00 5.28020E-03 2.18797E-03 2.53546E-02
      352  0.00000E+00 1.25616E-06-4.53893E-05 0.00000E+00 0.00000E+00 0.00000E+00 0.00000E+00 0.00000E+00 0.00000E+00 2.62500E-19 4.28756E-03 2.53546E-02
      366  4.15856E-07 0.00000E+00-4.53893E-05 0.00000E+00 0.00000E+00 0.00000E+00 0.00000E+00 0.00000E+00 0.00000E+00 5.71542E-03 0.00000E+00 2.53546E-02
      380  0.00000E+00 9.20136E-07-4.53893E-05 0.00000E+00 0.00000E+00 0.00000E+00 0.00000E+00 0.00000E+00 0.00000E+00 3.49900E-19 5.71592E-03 2.53546E-02
      608 -9.45268E-08 0.00000E+00-4.53893E-05 0.00000E+00 0.00000E+00 0.00000E+00 0.00000E+00 0.00000E+00 0.00000E+00 1.26999E-02 0.00000E+00 2.53546E-02
      609  1.41791E-07 0.00000E+00-4.53893E-05 0.00000E+00 0.00000E+00 0.00000E+00 0.00000E+00 0.00000E+00 0.00000E+00 1.09539E-02 0.00000E+00 2.53546E-02
      610  1.92758E-07 0.00000E+00-4.53893E-05 0.00000E+00 0.00000E+00 0.00000E+00 0.00000E+00 0.00000E+00 0.00000E+00 9.20769E-03 0.00000E+00 2.53546E-02
      611  2.26116E-07 0.00000E+00-4.53893E-05 0.00000E+00 0.00000E+00 0.00000E+00 0.00000E+00 0.00000E+00 0.00000E+00 7.46153E-03 0.00000E+00 2.53546E-02
      804  2.85033E-07 1.09593E-06-4.53893E-05 0.00000E+00 0.00000E+00 0.00000E+00 0.00000E+00 0.00000E+00 0.00000E+00 6.90229E-03 2.83510E-03 2.53546E-02
      806  4.54856E-07 1.02110E-06-4.53893E-05 0.00000E+00 0.00000E+00 0.00000E+00 0.00000E+00 0.00000E+00 0.00000E+00 5.27845E-03 5.27482E-03 2.53546E-02
      808  2.72201E-07 8.72001E-07-4.53893E-05 0.00000E+00 0.00000E+00 0.00000E+00 0.00000E+00 0.00000E+00 0.00000E+00 2.83797E-03 6.90137E-03 2.53546E-02
      810  0.00000E+00 1.16736E-06-4.53893E-05 0.00000E+00 0.00000E+00 0.00000E+00 0.00000E+00 0.00000E+00 0.00000E+00 4.56900E-19 7.46247E-03 2.53546E-02
      852  3.87304E-07 1.22548E-06-4.53893E-05 0.00000E+00 0.00000E+00 0.00000E+00 0.00000E+00 0.00000E+00 0.00000E+00 8.52439E-03 3.48233E-03 2.53546E-02
      854  6.04571E-07 1.09066E-06-4.53893E-05 0.00000E+00 0.00000E+00 0.00000E+00 0.00000E+00 0.00000E+00 0.00000E+00 6.51560E-03 6.50749E-03 2.53546E-02
      856  4.45864E-07 1.07960E-06-4.53893E-05 0.00000E+00 0.00000E+00 0.00000E+00 0.00000E+00 0.00000E+00 0.00000E+00 3.48915E-03 8.52208E-03 2.53546E-02
      858  0.00000E+00 1.51485E-06-4.53893E-05 0.00000E+00 0.00000E+00 0.00000E+00 0.00000E+00 0.00000E+00 0.00000E+00 5.63800E-19 9.20901E-03 2.53546E-02
      864  4.74683E-07 1.31829E-06-4.53893E-05 0.00000E+00 0.00000E+00 0.00000E+00 0.00000E+00 0.00000E+00 0.00000E+00 1.01466E-02 4.12942E-03 2.53546E-02
      866  8.11589E-07 1.17732E-06-4.53893E-05 0.00000E+00 0.00000E+00 0.00000E+00 0.00000E+00 0.00000E+00 0.00000E+00 7.75271E-03 7.74018E-03 2.53546E-02
      868  4.82714E-07 1.21870E-06-4.53893E-05 0.00000E+00 0.00000E+00 0.00000E+00 0.00000E+00 0.00000E+00 0.00000E+00 4.14018E-03 1.01426E-02 2.53546E-02
      870  0.00000E+00 1.99200E-06-4.53893E-05 0.00000E+00 0.00000E+00 0.00000E+00 0.00000E+00 0.00000E+00 0.00000E+00 6.70700E-19 1.09558E-02 2.53546E-02
      880  2.63027E-07 1.13970E-06-4.53893E-05 0.00000E+00 0.00000E+00 0.00000E+00 0.00000E+00 0.00000E+00 0.00000E+00 1.17684E-02 4.77634E-03 2.53546E-02
      882  6.92846E-07 1.17192E-06-4.53893E-05 0.00000E+00 0.00000E+00 0.00000E+00 0.00000E+00 0.00000E+00 0.00000E+00 8.98959E-03 8.97277E-03 2.53546E-02
      884  6.56811E-07 2.02995E-06-4.53893E-05 0.00000E+00 0.00000E+00 0.00000E+00 0.00000E+00 0.00000E+00 0.00000E+00 4.79136E-03 1.17638E-02 2.53546E-02
      886  0.00000E+00 2.81032E-06-4.53893E-05 0.00000E+00 0.00000E+00 0.00000E+00 0.00000E+00 0.00000E+00 0.00000E+00 7.77700E-19 1.27028E-02 2.53546E-02



 n o d a l   p r i n t   o u t   f o r   t i m e  s t e p     183                              ( at time 6.5294615E+00 )

 nodal point  x-disp     y-disp      z-disp      x-vel       y-vel       z-vel      x-accl      y-accl      z-accl      x-coor      y-coor      z-coor
        1  2.47406E-05 0.00000E+00 0.00000E+00 0.00000E+00 0.00000E+00 0.00000E+00 0.00000E+00 0.00000E+00 0.00000E+00 3.19974E-03 0.00000E+00-1.78000E-18
        2  1.49717E-05 0.00000E+00 0.00000E+00 0.00000E+00 0.00000E+00 0.00000E+00 0.00000E+00 0.00000E+00 0.00000E+00 2.39627E-03 0.00000E+00 0.00000E+00
        3  8.60137E-06 0.00000E+00 0.00000E+00 0.00000E+00 0.00000E+00 0.00000E+00 0.00000E+00 0.00000E+00 0.00000E+00 1.59610E-03 0.00000E+00 0.00000E+00
        4  4.28394E-06 0.00000E+00 0.00000E+00 0.00000E+00 0.00000E+00 0.00000E+00 0.00000E+00 0.00000E+00 0.00000E+00 7.98034E-04 0.00000E+00 0.00000E+00
        5  0.00000E+00 0.00000E+00 0.00000E+00 0.00000E+00 0.00000E+00 0.00000E+00 0.00000E+00 0.00000E+00 0.00000E+00 0.00000E+00 0.00000E+00 0.00000E+00
        6  0.00000E+00 4.73302E-06 0.00000E+00 0.00000E+00 0.00000E+00 0.00000E+00 0.00000E+00 0.00000E+00 0.00000E+00 4.86000E-20 7.98483E-04 0.00000E+00
        7  0.00000E+00 1.06853E-05 0.00000E+00 0.00000E+00 0.00000E+00 0.00000E+00 0.00000E+00 0.00000E+00 0.00000E+00 9.72100E-20 1.59819E-03 0.00000E+00
        8  0.00000E+00 1.90187E-05 0.00000E+00 0.00000E+00 0.00000E+00 0.00000E+00 0.00000E+00 0.00000E+00 0.00000E+00 1.45800E-19 2.40032E-03 0.00000E+00
        9  0.00000E+00 2.88301E-05 0.00000E+00 0.00000E+00 0.00000E+00 0.00000E+00 0.00000E+00 0.00000E+00 0.00000E+00 1.94400E-19 3.20383E-03 0.00000E+00
       10  1.27676E-05 2.93508E-05 0.00000E+00 0.00000E+00 0.00000E+00 0.00000E+00 0.00000E+00 0.00000E+00 0.00000E+00 1.22777E-03 2.96265E-03 0.00000E+00
       11  2.41736E-05 2.66228E-05 0.00000E+00 0.00000E+00 0.00000E+00 0.00000E+00 0.00000E+00 0.00000E+00 0.00000E+00 2.26927E-03 2.27172E-03 0.00000E+00
       12  3.08706E-05 1.66903E-05 0.00000E+00 0.00000E+00 0.00000E+00 0.00000E+00 0.00000E+00 0.00000E+00 0.00000E+00 2.96417E-03 1.23169E-03 0.00000E+00
       13  1.53460E-05 1.56786E-05 0.00000E+00 0.00000E+00 0.00000E+00 0.00000E+00 0.00000E+00 0.00000E+00 0.00000E+00 1.32365E-03 1.36758E-03 0.00000E+00
       14  1.61882E-05 9.11506E-06 0.00000E+00 0.00000E+00 0.00000E+00 0.00000E+00 0.00000E+00 0.00000E+00 0.00000E+00 1.50449E-03 7.16092E-04 0.00000E+00
       15  7.66634E-06 1.32652E-05 0.00000E+00 0.00000E+00 0.00000E+00 0.00000E+00 0.00000E+00 0.00000E+00 0.00000E+00 6.77177E-04 1.52027E-03 0.00000E+00
       16  7.81237E-06 6.66641E-06 0.00000E+00 0.00000E+00 0.00000E+00 0.00000E+00 0.00000E+00 0.00000E+00 0.00000E+00 7.61450E-04 7.89004E-04 0.00000E+00
       17  2.07021E-05 1.99756E-05 0.00000E+00 0.00000E+00 0.00000E+00 0.00000E+00 0.00000E+00 0.00000E+00 0.00000E+00 1.75700E-03 1.78748E-03 0.00000E+00
       18  1.05940E-05 2.04669E-05 0.00000E+00 0.00000E+00 0.00000E+00 0.00000E+00 0.00000E+00 0.00000E+00 0.00000E+00 9.30725E-04 2.21157E-03 0.00000E+00
       19  2.37650E-05 1.14593E-05 0.00000E+00 0.00000E+00 0.00000E+00 0.00000E+00 0.00000E+00 0.00000E+00 0.00000E+00 2.18706E-03 9.62318E-04 0.00000E+00
      167  1.37217E-07 1.09398E-06-6.52946E-05 0.00000E+00 0.00000E+00 0.00000E+00 0.00000E+00 0.00000E+00 0.00000E+00 3.12484E-03 3.18179E-03 2.53347E-02
      168  1.80068E-07 7.32490E-07-6.52946E-05 0.00000E+00 0.00000E+00 0.00000E+00 0.00000E+00 0.00000E+00 0.00000E+00 2.35448E-03 2.43343E-03 2.53347E-02
      169 -1.33283E-07 1.27887E-06-6.52946E-05 0.00000E+00 0.00000E+00 0.00000E+00 0.00000E+00 0.00000E+00 0.00000E+00 2.67787E-03 1.27328E-03 2.53347E-02
      170 -1.97929E-07 1.27015E-06-6.52946E-05 0.00000E+00 0.00000E+00 0.00000E+00 0.00000E+00 0.00000E+00 0.00000E+00 3.89260E-03 1.71217E-03 2.53347E-02
      197  5.25025E-08 7.39637E-07-6.52946E-05 0.00000E+00 0.00000E+00 0.00000E+00 0.00000E+00 0.00000E+00 0.00000E+00 1.20465E-03 2.71234E-03 2.53347E-02
      198 -4.00425E-09 5.63634E-07-6.52946E-05 0.00000E+00 0.00000E+00 0.00000E+00 0.00000E+00 0.00000E+00 0.00000E+00 1.65560E-03 3.94336E-03 2.53347E-02
      225  2.14827E-06 0.00000E+00-6.52946E-05 0.00000E+00 0.00000E+00 0.00000E+00 0.00000E+00 0.00000E+00 0.00000E+00 2.85965E-03 0.00000E+00 2.53347E-02
      226  1.15683E-06 0.00000E+00-6.52946E-05 0.00000E+00 0.00000E+00 0.00000E+00 0.00000E+00 0.00000E+00 0.00000E+00 4.28746E-03 0.00000E+00 2.53347E-02
      279  2.43410E-06 0.00000E+00-6.52946E-05 0.00000E+00 0.00000E+00 0.00000E+00 0.00000E+00 0.00000E+00 0.00000E+00 1.43123E-03 0.00000E+00 2.53347E-02
      280  1.60571E-08 1.03901E-06-6.52946E-05 0.00000E+00 0.00000E+00 0.00000E+00 0.00000E+00 0.00000E+00 0.00000E+00 1.35622E-03 1.40884E-03 2.53347E-02
      281  0.00000E+00 1.38881E-06-6.52946E-05 0.00000E+00 0.00000E+00 0.00000E+00 0.00000E+00 0.00000E+00 0.00000E+00 8.74900E-20 1.43019E-03 2.53347E-02
      282  0.00000E+00 0.00000E+00-6.52946E-05 0.00000E+00 0.00000E+00 0.00000E+00 0.00000E+00 0.00000E+00 0.00000E+00 0.00000E+00 0.00000E+00 2.53347E-02
      296  0.00000E+00 1.16157E-06-6.52946E-05 0.00000E+00 0.00000E+00 0.00000E+00 0.00000E+00 0.00000E+00 0.00000E+00 1.75000E-19 2.85866E-03 2.53347E-02
      323  2.28936E-07 1.02976E-06-6.52946E-05 0.00000E+00 0.00000E+00 0.00000E+00 0.00000E+00 0.00000E+00 0.00000E+00 4.04133E-03 4.04223E-03 2.53347E-02
      324  8.01094E-08 7.02224E-07-6.52946E-05 0.00000E+00 0.00000E+00 0.00000E+00 0.00000E+00 0.00000E+00 0.00000E+00 2.18678E-03 5.28080E-03 2.53347E-02
      338  2.16001E-07 1.24155E-06-6.52946E-05 0.00000E+00 0.00000E+00 0.00000E+00 0.00000E+00 0.00000E+00 0.00000E+00 5.28022E-03 2.18814E-03 2.53347E-02
      352  0.00000E+00 1.53451E-06-6.52946E-05 0.00000E+00 0.00000E+00 0.00000E+00 0.00000E+00 0.00000E+00 0.00000E+00 2.62500E-19 4.28783E-03 2.53347E-02
      366  5.07281E-07 0.00000E+00-6.52946E-05 0.00000E+00 0.00000E+00 0.00000E+00 0.00000E+00 0.00000E+00 0.00000E+00 5.71551E-03 0.00000E+00 2.53347E-02
      380  0.00000E+00 1.25170E-06-6.52946E-05 0.00000E+00 0.00000E+00 0.00000E+00 0.00000E+00 0.00000E+00 0.00000E+00 3.49900E-19 5.71625E-03 2.53347E-02
      608 -1.40188E-07 0.00000E+00-6.52946E-05 0.00000E+00 0.00000E+00 0.00000E+00 0.00000E+00 0.00000E+00 0.00000E+00 1.26999E-02 0.00000E+00 2.53347E-02
      609  1.20952E-07 0.00000E+00-6.52946E-05 0.00000E+00 0.00000E+00 0.00000E+00 0.00000E+00 0.00000E+00 0.00000E+00 1.09539E-02 0.00000E+00 2.53347E-02
      610  1.83885E-07 0.00000E+00-6.52946E-05 0.00000E+00 0.00000E+00 0.00000E+00 0.00000E+00 0.00000E+00 0.00000E+00 9.20768E-03 0.00000E+00 2.53347E-02
      611  2.47537E-07 0.00000E+00-6.52946E-05 0.00000E+00 0.00000E+00 0.00000E+00 0.00000E+00 0.00000E+00 0.00000E+00 7.46155E-03 0.00000E+00 2.53347E-02
      804  3.05299E-07 1.22201E-06-6.52946E-05 0.00000E+00 0.00000E+00 0.00000E+00 0.00000E+00 0.00000E+00 0.00000E+00 6.90231E-03 2.83522E-03 2.53347E-02
      806  4.68323E-07 1.13998E-06-6.52946E-05 0.00000E+00 0.00000E+00 0.00000E+00 0.00000E+00 0.00000E+00 0.00000E+00 5.27847E-03 5.27494E-03 2.53347E-02
      808  2.81433E-07 9.61976E-07-6.52946E-05 0.00000E+00 0.00000E+00 0.00000E+00 0.00000E+00 0.00000E+00 0.00000E+00 2.83798E-03 6.90146E-03 2.53347E-02
      810  0.00000E+00 1.47976E-06-6.52946E-05 0.00000E+00 0.00000E+00 0.00000E+00 0.00000E+00 0.00000E+00 0.00000E+00 4.56900E-19 7.46278E-03 2.53347E-02
      852  4.04555E-07 1.34089E-06-6.52946E-05 0.00000E+00 0.00000E+00 0.00000E+00 0.00000E+00 0.00000E+00 0.00000E+00 8.52440E-03 3.48244E-03 2.53347E-02
      854  6.28952E-07 1.20152E-06-6.52946E-05 0.00000E+00 0.00000E+00 0.00000E+00 0.00000E+00 0.00000E+00 0.00000E+00 6.51563E-03 6.50760E-03 2.53347E-02
      856  4.51702E-07 1.13069E-06-6.52946E-05 0.00000E+00 0.00000E+00 0.00000E+00 0.00000E+00 0.00000E+00 0.00000E+00 3.48915E-03 8.52213E-03 2.53347E-02
      858  0.00000E+00 1.80305E-06-6.52946E-05 0.00000E+00 0.00000E+00 0.00000E+00 0.00000E+00 0.00000E+00 0.00000E+00 5.63800E-19 9.20930E-03 2.53347E-02
      864  4.89671E-07 1.42527E-06-6.52946E-05 0.00000E+00 0.00000E+00 0.00000E+00 0.00000E+00 0.00000E+00 0.00000E+00 1.01466E-02 4.12953E-03 2.53347E-02
      866  8.54430E-07 1.28186E-06-6.52946E-05 0.00000E+00 0.00000E+00 0.00000E+00 0.00000E+00 0.00000E+00 0.00000E+00 7.75275E-03 7.74028E-03 2.53347E-02
      868  4.80358E-07 1.27115E-06-6.52946E-05 0.00000E+00 0.00000E+00 0.00000E+00 0.00000E+00 0.00000E+00 0.00000E+00 4.14018E-03 1.01427E-02 2.53347E-02
      870  0.00000E+00 2.20820E-06-6.52946E-05 0.00000E+00 0.00000E+00 0.00000E+00 0.00000E+00 0.00000E+00 0.00000E+00 6.70700E-19 1.09560E-02 2.53347E-02
      880  2.62570E-07 1.22305E-06-6.52946E-05 0.00000E+00 0.00000E+00 0.00000E+00 0.00000E+00 0.00000E+00 0.00000E+00 1.17684E-02 4.77642E-03 2.53347E-02
      882  7.06645E-07 1.24593E-06-6.52946E-05 0.00000E+00 0.00000E+00 0.00000E+00 0.00000E+00 0.00000E+00 0.00000E+00 8.98961E-03 8.97285E-03 2.53347E-02
      884  6.77808E-07 2.11584E-06-6.52946E-05 0.00000E+00 0.00000E+00 0.00000E+00 0.00000E+00 0.00000E+00 0.00000E+00 4.79138E-03 1.17639E-02 2.53347E-02
      886  0.00000E+00 2.93214E-06-6.52946E-05 0.00000E+00 0.00000E+00 0.00000E+00 0.00000E+00 0.00000E+00 0.00000E+00 7.77700E-19 1.27029E-02 2.53347E-02



 n o d a l   p r i n t   o u t   f o r   t i m e  s t e p     189                              ( at time 8.5199974E+00 )

 nodal point  x-disp     y-disp      z-disp      x-vel       y-vel       z-vel      x-accl      y-accl      z-accl      x-coor      y-coor      z-coor
        1  3.73984E-05 0.00000E+00 0.00000E+00 0.00000E+00 0.00000E+00 0.00000E+00 0.00000E+00 0.00000E+00 0.00000E+00 3.21240E-03 0.00000E+00-1.78000E-18
        2  2.34873E-05 0.00000E+00 0.00000E+00 0.00000E+00 0.00000E+00 0.00000E+00 0.00000E+00 0.00000E+00 0.00000E+00 2.40479E-03 0.00000E+00 0.00000E+00
        3  1.38445E-05 0.00000E+00 0.00000E+00 0.00000E+00 0.00000E+00 0.00000E+00 0.00000E+00 0.00000E+00 0.00000E+00 1.60134E-03 0.00000E+00 0.00000E+00
        4  6.85293E-06 0.00000E+00 0.00000E+00 0.00000E+00 0.00000E+00 0.00000E+00 0.00000E+00 0.00000E+00 0.00000E+00 8.00603E-04 0.00000E+00 0.00000E+00
        5  0.00000E+00 0.00000E+00 0.00000E+00 0.00000E+00 0.00000E+00 0.00000E+00 0.00000E+00 0.00000E+00 0.00000E+00 0.00000E+00 0.00000E+00 0.00000E+00
        6  0.00000E+00 7.53122E-06 0.00000E+00 0.00000E+00 0.00000E+00 0.00000E+00 0.00000E+00 0.00000E+00 0.00000E+00 4.86000E-20 8.01281E-04 0.00000E+00
        7  0.00000E+00 1.65258E-05 0.00000E+00 0.00000E+00 0.00000E+00 0.00000E+00 0.00000E+00 0.00000E+00 0.00000E+00 9.72100E-20 1.60403E-03 0.00000E+00
        8  0.00000E+00 2.83410E-05 0.00000E+00 0.00000E+00 0.00000E+00 0.00000E+00 0.00000E+00 0.00000E+00 0.00000E+00 1.45800E-19 2.40964E-03 0.00000E+00
        9  0.00000E+00 4.19981E-05 0.00000E+00 0.00000E+00 0.00000E+00 0.00000E+00 0.00000E+00 0.00000E+00 0.00000E+00 1.94400E-19 3.21700E-03 0.00000E+00
       10  1.83074E-05 4.20357E-05 0.00000E+00 0.00000E+00 0.00000E+00 0.00000E+00 0.00000E+00 0.00000E+00 0.00000E+00 1.23331E-03 2.97534E-03 0.00000E+00
       11  3.39163E-05 3.66965E-05 0.00000E+00 0.00000E+00 0.00000E+00 0.00000E+00 0.00000E+00 0.00000E+00 0.00000E+00 2.27902E-03 2.28180E-03 0.00000E+00
       12  4.34055E-05 2.25824E-05 0.00000E+00 0.00000E+00 0.00000E+00 0.00000E+00 0.00000E+00 0.00000E+00 0.00000E+00 2.97671E-03 1.23758E-03 0.00000E+00
       13  2.16216E-05 2.18326E-05 0.00000E+00 0.00000E+00 0.00000E+00 0.00000E+00 0.00000E+00 0.00000E+00 0.00000E+00 1.32992E-03 1.37373E-03 0.00000E+00
       14  2.28362E-05 1.26148E-05 0.00000E+00 0.00000E+00 0.00000E+00 0.00000E+00 0.00000E+00 0.00000E+00 0.00000E+00 1.51114E-03 7.19592E-04 0.00000E+00
       15  1.09681E-05 1.96155E-05 0.00000E+00 0.00000E+00 0.00000E+00 0.00000E+00 0.00000E+00 0.00000E+00 0.00000E+00 6.80478E-04 1.52662E-03 0.00000E+00
       16  1.11591E-05 1.00120E-05 0.00000E+00 0.00000E+00 0.00000E+00 0.00000E+00 0.00000E+00 0.00000E+00 0.00000E+00 7.64797E-04 7.92349E-04 0.00000E+00
       17  2.88403E-05 2.79303E-05 0.00000E+00 0.00000E+00 0.00000E+00 0.00000E+00 0.00000E+00 0.00000E+00 0.00000E+00 1.76514E-03 1.79543E-03 0.00000E+00
       18  1.50701E-05 2.97960E-05 0.00000E+00 0.00000E+00 0.00000E+00 0.00000E+00 0.00000E+00 0.00000E+00 0.00000E+00 9.35201E-04 2.22090E-03 0.00000E+00
       19  3.33037E-05 1.58789E-05 0.00000E+00 0.00000E+00 0.00000E+00 0.00000E+00 0.00000E+00 0.00000E+00 0.00000E+00 2.19660E-03 9.66737E-04 0.00000E+00
      167  1.61903E-07 1.08580E-06-8.52000E-05 0.00000E+00 0.00000E+00 0.00000E+00 0.00000E+00 0.00000E+00 0.00000E+00 3.12486E-03 3.18179E-03 2.53148E-02
      168  2.15571E-07 7.10455E-07-8.52000E-05 0.00000E+00 0.00000E+00 0.00000E+00 0.00000E+00 0.00000E+00 0.00000E+00 2.35452E-03 2.43341E-03 2.53148E-02
      169 -2.32308E-07 1.45199E-06-8.52000E-05 0.00000E+00 0.00000E+00 0.00000E+00 0.00000E+00 0.00000E+00 0.00000E+00 2.67777E-03 1.27345E-03 2.53148E-02
      170 -6.48894E-08 1.32896E-06-8.52000E-05 0.00000E+00 0.00000E+00 0.00000E+00 0.00000E+00 0.00000E+00 0.00000E+00 3.89274E-03 1.71223E-03 2.53148E-02
      197  7.49956E-08 7.95891E-07-8.52000E-05 0.00000E+00 0.00000E+00 0.00000E+00 0.00000E+00 0.00000E+00 0.00000E+00 1.20467E-03 2.71240E-03 2.53148E-02
      198  1.49599E-08 6.18446E-07-8.52000E-05 0.00000E+00 0.00000E+00 0.00000E+00 0.00000E+00 0.00000E+00 0.00000E+00 1.65561E-03 3.94342E-03 2.53148E-02
      225  2.61412E-06 0.00000E+00-8.52000E-05 0.00000E+00 0.00000E+00 0.00000E+00 0.00000E+00 0.00000E+00 0.00000E+00 2.86011E-03 0.00000E+00 2.53148E-02
      226  1.26149E-06 0.00000E+00-8.52000E-05 0.00000E+00 0.00000E+00 0.00000E+00 0.00000E+00 0.00000E+00 0.00000E+00 4.28756E-03 0.00000E+00 2.53148E-02
      279  2.67947E-06 0.00000E+00-8.52000E-05 0.00000E+00 0.00000E+00 0.00000E+00 0.00000E+00 0.00000E+00 0.00000E+00 1.43148E-03 0.00000E+00 2.53148E-02
      280 -8.47815E-08 1.01878E-06-8.52000E-05 0.00000E+00 0.00000E+00 0.00000E+00 0.00000E+00 0.00000E+00 0.00000E+00 1.35612E-03 1.40882E-03 2.53148E-02
      281  0.00000E+00 1.45365E-06-8.52000E-05 0.00000E+00 0.00000E+00 0.00000E+00 0.00000E+00 0.00000E+00 0.00000E+00 8.74900E-20 1.43025E-03 2.53148E-02
      282  0.00000E+00 0.00000E+00-8.52000E-05 0.00000E+00 0.00000E+00 0.00000E+00 0.00000E+00 0.00000E+00 0.00000E+00 0.00000E+00 0.00000E+00 2.53148E-02
      296  0.00000E+00 1.30746E-06-8.52000E-05 0.00000E+00 0.00000E+00 0.00000E+00 0.00000E+00 0.00000E+00 0.00000E+00 1.75000E-19 2.85881E-03 2.53148E-02
      323  2.64621E-07 1.04136E-06-8.52000E-05 0.00000E+00 0.00000E+00 0.00000E+00 0.00000E+00 0.00000E+00 0.00000E+00 4.04136E-03 4.04224E-03 2.53148E-02
      324  1.00914E-07 7.60320E-07-8.52000E-05 0.00000E+00 0.00000E+00 0.00000E+00 0.00000E+00 0.00000E+00 0.00000E+00 2.18680E-03 5.28086E-03 2.53148E-02
      338  2.80221E-07 1.24101E-06-8.52000E-05 0.00000E+00 0.00000E+00 0.00000E+00 0.00000E+00 0.00000E+00 0.00000E+00 5.28028E-03 2.18814E-03 2.53148E-02
      352  0.00000E+00 1.66998E-06-8.52000E-05 0.00000E+00 0.00000E+00 0.00000E+00 0.00000E+00 0.00000E+00 0.00000E+00 2.62500E-19 4.28797E-03 2.53148E-02
      366  5.51810E-07 0.00000E+00-8.52000E-05 0.00000E+00 0.00000E+00 0.00000E+00 0.00000E+00 0.00000E+00 0.00000E+00 5.71555E-03 0.00000E+00 2.53148E-02
      380  0.00000E+00 1.36592E-06-8.52000E-05 0.00000E+00 0.00000E+00 0.00000E+00 0.00000E+00 0.00000E+00 0.00000E+00 3.49900E-19 5.71637E-03 2.53148E-02
      608 -1.04291E-07 0.00000E+00-8.52000E-05 0.00000E+00 0.00000E+00 0.00000E+00 0.00000E+00 0.00000E+00 0.00000E+00 1.26999E-02 0.00000E+00 2.53148E-02
      609  1.66733E-07 0.00000E+00-8.52000E-05 0.00000E+00 0.00000E+00 0.00000E+00 0.00000E+00 0.00000E+00 0.00000E+00 1.09540E-02 0.00000E+00 2.53148E-02
      610  2.30889E-07 0.00000E+00-8.52000E-05 0.00000E+00 0.00000E+00 0.00000E+00 0.00000E+00 0.00000E+00 0.00000E+00 9.20773E-03 0.00000E+00 2.53148E-02
      611  2.93073E-07 0.00000E+00-8.52000E-05 0.00000E+00 0.00000E+00 0.00000E+00 0.00000E+00 0.00000E+00 0.00000E+00 7.46159E-03 0.00000E+00 2.53148E-02
      804  3.52992E-07 1.22414E-06-8.52000E-05 0.00000E+00 0.00000E+00 0.00000E+00 0.00000E+00 0.00000E+00 0.00000E+00 6.90235E-03 2.83522E-03 2.53148E-02
      806  5.05367E-07 1.17115E-06-8.52000E-05 0.00000E+00 0.00000E+00 0.00000E+00 0.00000E+00 0.00000E+00 0.00000E+00 5.27851E-03 5.27497E-03 2.53148E-02
      808  3.02153E-07 1.03317E-06-8.52000E-05 0.00000E+00 0.00000E+00 0.00000E+00 0.00000E+00 0.00000E+00 0.00000E+00 2.83800E-03 6.90153E-03 2.53148E-02
      810  0.00000E+00 1.61307E-06-8.52000E-05 0.00000E+00 0.00000E+00 0.00000E+00 0.00000E+00 0.00000E+00 0.00000E+00 4.56900E-19 7.46291E-03 2.53148E-02
      852  4.54814E-07 1.35117E-06-8.52000E-05 0.00000E+00 0.00000E+00 0.00000E+00 0.00000E+00 0.00000E+00 0.00000E+00 8.52445E-03 3.48245E-03 2.53148E-02
      854  6.75898E-07 1.25316E-06-8.52000E-05 0.00000E+00 0.00000E+00 0.00000E+00 0.00000E+00 0.00000E+00 0.00000E+00 6.51568E-03 6.50765E-03 2.53148E-02
      856  4.74673E-07 1.21336E-06-8.52000E-05 0.00000E+00 0.00000E+00 0.00000E+00 0.00000E+00 0.00000E+00 0.00000E+00 3.48917E-03 8.52221E-03 2.53148E-02
      858  0.00000E+00 1.95403E-06-8.52000E-05 0.00000E+00 0.00000E+00 0.00000E+00 0.00000E+00 0.00000E+00 0.00000E+00 5.63800E-19 9.20945E-03 2.53148E-02
      864  5.44188E-07 1.44229E-06-8.52000E-05 0.00000E+00 0.00000E+00 0.00000E+00 0.00000E+00 0.00000E+00 0.00000E+00 1.01466E-02 4.12954E-03 2.53148E-02
      866  9.12929E-07 1.36250E-06-8.52000E-05 0.00000E+00 0.00000E+00 0.00000E+00 0.00000E+00 0.00000E+00 0.00000E+00 7.75281E-03 7.74036E-03 2.53148E-02
      868  5.03782E-07 1.40151E-06-8.52000E-05 0.00000E+00 0.00000E+00 0.00000E+00 0.00000E+00 0.00000E+00 0.00000E+00 4.14020E-03 1.01428E-02 2.53148E-02
      870  0.00000E+00 2.37812E-06-8.52000E-05 0.00000E+00 0.00000E+00 0.00000E+00 0.00000E+00 0.00000E+00 0.00000E+00 6.70700E-19 1.09562E-02 2.53148E-02
      880  3.01869E-07 1.24393E-06-8.52000E-05 0.00000E+00 0.00000E+00 0.00000E+00 0.00000E+00 0.00000E+00 0.00000E+00 1.17684E-02 4.77644E-03 2.53148E-02
      882  7.77278E-07 1.35379E-06-8.52000E-05 0.00000E+00 0.00000E+00 0.00000E+00 0.00000E+00 0.00000E+00 0.00000E+00 8.98968E-03 8.97295E-03 2.53148E-02
      884  7.41517E-07 2.29442E-06-8.52000E-05 0.00000E+00 0.00000E+00 0.00000E+00 0.00000E+00 0.00000E+00 0.00000E+00 4.79144E-03 1.17641E-02 2.53148E-02
      886  0.00000E+00 3.08836E-06-8.52000E-05 0.00000E+00 0.00000E+00 0.00000E+00 0.00000E+00 0.00000E+00 0.00000E+00 7.77700E-19 1.27031E-02 2.53148E-02



 n o d a l   p r i n t   o u t   f o r   t i m e  s t e p     197                              ( at time 1.1674784E+01 )

 nodal point  x-disp     y-disp      z-disp      x-vel       y-vel       z-vel      x-accl      y-accl      z-accl      x-coor      y-coor      z-coor
        1  5.64094E-05 0.00000E+00 0.00000E+00 0.00000E+00 0.00000E+00 0.00000E+00 0.00000E+00 0.00000E+00 0.00000E+00 3.23141E-03 0.00000E+00-1.78000E-18
        2  3.62686E-05 0.00000E+00 0.00000E+00 0.00000E+00 0.00000E+00 0.00000E+00 0.00000E+00 0.00000E+00 0.00000E+00 2.41757E-03 0.00000E+00 0.00000E+00
        3  2.17424E-05 0.00000E+00 0.00000E+00 0.00000E+00 0.00000E+00 0.00000E+00 0.00000E+00 0.00000E+00 0.00000E+00 1.60924E-03 0.00000E+00 0.00000E+00
        4  1.06282E-05 0.00000E+00 0.00000E+00 0.00000E+00 0.00000E+00 0.00000E+00 0.00000E+00 0.00000E+00 0.00000E+00 8.04378E-04 0.00000E+00 0.00000E+00
        5  0.00000E+00 0.00000E+00 0.00000E+00 0.00000E+00 0.00000E+00 0.00000E+00 0.00000E+00 0.00000E+00 0.00000E+00 0.00000E+00 0.00000E+00 0.00000E+00
        6  0.00000E+00 1.19269E-05 0.00000E+00 0.00000E+00 0.00000E+00 0.00000E+00 0.00000E+00 0.00000E+00 0.00000E+00 4.86000E-20 8.05677E-04 0.00000E+00
        7  0.00000E+00 2.53959E-05 0.00000E+00 0.00000E+00 0.00000E+00 0.00000E+00 0.00000E+00 0.00000E+00 0.00000E+00 9.72100E-20 1.61290E-03 0.00000E+00
        8  0.00000E+00 4.21690E-05 0.00000E+00 0.00000E+00 0.00000E+00 0.00000E+00 0.00000E+00 0.00000E+00 0.00000E+00 1.45800E-19 2.42347E-03 0.00000E+00
        9  0.00000E+00 6.15211E-05 0.00000E+00 0.00000E+00 0.00000E+00 0.00000E+00 0.00000E+00 0.00000E+00 0.00000E+00 1.94400E-19 3.23652E-03 0.00000E+00
       10  2.62262E-05 6.08341E-05 0.00000E+00 0.00000E+00 0.00000E+00 0.00000E+00 0.00000E+00 0.00000E+00 0.00000E+00 1.24123E-03 2.99413E-03 0.00000E+00
       11  4.81995E-05 5.16399E-05 0.00000E+00 0.00000E+00 0.00000E+00 0.00000E+00 0.00000E+00 0.00000E+00 0.00000E+00 2.29330E-03 2.29674E-03 0.00000E+00
       12  6.14734E-05 3.14593E-05 0.00000E+00 0.00000E+00 0.00000E+00 0.00000E+00 0.00000E+00 0.00000E+00 0.00000E+00 2.99477E-03 1.24646E-03 0.00000E+00
       13  3.07986E-05 3.08261E-05 0.00000E+00 0.00000E+00 0.00000E+00 0.00000E+00 0.00000E+00 0.00000E+00 0.00000E+00 1.33910E-03 1.38273E-03 0.00000E+00
       14  3.26073E-05 1.76098E-05 0.00000E+00 0.00000E+00 0.00000E+00 0.00000E+00 0.00000E+00 0.00000E+00 0.00000E+00 1.52091E-03 7.24587E-04 0.00000E+00
       15  1.59145E-05 2.92188E-05 0.00000E+00 0.00000E+00 0.00000E+00 0.00000E+00 0.00000E+00 0.00000E+00 0.00000E+00 6.85425E-04 1.53622E-03 0.00000E+00
       16  1.62070E-05 1.51509E-05 0.00000E+00 0.00000E+00 0.00000E+00 0.00000E+00 0.00000E+00 0.00000E+00 0.00000E+00 7.69845E-04 7.97488E-04 0.00000E+00
       17  4.06917E-05 3.95110E-05 0.00000E+00 0.00000E+00 0.00000E+00 0.00000E+00 0.00000E+00 0.00000E+00 0.00000E+00 1.77699E-03 1.80701E-03 0.00000E+00
       18  2.16561E-05 4.35891E-05 0.00000E+00 0.00000E+00 0.00000E+00 0.00000E+00 0.00000E+00 0.00000E+00 0.00000E+00 9.41787E-04 2.23469E-03 0.00000E+00
       19  4.72510E-05 2.25636E-05 0.00000E+00 0.00000E+00 0.00000E+00 0.00000E+00 0.00000E+00 0.00000E+00 0.00000E+00 2.21055E-03 9.73422E-04 0.00000E+00
      167  2.26793E-07 1.24526E-06-1.16748E-04 0.00000E+00 0.00000E+00 0.00000E+00 0.00000E+00 0.00000E+00 0.00000E+00 3.12493E-03 3.18195E-03 2.52833E-02
      168  2.63240E-07 7.18196E-07-1.16748E-04 0.00000E+00 0.00000E+00 0.00000E+00 0.00000E+00 0.00000E+00 0.00000E+00 2.35456E-03 2.43342E-03 2.52833E-02
      169 -2.62207E-07 1.57146E-06-1.16748E-04 0.00000E+00 0.00000E+00 0.00000E+00 0.00000E+00 0.00000E+00 0.00000E+00 2.67774E-03 1.27357E-03 2.52833E-02
      170 -1.60363E-07 1.40027E-06-1.16748E-04 0.00000E+00 0.00000E+00 0.00000E+00 0.00000E+00 0.00000E+00 0.00000E+00 3.89264E-03 1.71230E-03 2.52833E-02
      197  1.33736E-07 1.00476E-06-1.16748E-04 0.00000E+00 0.00000E+00 0.00000E+00 0.00000E+00 0.00000E+00 0.00000E+00 1.20473E-03 2.71260E-03 2.52833E-02
      198  5.79657E-08 7.03255E-07-1.16748E-04 0.00000E+00 0.00000E+00 0.00000E+00 0.00000E+00 0.00000E+00 0.00000E+00 1.65566E-03 3.94350E-03 2.52833E-02
      225  3.22159E-06 0.00000E+00-1.16748E-04 0.00000E+00 0.00000E+00 0.00000E+00 0.00000E+00 0.00000E+00 0.00000E+00 2.86072E-03 0.00000E+00 2.52833E-02
      226  1.58752E-06 0.00000E+00-1.16748E-04 0.00000E+00 0.00000E+00 0.00000E+00 0.00000E+00 0.00000E+00 0.00000E+00 4.28789E-03 0.00000E+00 2.52833E-02
      279  3.23796E-06 0.00000E+00-1.16748E-04 0.00000E+00 0.00000E+00 0.00000E+00 0.00000E+00 0.00000E+00 0.00000E+00 1.43204E-03 0.00000E+00 2.52833E-02
      280 -2.82897E-08 1.20574E-06-1.16748E-04 0.00000E+00 0.00000E+00 0.00000E+00 0.00000E+00 0.00000E+00 0.00000E+00 1.35617E-03 1.40901E-03 2.52833E-02
      281  0.00000E+00 1.90741E-06-1.16748E-04 0.00000E+00 0.00000E+00 0.00000E+00 0.00000E+00 0.00000E+00 0.00000E+00 8.74900E-20 1.43071E-03 2.52833E-02
      282  0.00000E+00 0.00000E+00-1.16748E-04 0.00000E+00 0.00000E+00 0.00000E+00 0.00000E+00 0.00000E+00 0.00000E+00 0.00000E+00 0.00000E+00 2.52833E-02
      296  0.00000E+00 1.64065E-06-1.16748E-04 0.00000E+00 0.00000E+00 0.00000E+00 0.00000E+00 0.00000E+00 0.00000E+00 1.75000E-19 2.85914E-03 2.52833E-02
      323  3.04179E-07 1.20889E-06-1.16748E-04 0.00000E+00 0.00000E+00 0.00000E+00 0.00000E+00 0.00000E+00 0.00000E+00 4.04140E-03 4.04241E-03 2.52833E-02
      324  1.18010E-07 8.57406E-07-1.16748E-04 0.00000E+00 0.00000E+00 0.00000E+00 0.00000E+00 0.00000E+00 0.00000E+00 2.18682E-03 5.28096E-03 2.52833E-02
      338  3.13263E-07 1.43672E-06-1.16748E-04 0.00000E+00 0.00000E+00 0.00000E+00 0.00000E+00 0.00000E+00 0.00000E+00 5.28031E-03 2.18834E-03 2.52833E-02
      352  0.00000E+00 1.90871E-06-1.16748E-04 0.00000E+00 0.00000E+00 0.00000E+00 0.00000E+00 0.00000E+00 0.00000E+00 2.62500E-19 4.28821E-03 2.52833E-02
      366  6.47737E-07 0.00000E+00-1.16748E-04 0.00000E+00 0.00000E+00 0.00000E+00 0.00000E+00 0.00000E+00 0.00000E+00 5.71565E-03 0.00000E+00 2.52833E-02
      380  0.00000E+00 1.59041E-06-1.16748E-04 0.00000E+00 0.00000E+00 0.00000E+00 0.00000E+00 0.00000E+00 0.00000E+00 3.49900E-19 5.71659E-03 2.52833E-02
      608 -1.48720E-07 0.00000E+00-1.16748E-04 0.00000E+00 0.00000E+00 0.00000E+00 0.00000E+00 0.00000E+00 0.00000E+00 1.26999E-02 0.00000E+00 2.52833E-02
      609  1.66978E-07 0.00000E+00-1.16748E-04 0.00000E+00 0.00000E+00 0.00000E+00 0.00000E+00 0.00000E+00 0.00000E+00 1.09540E-02 0.00000E+00 2.52833E-02
      610  2.40217E-07 0.00000E+00-1.16748E-04 0.00000E+00 0.00000E+00 0.00000E+00 0.00000E+00 0.00000E+00 0.00000E+00 9.20774E-03 0.00000E+00 2.52833E-02
      611  3.18658E-07 0.00000E+00-1.16748E-04 0.00000E+00 0.00000E+00 0.00000E+00 0.00000E+00 0.00000E+00 0.00000E+00 7.46162E-03 0.00000E+00 2.52833E-02
      804  3.92608E-07 1.41104E-06-1.16748E-04 0.00000E+00 0.00000E+00 0.00000E+00 0.00000E+00 0.00000E+00 0.00000E+00 6.90239E-03 2.83541E-03 2.52833E-02
      806  5.83585E-07 1.34882E-06-1.16748E-04 0.00000E+00 0.00000E+00 0.00000E+00 0.00000E+00 0.00000E+00 0.00000E+00 5.27858E-03 5.27515E-03 2.52833E-02
      808  3.47466E-07 1.13741E-06-1.16748E-04 0.00000E+00 0.00000E+00 0.00000E+00 0.00000E+00 0.00000E+00 0.00000E+00 2.83805E-03 6.90164E-03 2.52833E-02
      810  0.00000E+00 1.93073E-06-1.16748E-04 0.00000E+00 0.00000E+00 0.00000E+00 0.00000E+00 0.00000E+00 0.00000E+00 4.56900E-19 7.46323E-03 2.52833E-02
      852  4.94646E-07 1.54115E-06-1.16748E-04 0.00000E+00 0.00000E+00 0.00000E+00 0.00000E+00 0.00000E+00 0.00000E+00 8.52449E-03 3.48264E-03 2.52833E-02
      854  7.71402E-07 1.42720E-06-1.16748E-04 0.00000E+00 0.00000E+00 0.00000E+00 0.00000E+00 0.00000E+00 0.00000E+00 6.51577E-03 6.50783E-03 2.52833E-02
      856  5.15935E-07 1.37592E-06-1.16748E-04 0.00000E+00 0.00000E+00 0.00000E+00 0.00000E+00 0.00000E+00 0.00000E+00 3.48922E-03 8.52238E-03 2.52833E-02
      858  0.00000E+00 2.27095E-06-1.16748E-04 0.00000E+00 0.00000E+00 0.00000E+00 0.00000E+00 0.00000E+00 0.00000E+00 5.63800E-19 9.20977E-03 2.52833E-02
      864  6.02473E-07 1.63325E-06-1.16748E-04 0.00000E+00 0.00000E+00 0.00000E+00 0.00000E+00 0.00000E+00 0.00000E+00 1.01467E-02 4.12973E-03 2.52833E-02
      866  1.04212E-06 1.49265E-06-1.16748E-04 0.00000E+00 0.00000E+00 0.00000E+00 0.00000E+00 0.00000E+00 0.00000E+00 7.75294E-03 7.74049E-03 2.52833E-02
      868  5.64049E-07 1.61741E-06-1.16748E-04 0.00000E+00 0.00000E+00 0.00000E+00 0.00000E+00 0.00000E+00 0.00000E+00 4.14026E-03 1.01430E-02 2.52833E-02
      870  0.00000E+00 2.64467E-06-1.16748E-04 0.00000E+00 0.00000E+00 0.00000E+00 0.00000E+00 0.00000E+00 0.00000E+00 6.70700E-19 1.09564E-02 2.52833E-02
      880  3.50570E-07 1.40740E-06-1.16748E-04 0.00000E+00 0.00000E+00 0.00000E+00 0.00000E+00 0.00000E+00 0.00000E+00 1.17685E-02 4.77661E-03 2.52833E-02
      882  8.61975E-07 1.50612E-06-1.16748E-04 0.00000E+00 0.00000E+00 0.00000E+00 0.00000E+00 0.00000E+00 0.00000E+00 8.98976E-03 8.97311E-03 2.52833E-02
      884  8.71702E-07 2.45671E-06-1.16748E-04 0.00000E+00 0.00000E+00 0.00000E+00 0.00000E+00 0.00000E+00 0.00000E+00 4.79157E-03 1.17643E-02 2.52833E-02
      886  0.00000E+00 3.29014E-06-1.16748E-04 0.00000E+00 0.00000E+00 0.00000E+00 0.00000E+00 0.00000E+00 0.00000E+00 7.77700E-19 1.27033E-02 2.52833E-02



 n o d a l   p r i n t   o u t   f o r   t i m e  s t e p     205                              ( at time 1.4829571E+01 )

 nodal point  x-disp     y-disp      z-disp      x-vel       y-vel       z-vel      x-accl      y-accl      z-accl      x-coor      y-coor      z-coor
        1  7.73933E-05 0.00000E+00 0.00000E+00 0.00000E+00 0.00000E+00 0.00000E+00 0.00000E+00 0.00000E+00 0.00000E+00 3.25239E-03 0.00000E+00-1.78000E-18
        2  5.10787E-05 0.00000E+00 0.00000E+00 0.00000E+00 0.00000E+00 0.00000E+00 0.00000E+00 0.00000E+00 0.00000E+00 2.43238E-03 0.00000E+00 0.00000E+00
        3  3.11573E-05 0.00000E+00 0.00000E+00 0.00000E+00 0.00000E+00 0.00000E+00 0.00000E+00 0.00000E+00 0.00000E+00 1.61866E-03 0.00000E+00 0.00000E+00
        4  1.53560E-05 0.00000E+00 0.00000E+00 0.00000E+00 0.00000E+00 0.00000E+00 0.00000E+00 0.00000E+00 0.00000E+00 8.09106E-04 0.00000E+00 0.00000E+00
        5  0.00000E+00 0.00000E+00 0.00000E+00 0.00000E+00 0.00000E+00 0.00000E+00 0.00000E+00 0.00000E+00 0.00000E+00 0.00000E+00 0.00000E+00 0.00000E+00
        6  0.00000E+00 1.69442E-05 0.00000E+00 0.00000E+00 0.00000E+00 0.00000E+00 0.00000E+00 0.00000E+00 0.00000E+00 4.86000E-20 8.10694E-04 0.00000E+00
        7  0.00000E+00 3.52668E-05 0.00000E+00 0.00000E+00 0.00000E+00 0.00000E+00 0.00000E+00 0.00000E+00 0.00000E+00 9.72100E-20 1.62277E-03 0.00000E+00
        8  0.00000E+00 5.71929E-05 0.00000E+00 0.00000E+00 0.00000E+00 0.00000E+00 0.00000E+00 0.00000E+00 0.00000E+00 1.45800E-19 2.43849E-03 0.00000E+00
        9  0.00000E+00 8.21028E-05 0.00000E+00 0.00000E+00 0.00000E+00 0.00000E+00 0.00000E+00 0.00000E+00 0.00000E+00 1.94400E-19 3.25710E-03 0.00000E+00
       10  3.45762E-05 8.08120E-05 0.00000E+00 0.00000E+00 0.00000E+00 0.00000E+00 0.00000E+00 0.00000E+00 0.00000E+00 1.24958E-03 3.01411E-03 0.00000E+00
       11  6.32339E-05 6.71174E-05 0.00000E+00 0.00000E+00 0.00000E+00 0.00000E+00 0.00000E+00 0.00000E+00 0.00000E+00 2.30833E-03 2.31222E-03 0.00000E+00
       12  8.05765E-05 4.02303E-05 0.00000E+00 0.00000E+00 0.00000E+00 0.00000E+00 0.00000E+00 0.00000E+00 0.00000E+00 3.01388E-03 1.25523E-03 0.00000E+00
       13  4.14563E-05 4.10884E-05 0.00000E+00 0.00000E+00 0.00000E+00 0.00000E+00 0.00000E+00 0.00000E+00 0.00000E+00 1.34976E-03 1.39299E-03 0.00000E+00
       14  4.33885E-05 2.28484E-05 0.00000E+00 0.00000E+00 0.00000E+00 0.00000E+00 0.00000E+00 0.00000E+00 0.00000E+00 1.53169E-03 7.29825E-04 0.00000E+00
       15  2.10460E-05 3.98896E-05 0.00000E+00 0.00000E+00 0.00000E+00 0.00000E+00 0.00000E+00 0.00000E+00 0.00000E+00 6.90556E-04 1.54689E-03 0.00000E+00
       16  2.12608E-05 2.02974E-05 0.00000E+00 0.00000E+00 0.00000E+00 0.00000E+00 0.00000E+00 0.00000E+00 0.00000E+00 7.74898E-04 8.02635E-04 0.00000E+00
       17  5.34467E-05 5.21905E-05 0.00000E+00 0.00000E+00 0.00000E+00 0.00000E+00 0.00000E+00 0.00000E+00 0.00000E+00 1.78975E-03 1.81969E-03 0.00000E+00
       18  2.87206E-05 5.86795E-05 0.00000E+00 0.00000E+00 0.00000E+00 0.00000E+00 0.00000E+00 0.00000E+00 0.00000E+00 9.48851E-04 2.24978E-03 0.00000E+00
       19  6.22208E-05 2.95143E-05 0.00000E+00 0.00000E+00 0.00000E+00 0.00000E+00 0.00000E+00 0.00000E+00 0.00000E+00 2.22552E-03 9.80373E-04 0.00000E+00
      167  2.59330E-07 1.25523E-06-1.48296E-04 0.00000E+00 0.00000E+00 0.00000E+00 0.00000E+00 0.00000E+00 0.00000E+00 3.12496E-03 3.18196E-03 2.52517E-02
      168  3.28654E-07 6.63417E-07-1.48296E-04 0.00000E+00 0.00000E+00 0.00000E+00 0.00000E+00 0.00000E+00 0.00000E+00 2.35463E-03 2.43336E-03 2.52517E-02
      169 -2.56144E-07 1.51143E-06-1.48296E-04 0.00000E+00 0.00000E+00 0.00000E+00 0.00000E+00 0.00000E+00 0.00000E+00 2.67774E-03 1.27351E-03 2.52517E-02
      170 -1.93233E-07 1.44079E-06-1.48296E-04 0.00000E+00 0.00000E+00 0.00000E+00 0.00000E+00 0.00000E+00 0.00000E+00 3.89261E-03 1.71234E-03 2.52517E-02
      197  1.97944E-07 1.13481E-06-1.48296E-04 0.00000E+00 0.00000E+00 0.00000E+00 0.00000E+00 0.00000E+00 0.00000E+00 1.20480E-03 2.71273E-03 2.52517E-02
      198  9.67519E-08 7.99964E-07-1.48296E-04 0.00000E+00 0.00000E+00 0.00000E+00 0.00000E+00 0.00000E+00 0.00000E+00 1.65570E-03 3.94360E-03 2.52517E-02
      225  3.54385E-06 0.00000E+00-1.48296E-04 0.00000E+00 0.00000E+00 0.00000E+00 0.00000E+00 0.00000E+00 0.00000E+00 2.86104E-03 0.00000E+00 2.52517E-02
      226  1.76118E-06 0.00000E+00-1.48296E-04 0.00000E+00 0.00000E+00 0.00000E+00 0.00000E+00 0.00000E+00 0.00000E+00 4.28806E-03 0.00000E+00 2.52517E-02
      279  3.46357E-06 0.00000E+00-1.48296E-04 0.00000E+00 0.00000E+00 0.00000E+00 0.00000E+00 0.00000E+00 0.00000E+00 1.43226E-03 0.00000E+00 2.52517E-02
      280  4.90774E-08 1.20032E-06-1.48296E-04 0.00000E+00 0.00000E+00 0.00000E+00 0.00000E+00 0.00000E+00 0.00000E+00 1.35625E-03 1.40900E-03 2.52517E-02
      281  0.00000E+00 2.13158E-06-1.48296E-04 0.00000E+00 0.00000E+00 0.00000E+00 0.00000E+00 0.00000E+00 0.00000E+00 8.74900E-20 1.43093E-03 2.52517E-02
      282  0.00000E+00 0.00000E+00-1.48296E-04 0.00000E+00 0.00000E+00 0.00000E+00 0.00000E+00 0.00000E+00 0.00000E+00 0.00000E+00 0.00000E+00 2.52517E-02
      296  0.00000E+00 1.92900E-06-1.48296E-04 0.00000E+00 0.00000E+00 0.00000E+00 0.00000E+00 0.00000E+00 0.00000E+00 1.75000E-19 2.85943E-03 2.52517E-02
      323  3.37953E-07 1.27828E-06-1.48296E-04 0.00000E+00 0.00000E+00 0.00000E+00 0.00000E+00 0.00000E+00 0.00000E+00 4.04144E-03 4.04248E-03 2.52517E-02
      324  1.49969E-07 9.34825E-07-1.48296E-04 0.00000E+00 0.00000E+00 0.00000E+00 0.00000E+00 0.00000E+00 0.00000E+00 2.18685E-03 5.28103E-03 2.52517E-02
      338  3.53422E-07 1.51215E-06-1.48296E-04 0.00000E+00 0.00000E+00 0.00000E+00 0.00000E+00 0.00000E+00 0.00000E+00 5.28035E-03 2.18841E-03 2.52517E-02
      352  0.00000E+00 2.13830E-06-1.48296E-04 0.00000E+00 0.00000E+00 0.00000E+00 0.00000E+00 0.00000E+00 0.00000E+00 2.62500E-19 4.28844E-03 2.52517E-02
      366  6.82921E-07 0.00000E+00-1.48296E-04 0.00000E+00 0.00000E+00 0.00000E+00 0.00000E+00 0.00000E+00 0.00000E+00 5.71568E-03 0.00000E+00 2.52517E-02
      380  0.00000E+00 1.83329E-06-1.48296E-04 0.00000E+00 0.00000E+00 0.00000E+00 0.00000E+00 0.00000E+00 0.00000E+00 3.49900E-19 5.71683E-03 2.52517E-02
      608 -1.96945E-07 0.00000E+00-1.48296E-04 0.00000E+00 0.00000E+00 0.00000E+00 0.00000E+00 0.00000E+00 0.00000E+00 1.26998E-02 0.00000E+00 2.52517E-02
      609  1.50317E-07 0.00000E+00-1.48296E-04 0.00000E+00 0.00000E+00 0.00000E+00 0.00000E+00 0.00000E+00 0.00000E+00 1.09540E-02 0.00000E+00 2.52517E-02
      610  2.36868E-07 0.00000E+00-1.48296E-04 0.00000E+00 0.00000E+00 0.00000E+00 0.00000E+00 0.00000E+00 0.00000E+00 9.20774E-03 0.00000E+00 2.52517E-02
      611  3.21739E-07 0.00000E+00-1.48296E-04 0.00000E+00 0.00000E+00 0.00000E+00 0.00000E+00 0.00000E+00 0.00000E+00 7.46162E-03 0.00000E+00 2.52517E-02
      804  4.32979E-07 1.49705E-06-1.48296E-04 0.00000E+00 0.00000E+00 0.00000E+00 0.00000E+00 0.00000E+00 0.00000E+00 6.90243E-03 2.83550E-03 2.52517E-02
      806  6.24557E-07 1.42906E-06-1.48296E-04 0.00000E+00 0.00000E+00 0.00000E+00 0.00000E+00 0.00000E+00 0.00000E+00 5.27862E-03 5.27523E-03 2.52517E-02
      808  3.68199E-07 1.22551E-06-1.48296E-04 0.00000E+00 0.00000E+00 0.00000E+00 0.00000E+00 0.00000E+00 0.00000E+00 2.83807E-03 6.90173E-03 2.52517E-02
      810  0.00000E+00 2.16144E-06-1.48296E-04 0.00000E+00 0.00000E+00 0.00000E+00 0.00000E+00 0.00000E+00 0.00000E+00 4.56900E-19 7.46346E-03 2.52517E-02
      852  5.32840E-07 1.62732E-06-1.48296E-04 0.00000E+00 0.00000E+00 0.00000E+00 0.00000E+00 0.00000E+00 0.00000E+00 8.52453E-03 3.48273E-03 2.52517E-02
      854  8.24237E-07 1.50542E-06-1.48296E-04 0.00000E+00 0.00000E+00 0.00000E+00 0.00000E+00 0.00000E+00 0.00000E+00 6.51582E-03 6.50791E-03 2.52517E-02
      856  5.40514E-07 1.47857E-06-1.48296E-04 0.00000E+00 0.00000E+00 0.00000E+00 0.00000E+00 0.00000E+00 0.00000E+00 3.48924E-03 8.52248E-03 2.52517E-02
      858  0.00000E+00 2.48793E-06-1.48296E-04 0.00000E+00 0.00000E+00 0.00000E+00 0.00000E+00 0.00000E+00 0.00000E+00 5.63800E-19 9.20999E-03 2.52517E-02
      864  6.43437E-07 1.71794E-06-1.48296E-04 0.00000E+00 0.00000E+00 0.00000E+00 0.00000E+00 0.00000E+00 0.00000E+00 1.01467E-02 4.12982E-03 2.52517E-02
      866  1.10554E-06 1.55670E-06-1.48296E-04 0.00000E+00 0.00000E+00 0.00000E+00 0.00000E+00 0.00000E+00 0.00000E+00 7.75301E-03 7.74056E-03 2.52517E-02
      868  5.87475E-07 1.71884E-06-1.48296E-04 0.00000E+00 0.00000E+00 0.00000E+00 0.00000E+00 0.00000E+00 0.00000E+00 4.14029E-03 1.01431E-02 2.52517E-02
      870  0.00000E+00 2.85523E-06-1.48296E-04 0.00000E+00 0.00000E+00 0.00000E+00 0.00000E+00 0.00000E+00 0.00000E+00 6.70700E-19 1.09567E-02 2.52517E-02
      880  3.78207E-07 1.44840E-06-1.48296E-04 0.00000E+00 0.00000E+00 0.00000E+00 0.00000E+00 0.00000E+00 0.00000E+00 1.17685E-02 4.77665E-03 2.52517E-02
      882  8.93812E-07 1.61580E-06-1.48296E-04 0.00000E+00 0.00000E+00 0.00000E+00 0.00000E+00 0.00000E+00 0.00000E+00 8.98979E-03 8.97322E-03 2.52517E-02
      884  9.41384E-07 2.53232E-06-1.48296E-04 0.00000E+00 0.00000E+00 0.00000E+00 0.00000E+00 0.00000E+00 0.00000E+00 4.79164E-03 1.17643E-02 2.52517E-02
      886  0.00000E+00 3.46303E-06-1.48296E-04 0.00000E+00 0.00000E+00 0.00000E+00 0.00000E+00 0.00000E+00 0.00000E+00 7.77700E-19 1.27035E-02 2.52517E-02



 n o d a l   p r i n t   o u t   f o r   t i m e  s t e p     213                              ( at time 1.7984358E+01 )

[...]
      858  0.00000E+00 1.85458E-06-9.47705E-04 0.00000E+00 0.00000E+00 0.00000E+00 0.00000E+00 0.00000E+00 0.00000E+00 5.63800E-19 9.20935E-03 2.44523E-02
      864  4.91211E-07 1.13578E-06-9.47705E-04 0.00000E+00 0.00000E+00 0.00000E+00 0.00000E+00 0.00000E+00 0.00000E+00 1.01466E-02 4.12924E-03 2.44523E-02
      866  8.28722E-07 8.85012E-07-9.47705E-04 0.00000E+00 0.00000E+00 0.00000E+00 0.00000E+00 0.00000E+00 0.00000E+00 7.75273E-03 7.73989E-03 2.44523E-02
      868  3.93829E-07 9.83238E-07-9.47705E-04 0.00000E+00 0.00000E+00 0.00000E+00 0.00000E+00 0.00000E+00 0.00000E+00 4.14009E-03 1.01424E-02 2.44523E-02
      870  0.00000E+00 2.02162E-06-9.47705E-04 0.00000E+00 0.00000E+00 0.00000E+00 0.00000E+00 0.00000E+00 0.00000E+00 6.70700E-19 1.09558E-02 2.44523E-02
      880  3.58990E-07 9.20791E-07-9.47705E-04 0.00000E+00 0.00000E+00 0.00000E+00 0.00000E+00 0.00000E+00 0.00000E+00 1.17685E-02 4.77612E-03 2.44523E-02
      882  6.98770E-07 9.00414E-07-9.47705E-04 0.00000E+00 0.00000E+00 0.00000E+00 0.00000E+00 0.00000E+00 0.00000E+00 8.98960E-03 8.97250E-03 2.44523E-02
      884  6.53897E-07 1.54413E-06-9.47705E-04 0.00000E+00 0.00000E+00 0.00000E+00 0.00000E+00 0.00000E+00 0.00000E+00 4.79135E-03 1.17633E-02 2.44523E-02
      886  0.00000E+00 2.15980E-06-9.47705E-04 0.00000E+00 0.00000E+00 0.00000E+00 0.00000E+00 0.00000E+00 0.00000E+00 7.77700E-19 1.27022E-02 2.44523E-02



 n o d a l   p r i n t   o u t   f o r   t i m e  s t e p     438                              ( at time 9.9770519E+01 )

 nodal point  x-disp     y-disp      z-disp      x-vel       y-vel       z-vel      x-accl      y-accl      z-accl      x-coor      y-coor      z-coor
        1  1.14644E-03 0.00000E+00 0.00000E+00 0.00000E+00 0.00000E+00 0.00000E+00 0.00000E+00 0.00000E+00 0.00000E+00 4.32144E-03 0.00000E+00-1.78000E-18
        2  8.52220E-04 0.00000E+00 0.00000E+00 0.00000E+00 0.00000E+00 0.00000E+00 0.00000E+00 0.00000E+00 0.00000E+00 3.23352E-03 0.00000E+00 0.00000E+00
        3  5.69068E-04 0.00000E+00 0.00000E+00 0.00000E+00 0.00000E+00 0.00000E+00 0.00000E+00 0.00000E+00 0.00000E+00 2.15657E-03 0.00000E+00 0.00000E+00
        4  2.87407E-04 0.00000E+00 0.00000E+00 0.00000E+00 0.00000E+00 0.00000E+00 0.00000E+00 0.00000E+00 0.00000E+00 1.08116E-03 0.00000E+00 0.00000E+00
        5  0.00000E+00 0.00000E+00 0.00000E+00 0.00000E+00 0.00000E+00 0.00000E+00 0.00000E+00 0.00000E+00 0.00000E+00 0.00000E+00 0.00000E+00 0.00000E+00
        6  0.00000E+00 2.29787E-04 0.00000E+00 0.00000E+00 0.00000E+00 0.00000E+00 0.00000E+00 0.00000E+00 0.00000E+00 4.86000E-20 1.02354E-03 0.00000E+00
        7  0.00000E+00 5.12444E-04 0.00000E+00 0.00000E+00 0.00000E+00 0.00000E+00 0.00000E+00 0.00000E+00 0.00000E+00 9.72100E-20 2.09994E-03 0.00000E+00
        8  0.00000E+00 7.23989E-04 0.00000E+00 0.00000E+00 0.00000E+00 0.00000E+00 0.00000E+00 0.00000E+00 0.00000E+00 1.45800E-19 3.10529E-03 0.00000E+00
        9  0.00000E+00 9.26420E-04 0.00000E+00 0.00000E+00 0.00000E+00 0.00000E+00 0.00000E+00 0.00000E+00 0.00000E+00 1.94400E-19 4.10142E-03 0.00000E+00
       10  4.14789E-04 8.57754E-04 0.00000E+00 0.00000E+00 0.00000E+00 0.00000E+00 0.00000E+00 0.00000E+00 0.00000E+00 1.62979E-03 3.79105E-03 0.00000E+00
       11  6.83475E-04 7.42295E-04 0.00000E+00 0.00000E+00 0.00000E+00 0.00000E+00 0.00000E+00 0.00000E+00 0.00000E+00 2.92858E-03 2.98740E-03 0.00000E+00
       12  9.96746E-04 4.27193E-04 0.00000E+00 0.00000E+00 0.00000E+00 0.00000E+00 0.00000E+00 0.00000E+00 0.00000E+00 3.93005E-03 1.64219E-03 0.00000E+00
       13  5.32588E-04 4.40918E-04 0.00000E+00 0.00000E+00 0.00000E+00 0.00000E+00 0.00000E+00 0.00000E+00 0.00000E+00 1.84089E-03 1.79282E-03 0.00000E+00
       14  5.81408E-04 2.39437E-04 0.00000E+00 0.00000E+00 0.00000E+00 0.00000E+00 0.00000E+00 0.00000E+00 0.00000E+00 2.06971E-03 9.46414E-04 0.00000E+00
       15  2.88300E-04 5.39695E-04 0.00000E+00 0.00000E+00 0.00000E+00 0.00000E+00 0.00000E+00 0.00000E+00 0.00000E+00 9.57811E-04 2.04670E-03 0.00000E+00
       16  3.11302E-04 3.08514E-04 0.00000E+00 0.00000E+00 0.00000E+00 0.00000E+00 0.00000E+00 0.00000E+00 0.00000E+00 1.06494E-03 1.09085E-03 0.00000E+00
       17  6.32907E-04 5.70519E-04 0.00000E+00 0.00000E+00 0.00000E+00 0.00000E+00 0.00000E+00 0.00000E+00 0.00000E+00 2.36921E-03 2.33802E-03 0.00000E+00
       18  3.45133E-04 7.25068E-04 0.00000E+00 0.00000E+00 0.00000E+00 0.00000E+00 0.00000E+00 0.00000E+00 0.00000E+00 1.26526E-03 2.91617E-03 0.00000E+00
       19  7.98018E-04 3.09529E-04 0.00000E+00 0.00000E+00 0.00000E+00 0.00000E+00 0.00000E+00 0.00000E+00 0.00000E+00 2.96132E-03 1.26039E-03 0.00000E+00
      167  3.19254E-07 8.62813E-07-9.97705E-04 0.00000E+00 0.00000E+00 0.00000E+00 0.00000E+00 0.00000E+00 0.00000E+00 3.12502E-03 3.18156E-03 2.44023E-02
      168  2.95225E-07 3.07523E-07-9.97705E-04 0.00000E+00 0.00000E+00 0.00000E+00 0.00000E+00 0.00000E+00 0.00000E+00 2.35460E-03 2.43301E-03 2.44023E-02
      169  5.18809E-08 9.85774E-07-9.97705E-04 0.00000E+00 0.00000E+00 0.00000E+00 0.00000E+00 0.00000E+00 0.00000E+00 2.67805E-03 1.27299E-03 2.44023E-02
      170 -2.23448E-08 8.32933E-07-9.97705E-04 0.00000E+00 0.00000E+00 0.00000E+00 0.00000E+00 0.00000E+00 0.00000E+00 3.89278E-03 1.71173E-03 2.44023E-02
      197  2.36821E-07 6.45072E-07-9.97705E-04 0.00000E+00 0.00000E+00 0.00000E+00 0.00000E+00 0.00000E+00 0.00000E+00 1.20484E-03 2.71225E-03 2.44023E-02
      198  1.63797E-07 4.44444E-07-9.97705E-04 0.00000E+00 0.00000E+00 0.00000E+00 0.00000E+00 0.00000E+00 0.00000E+00 1.65576E-03 3.94324E-03 2.44023E-02
      225  2.53092E-06 0.00000E+00-9.97705E-04 0.00000E+00 0.00000E+00 0.00000E+00 0.00000E+00 0.00000E+00 0.00000E+00 2.86003E-03 0.00000E+00 2.44023E-02
      226  1.05463E-06 0.00000E+00-9.97705E-04 0.00000E+00 0.00000E+00 0.00000E+00 0.00000E+00 0.00000E+00 0.00000E+00 4.28735E-03 0.00000E+00 2.44023E-02
      279  2.60577E-06 0.00000E+00-9.97705E-04 0.00000E+00 0.00000E+00 0.00000E+00 0.00000E+00 0.00000E+00 0.00000E+00 1.43141E-03 0.00000E+00 2.44023E-02
      280  2.89709E-07 3.01904E-07-9.97705E-04 0.00000E+00 0.00000E+00 0.00000E+00 0.00000E+00 0.00000E+00 0.00000E+00 1.35649E-03 1.40810E-03 2.44023E-02
      281  0.00000E+00 1.73163E-06-9.97705E-04 0.00000E+00 0.00000E+00 0.00000E+00 0.00000E+00 0.00000E+00 0.00000E+00 8.74900E-20 1.43053E-03 2.44023E-02
      282  0.00000E+00 0.00000E+00-9.97705E-04 0.00000E+00 0.00000E+00 0.00000E+00 0.00000E+00 0.00000E+00 0.00000E+00 0.00000E+00 0.00000E+00 2.44023E-02
      296  0.00000E+00 1.82199E-06-9.97705E-04 0.00000E+00 0.00000E+00 0.00000E+00 0.00000E+00 0.00000E+00 0.00000E+00 1.75000E-19 2.85932E-03 2.44023E-02
      323  3.16577E-07 7.78210E-07-9.97705E-04 0.00000E+00 0.00000E+00 0.00000E+00 0.00000E+00 0.00000E+00 0.00000E+00 4.04142E-03 4.04198E-03 2.44023E-02
      324  2.32372E-07 6.88920E-07-9.97705E-04 0.00000E+00 0.00000E+00 0.00000E+00 0.00000E+00 0.00000E+00 0.00000E+00 2.18693E-03 5.28079E-03 2.44023E-02
      338  3.20600E-07 1.00817E-06-9.97705E-04 0.00000E+00 0.00000E+00 0.00000E+00 0.00000E+00 0.00000E+00 0.00000E+00 5.28032E-03 2.18791E-03 2.44023E-02
      352  0.00000E+00 1.65784E-06-9.97705E-04 0.00000E+00 0.00000E+00 0.00000E+00 0.00000E+00 0.00000E+00 0.00000E+00 2.62500E-19 4.28796E-03 2.44023E-02
      366  4.34104E-07 0.00000E+00-9.97705E-04 0.00000E+00 0.00000E+00 0.00000E+00 0.00000E+00 0.00000E+00 0.00000E+00 5.71543E-03 0.00000E+00 2.44023E-02
      380  0.00000E+00 1.66430E-06-9.97705E-04 0.00000E+00 0.00000E+00 0.00000E+00 0.00000E+00 0.00000E+00 0.00000E+00 3.49900E-19 5.71666E-03 2.44023E-02
      608 -2.32355E-07 0.00000E+00-9.97705E-04 0.00000E+00 0.00000E+00 0.00000E+00 0.00000E+00 0.00000E+00 0.00000E+00 1.26998E-02 0.00000E+00 2.44023E-02
      609  8.75466E-08 0.00000E+00-9.97705E-04 0.00000E+00 0.00000E+00 0.00000E+00 0.00000E+00 0.00000E+00 0.00000E+00 1.09539E-02 0.00000E+00 2.44023E-02
      610  1.42412E-07 0.00000E+00-9.97705E-04 0.00000E+00 0.00000E+00 0.00000E+00 0.00000E+00 0.00000E+00 0.00000E+00 9.20764E-03 0.00000E+00 2.44023E-02
      611  2.04144E-07 0.00000E+00-9.97705E-04 0.00000E+00 0.00000E+00 0.00000E+00 0.00000E+00 0.00000E+00 0.00000E+00 7.46150E-03 0.00000E+00 2.44023E-02
      804  3.47560E-07 1.01548E-06-9.97705E-04 0.00000E+00 0.00000E+00 0.00000E+00 0.00000E+00 0.00000E+00 0.00000E+00 6.90235E-03 2.83502E-03 2.44023E-02
      806  4.93024E-07 9.25916E-07-9.97705E-04 0.00000E+00 0.00000E+00 0.00000E+00 0.00000E+00 0.00000E+00 0.00000E+00 5.27849E-03 5.27473E-03 2.44023E-02
      808  3.26370E-07 8.25901E-07-9.97705E-04 0.00000E+00 0.00000E+00 0.00000E+00 0.00000E+00 0.00000E+00 0.00000E+00 2.83803E-03 6.90133E-03 2.44023E-02
      810  0.00000E+00 1.68182E-06-9.97705E-04 0.00000E+00 0.00000E+00 0.00000E+00 0.00000E+00 0.00000E+00 0.00000E+00 4.56900E-19 7.46298E-03 2.44023E-02
      852  4.17833E-07 1.08580E-06-9.97705E-04 0.00000E+00 0.00000E+00 0.00000E+00 0.00000E+00 0.00000E+00 0.00000E+00 8.52442E-03 3.48219E-03 2.44023E-02
      854  6.35175E-07 9.17335E-07-9.97705E-04 0.00000E+00 0.00000E+00 0.00000E+00 0.00000E+00 0.00000E+00 0.00000E+00 6.51564E-03 6.50732E-03 2.44023E-02
      856  4.31798E-07 9.22030E-07-9.97705E-04 0.00000E+00 0.00000E+00 0.00000E+00 0.00000E+00 0.00000E+00 0.00000E+00 3.48913E-03 8.52192E-03 2.44023E-02
      858  0.00000E+00 1.83039E-06-9.97705E-04 0.00000E+00 0.00000E+00 0.00000E+00 0.00000E+00 0.00000E+00 0.00000E+00 5.63800E-19 9.20933E-03 2.44023E-02
      864  4.78018E-07 1.15736E-06-9.97705E-04 0.00000E+00 0.00000E+00 0.00000E+00 0.00000E+00 0.00000E+00 0.00000E+00 1.01466E-02 4.12926E-03 2.44023E-02
      866  8.68222E-07 8.97313E-07-9.97705E-04 0.00000E+00 0.00000E+00 0.00000E+00 0.00000E+00 0.00000E+00 0.00000E+00 7.75277E-03 7.73990E-03 2.44023E-02
      868  4.19329E-07 9.83861E-07-9.97705E-04 0.00000E+00 0.00000E+00 0.00000E+00 0.00000E+00 0.00000E+00 0.00000E+00 4.14012E-03 1.01424E-02 2.44023E-02
      870  0.00000E+00 2.07380E-06-9.97705E-04 0.00000E+00 0.00000E+00 0.00000E+00 0.00000E+00 0.00000E+00 0.00000E+00 6.70700E-19 1.09559E-02 2.44023E-02
      880  2.92891E-07 9.03729E-07-9.97705E-04 0.00000E+00 0.00000E+00 0.00000E+00 0.00000E+00 0.00000E+00 0.00000E+00 1.17684E-02 4.77610E-03 2.44023E-02
      882  6.74706E-07 8.80887E-07-9.97705E-04 0.00000E+00 0.00000E+00 0.00000E+00 0.00000E+00 0.00000E+00 0.00000E+00 8.98957E-03 8.97248E-03 2.44023E-02
      884  7.11089E-07 1.69138E-06-9.97705E-04 0.00000E+00 0.00000E+00 0.00000E+00 0.00000E+00 0.00000E+00 0.00000E+00 4.79141E-03 1.17635E-02 2.44023E-02
      886  0.00000E+00 2.42361E-06-9.97705E-04 0.00000E+00 0.00000E+00 0.00000E+00 0.00000E+00 0.00000E+00 0.00000E+00 7.77700E-19 1.27024E-02 2.44023E-02



 n o d a l   p r i n t   o u t   f o r   t i m e  s t e p     442                              ( at time 1.0000000E+02 )

 nodal point  x-disp     y-disp      z-disp      x-vel       y-vel       z-vel      x-accl      y-accl      z-accl      x-coor      y-coor      z-coor
        1  1.14811E-03 0.00000E+00 0.00000E+00 0.00000E+00 0.00000E+00 0.00000E+00 0.00000E+00 0.00000E+00 0.00000E+00 4.32311E-03 0.00000E+00-1.78000E-18
        2  8.54197E-04 0.00000E+00 0.00000E+00 0.00000E+00 0.00000E+00 0.00000E+00 0.00000E+00 0.00000E+00 0.00000E+00 3.23550E-03 0.00000E+00 0.00000E+00
        3  5.70677E-04 0.00000E+00 0.00000E+00 0.00000E+00 0.00000E+00 0.00000E+00 0.00000E+00 0.00000E+00 0.00000E+00 2.15818E-03 0.00000E+00 0.00000E+00
        4  2.88546E-04 0.00000E+00 0.00000E+00 0.00000E+00 0.00000E+00 0.00000E+00 0.00000E+00 0.00000E+00 0.00000E+00 1.08230E-03 0.00000E+00 0.00000E+00
        5  0.00000E+00 0.00000E+00 0.00000E+00 0.00000E+00 0.00000E+00 0.00000E+00 0.00000E+00 0.00000E+00 0.00000E+00 0.00000E+00 0.00000E+00 0.00000E+00
        6  0.00000E+00 2.29669E-04 0.00000E+00 0.00000E+00 0.00000E+00 0.00000E+00 0.00000E+00 0.00000E+00 0.00000E+00 4.86000E-20 1.02342E-03 0.00000E+00
        7  0.00000E+00 5.12560E-04 0.00000E+00 0.00000E+00 0.00000E+00 0.00000E+00 0.00000E+00 0.00000E+00 0.00000E+00 9.72100E-20 2.10006E-03 0.00000E+00
        8  0.00000E+00 7.24255E-04 0.00000E+00 0.00000E+00 0.00000E+00 0.00000E+00 0.00000E+00 0.00000E+00 0.00000E+00 1.45800E-19 3.10555E-03 0.00000E+00
        9  0.00000E+00 9.27114E-04 0.00000E+00 0.00000E+00 0.00000E+00 0.00000E+00 0.00000E+00 0.00000E+00 0.00000E+00 1.94400E-19 4.10211E-03 0.00000E+00
       10  4.14833E-04 8.58420E-04 0.00000E+00 0.00000E+00 0.00000E+00 0.00000E+00 0.00000E+00 0.00000E+00 0.00000E+00 1.62983E-03 3.79172E-03 0.00000E+00
       11  6.84064E-04 7.42735E-04 0.00000E+00 0.00000E+00 0.00000E+00 0.00000E+00 0.00000E+00 0.00000E+00 0.00000E+00 2.92916E-03 2.98783E-03 0.00000E+00
       12  9.97485E-04 4.27267E-04 0.00000E+00 0.00000E+00 0.00000E+00 0.00000E+00 0.00000E+00 0.00000E+00 0.00000E+00 3.93078E-03 1.64227E-03 0.00000E+00
       13  5.33284E-04 4.41029E-04 0.00000E+00 0.00000E+00 0.00000E+00 0.00000E+00 0.00000E+00 0.00000E+00 0.00000E+00 1.84158E-03 1.79293E-03 0.00000E+00
       14  5.82402E-04 2.39707E-04 0.00000E+00 0.00000E+00 0.00000E+00 0.00000E+00 0.00000E+00 0.00000E+00 0.00000E+00 2.07070E-03 9.46684E-04 0.00000E+00
       15  2.89213E-04 5.39824E-04 0.00000E+00 0.00000E+00 0.00000E+00 0.00000E+00 0.00000E+00 0.00000E+00 0.00000E+00 9.58723E-04 2.04682E-03 0.00000E+00
       16  3.12267E-04 3.08794E-04 0.00000E+00 0.00000E+00 0.00000E+00 0.00000E+00 0.00000E+00 0.00000E+00 0.00000E+00 1.06590E-03 1.09113E-03 0.00000E+00
       17  6.33462E-04 5.70801E-04 0.00000E+00 0.00000E+00 0.00000E+00 0.00000E+00 0.00000E+00 0.00000E+00 0.00000E+00 2.36976E-03 2.33830E-03 0.00000E+00
       18  3.45558E-04 7.25643E-04 0.00000E+00 0.00000E+00 0.00000E+00 0.00000E+00 0.00000E+00 0.00000E+00 0.00000E+00 1.26569E-03 2.91674E-03 0.00000E+00
       19  7.99191E-04 3.09698E-04 0.00000E+00 0.00000E+00 0.00000E+00 0.00000E+00 0.00000E+00 0.00000E+00 0.00000E+00 2.96249E-03 1.26056E-03 0.00000E+00
      167  3.64904E-07 7.74906E-07-1.00000E-03 0.00000E+00 0.00000E+00 0.00000E+00 0.00000E+00 0.00000E+00 0.00000E+00 3.12506E-03 3.18147E-03 2.44000E-02
      168  3.45953E-07 3.08990E-07-1.00000E-03 0.00000E+00 0.00000E+00 0.00000E+00 0.00000E+00 0.00000E+00 0.00000E+00 2.35465E-03 2.43301E-03 2.44000E-02
      169  1.05406E-07 8.69976E-07-1.00000E-03 0.00000E+00 0.00000E+00 0.00000E+00 0.00000E+00 0.00000E+00 0.00000E+00 2.67811E-03 1.27287E-03 2.44000E-02
      170 -2.17753E-09 7.12185E-07-1.00000E-03 0.00000E+00 0.00000E+00 0.00000E+00 0.00000E+00 0.00000E+00 0.00000E+00 3.89280E-03 1.71161E-03 2.44000E-02
      197  2.62926E-07 7.28542E-07-1.00000E-03 0.00000E+00 0.00000E+00 0.00000E+00 0.00000E+00 0.00000E+00 0.00000E+00 1.20486E-03 2.71233E-03 2.44000E-02
      198  2.02603E-07 5.34501E-07-1.00000E-03 0.00000E+00 0.00000E+00 0.00000E+00 0.00000E+00 0.00000E+00 0.00000E+00 1.65580E-03 3.94333E-03 2.44000E-02
      225  2.60317E-06 0.00000E+00-1.00000E-03 0.00000E+00 0.00000E+00 0.00000E+00 0.00000E+00 0.00000E+00 0.00000E+00 2.86010E-03 0.00000E+00 2.44000E-02
      226  1.12064E-06 0.00000E+00-1.00000E-03 0.00000E+00 0.00000E+00 0.00000E+00 0.00000E+00 0.00000E+00 0.00000E+00 4.28742E-03 0.00000E+00 2.44000E-02
      279  2.66313E-06 0.00000E+00-1.00000E-03 0.00000E+00 0.00000E+00 0.00000E+00 0.00000E+00 0.00000E+00 0.00000E+00 1.43146E-03 0.00000E+00 2.44000E-02
      280  3.92193E-07 2.89401E-07-1.00000E-03 0.00000E+00 0.00000E+00 0.00000E+00 0.00000E+00 0.00000E+00 0.00000E+00 1.35659E-03 1.40809E-03 2.44000E-02
      281  0.00000E+00 1.67065E-06-1.00000E-03 0.00000E+00 0.00000E+00 0.00000E+00 0.00000E+00 0.00000E+00 0.00000E+00 8.74900E-20 1.43047E-03 2.44000E-02
      282  0.00000E+00 0.00000E+00-1.00000E-03 0.00000E+00 0.00000E+00 0.00000E+00 0.00000E+00 0.00000E+00 0.00000E+00 0.00000E+00 0.00000E+00 2.44000E-02
      296  0.00000E+00 1.80510E-06-1.00000E-03 0.00000E+00 0.00000E+00 0.00000E+00 0.00000E+00 0.00000E+00 0.00000E+00 1.75000E-19 2.85931E-03 2.44000E-02
      323  3.65478E-07 7.64390E-07-1.00000E-03 0.00000E+00 0.00000E+00 0.00000E+00 0.00000E+00 0.00000E+00 0.00000E+00 4.04147E-03 4.04196E-03 2.44000E-02
      324  2.51249E-07 7.29919E-07-1.00000E-03 0.00000E+00 0.00000E+00 0.00000E+00 0.00000E+00 0.00000E+00 0.00000E+00 2.18695E-03 5.28083E-03 2.44000E-02
      338  3.57514E-07 9.06047E-07-1.00000E-03 0.00000E+00 0.00000E+00 0.00000E+00 0.00000E+00 0.00000E+00 0.00000E+00 5.28036E-03 2.18781E-03 2.44000E-02
      352  0.00000E+00 1.68970E-06-1.00000E-03 0.00000E+00 0.00000E+00 0.00000E+00 0.00000E+00 0.00000E+00 0.00000E+00 2.62500E-19 4.28799E-03 2.44000E-02
      366  5.27475E-07 0.00000E+00-1.00000E-03 0.00000E+00 0.00000E+00 0.00000E+00 0.00000E+00 0.00000E+00 0.00000E+00 5.71553E-03 0.00000E+00 2.44000E-02
      380  0.00000E+00 1.72137E-06-1.00000E-03 0.00000E+00 0.00000E+00 0.00000E+00 0.00000E+00 0.00000E+00 0.00000E+00 3.49900E-19 5.71672E-03 2.44000E-02
      608 -6.33430E-08 0.00000E+00-1.00000E-03 0.00000E+00 0.00000E+00 0.00000E+00 0.00000E+00 0.00000E+00 0.00000E+00 1.26999E-02 0.00000E+00 2.44000E-02
      609  2.03063E-07 0.00000E+00-1.00000E-03 0.00000E+00 0.00000E+00 0.00000E+00 0.00000E+00 0.00000E+00 0.00000E+00 1.09540E-02 0.00000E+00 2.44000E-02
      610  2.37486E-07 0.00000E+00-1.00000E-03 0.00000E+00 0.00000E+00 0.00000E+00 0.00000E+00 0.00000E+00 0.00000E+00 9.20774E-03 0.00000E+00 2.44000E-02
      611  2.72769E-07 0.00000E+00-1.00000E-03 0.00000E+00 0.00000E+00 0.00000E+00 0.00000E+00 0.00000E+00 0.00000E+00 7.46157E-03 0.00000E+00 2.44000E-02
      804  4.29035E-07 9.36466E-07-1.00000E-03 0.00000E+00 0.00000E+00 0.00000E+00 0.00000E+00 0.00000E+00 0.00000E+00 6.90243E-03 2.83494E-03 2.44000E-02
      806  5.25975E-07 9.10272E-07-1.00000E-03 0.00000E+00 0.00000E+00 0.00000E+00 0.00000E+00 0.00000E+00 0.00000E+00 5.27853E-03 5.27471E-03 2.44000E-02
      808  3.31519E-07 8.95557E-07-1.00000E-03 0.00000E+00 0.00000E+00 0.00000E+00 0.00000E+00 0.00000E+00 0.00000E+00 2.83803E-03 6.90140E-03 2.44000E-02
      810  0.00000E+00 1.78873E-06-1.00000E-03 0.00000E+00 0.00000E+00 0.00000E+00 0.00000E+00 0.00000E+00 0.00000E+00 4.56900E-19 7.46309E-03 2.44000E-02
      852  5.05737E-07 1.01465E-06-1.00000E-03 0.00000E+00 0.00000E+00 0.00000E+00 0.00000E+00 0.00000E+00 0.00000E+00 8.52451E-03 3.48211E-03 2.44000E-02
      854  6.53855E-07 9.28093E-07-1.00000E-03 0.00000E+00 0.00000E+00 0.00000E+00 0.00000E+00 0.00000E+00 0.00000E+00 6.51565E-03 6.50733E-03 2.44000E-02
      856  4.35721E-07 1.02069E-06-1.00000E-03 0.00000E+00 0.00000E+00 0.00000E+00 0.00000E+00 0.00000E+00 0.00000E+00 3.48914E-03 8.52202E-03 2.44000E-02
      858  0.00000E+00 1.96340E-06-1.00000E-03 0.00000E+00 0.00000E+00 0.00000E+00 0.00000E+00 0.00000E+00 0.00000E+00 5.63800E-19 9.20946E-03 2.44000E-02
      864  5.84477E-07 1.08026E-06-1.00000E-03 0.00000E+00 0.00000E+00 0.00000E+00 0.00000E+00 0.00000E+00 0.00000E+00 1.01467E-02 4.12918E-03 2.44000E-02
      866  8.60368E-07 9.48122E-07-1.00000E-03 0.00000E+00 0.00000E+00 0.00000E+00 0.00000E+00 0.00000E+00 0.00000E+00 7.75276E-03 7.73995E-03 2.44000E-02
      868  4.31196E-07 1.13758E-06-1.00000E-03 0.00000E+00 0.00000E+00 0.00000E+00 0.00000E+00 0.00000E+00 0.00000E+00 4.14013E-03 1.01425E-02 2.44000E-02
      870  0.00000E+00 2.21823E-06-1.00000E-03 0.00000E+00 0.00000E+00 0.00000E+00 0.00000E+00 0.00000E+00 0.00000E+00 6.70700E-19 1.09560E-02 2.44000E-02
      880  4.02548E-07 9.18969E-07-1.00000E-03 0.00000E+00 0.00000E+00 0.00000E+00 0.00000E+00 0.00000E+00 0.00000E+00 1.17685E-02 4.77612E-03 2.44000E-02
      882  7.09941E-07 1.05223E-06-1.00000E-03 0.00000E+00 0.00000E+00 0.00000E+00 0.00000E+00 0.00000E+00 0.00000E+00 8.98961E-03 8.97265E-03 2.44000E-02
      884  7.22916E-07 1.72267E-06-1.00000E-03 0.00000E+00 0.00000E+00 0.00000E+00 0.00000E+00 0.00000E+00 0.00000E+00 4.79142E-03 1.17635E-02 2.44000E-02
      886  0.00000E+00 2.41374E-06-1.00000E-03 0.00000E+00 0.00000E+00 0.00000E+00 0.00000E+00 0.00000E+00 0.00000E+00 7.77700E-19 1.27024E-02 2.44000E-02
