 LS-DYNA keyword deck by LS-PrePost                                      
                    ls-dyna smp d R14 R14.1.1s_1_ef50e1 date 06/16/2024
 single point constraint forces

 output at time =   0.00000E+00
 node=     1 local x,y,z forces =    0.0000E+00    0.0000E+00    0.0000E+00  setid=       0
 node=     1 local x,y,z moments=    0.0000E+00    0.0000E+00    0.0000E+00  setid=       0
 node=     2 local x,y,z forces =    0.0000E+00    0.0000E+00    0.0000E+00  setid=       0
 node=     2 local x,y,z moments=    0.0000E+00    0.0000E+00    0.0000E+00  setid=       0
 node=     3 local x,y,z forces =    0.0000E+00    0.0000E+00    0.0000E+00  setid=       0
 node=     3 local x,y,z moments=    0.0000E+00    0.0000E+00    0.0000E+00  setid=       0
 node=     4 local x,y,z forces =    0.0000E+00    0.0000E+00    0.0000E+00  setid=       0
 node=     4 local x,y,z moments=    0.0000E+00    0.0000E+00    0.0000E+00  setid=       0
 node=     5 local x,y,z forces =    0.0000E+00    0.0000E+00    0.0000E+00  setid=       0
 node=     5 local x,y,z moments=    0.0000E+00    0.0000E+00    0.0000E+00  setid=       0
 node=     6 local x,y,z forces =    0.0000E+00    0.0000E+00    0.0000E+00  setid=       0
 node=     6 local x,y,z moments=    0.0000E+00    0.0000E+00    0.0000E+00  setid=       0
 node=     7 local x,y,z forces =    0.0000E+00    0.0000E+00    0.0000E+00  setid=       0
 node=     7 local x,y,z moments=    0.0000E+00    0.0000E+00    0.0000E+00  setid=       0
 node=     8 local x,y,z forces =    0.0000E+00    0.0000E+00    0.0000E+00  setid=       0
 node=     8 local x,y,z moments=    0.0000E+00    0.0000E+00    0.0000E+00  setid=       0
 node=     9 local x,y,z forces =    0.0000E+00    0.0000E+00    0.0000E+00  setid=       0
 node=     9 local x,y,z moments=    0.0000E+00    0.0000E+00    0.0000E+00  setid=       0
 node=    10 local x,y,z forces =    0.0000E+00    0.0000E+00    0.0000E+00  setid=       0
 node=    10 local x,y,z moments=    0.0000E+00    0.0000E+00    0.0000E+00  setid=       0
 node=    11 local x,y,z forces =    0.0000E+00    0.0000E+00    0.0000E+00  setid=       0
 node=    11 local x,y,z moments=    0.0000E+00    0.0000E+00    0.0000E+00  setid=       0
 node=    12 local x,y,z forces =    0.0000E+00    0.0000E+00    0.0000E+00  setid=       0
 node=    12 local x,y,z moments=    0.0000E+00    0.0000E+00    0.0000E+00  setid=       0
 node=    13 local x,y,z forces =    0.0000E+00    0.0000E+00    0.0000E+00  setid=       0
 node=    13 local x,y,z moments=    0.0000E+00    0.0000E+00    0.0000E+00  setid=       0
 node=    14 local x,y,z forces =    0.0000E+00    0.0000E+00    0.0000E+00  setid=       0
 node=    14 local x,y,z moments=    0.0000E+00    0.0000E+00    0.0000E+00  setid=       0
 node=    15 local x,y,z forces =    0.0000E+00    0.0000E+00    0.0000E+00  setid=       0
 node=    15 local x,y,z moments=    0.0000E+00    0.0000E+00    0.0000E+00  setid=       0
 node=    16 local x,y,z forces =    0.0000E+00    0.0000E+00    0.0000E+00  setid=       0
 node=    16 local x,y,z moments=    0.0000E+00    0.0000E+00    0.0000E+00  setid=       0
 node=    17 local x,y,z forces =    0.0000E+00    0.0000E+00    0.0000E+00  setid=       0
 node=    17 local x,y,z moments=    0.0000E+00    0.0000E+00    0.0000E+00  setid=       0
 node=    18 local x,y,z forces =    0.0000E+00    0.0000E+00    0.0000E+00  setid=       0
 node=    18 local x,y,z moments=    0.0000E+00    0.0000E+00    0.0000E+00  setid=       0
 node=    19 local x,y,z forces =    0.0000E+00    0.0000E+00    0.0000E+00  setid=       0
 node=    19 local x,y,z moments=    0.0000E+00    0.0000E+00    0.0000E+00  setid=       0
 node=    51 local x,y,z forces =    0.0000E+00    0.0000E+00    0.0000E+00  setid=       0
 node=    51 local x,y,z moments=    0.0000E+00    0.0000E+00    0.0000E+00  setid=       0
 node=    52 local x,y,z forces =    0.0000E+00    0.0000E+00    0.0000E+00  setid=       0
 node=    52 local x,y,z moments=    0.0000E+00    0.0000E+00    0.0000E+00  setid=       0
 node=    53 local x,y,z forces =    0.0000E+00    0.0000E+00    0.0000E+00  setid=       0
 node=    53 local x,y,z moments=    0.0000E+00    0.0000E+00    0.0000E+00  setid=       0
 node=    55 local x,y,z forces =    0.0000E+00    0.0000E+00    0.0000E+00  setid=       0
 node=    55 local x,y,z moments=    0.0000E+00    0.0000E+00    0.0000E+00  setid=       0
 node=    56 local x,y,z forces =    0.0000E+00    0.0000E+00    0.0000E+00  setid=       0
 node=    56 local x,y,z moments=    0.0000E+00    0.0000E+00    0.0000E+00  setid=       0
 node=    57 local x,y,z forces =    0.0000E+00    0.0000E+00    0.0000E+00  setid=       0
 node=    57 local x,y,z moments=    0.0000E+00    0.0000E+00    0.0000E+00  setid=       0
 node=    59 local x,y,z forces =    0.0000E+00    0.0000E+00    0.0000E+00  setid=       0
 node=    59 local x,y,z moments=    0.0000E+00    0.0000E+00    0.0000E+00  setid=       0
 node=    60 local x,y,z forces =    0.0000E+00    0.0000E+00    0.0000E+00  setid=       0
 node=    60 local x,y,z moments=    0.0000E+00    0.0000E+00    0.0000E+00  setid=       0
 node=    61 local x,y,z forces =    0.0000E+00    0.0000E+00    0.0000E+00  setid=       0
 node=    61 local x,y,z moments=    0.0000E+00    0.0000E+00    0.0000E+00  setid=       0
 node=    63 local x,y,z forces =    0.0000E+00    0.0000E+00    0.0000E+00  setid=       0
 node=    63 local x,y,z moments=    0.0000E+00    0.0000E+00    0.0000E+00  setid=       0
 node=    64 local x,y,z forces =    0.0000E+00    0.0000E+00    0.0000E+00  setid=       0
 node=    64 local x,y,z moments=    0.0000E+00    0.0000E+00    0.0000E+00  setid=       0
 node=    65 local x,y,z forces =    0.0000E+00    0.0000E+00    0.0000E+00  setid=       0
 node=    65 local x,y,z moments=    0.0000E+00    0.0000E+00    0.0000E+00  setid=       0
 node=    67 local x,y,z forces =    0.0000E+00    0.0000E+00    0.0000E+00  setid=       0
 node=    67 local x,y,z moments=    0.0000E+00    0.0000E+00    0.0000E+00  setid=       0
 node=    68 local x,y,z forces =    0.0000E+00    0.0000E+00    0.0000E+00  setid=       0
 node=    68 local x,y,z moments=    0.0000E+00    0.0000E+00    0.0000E+00  setid=       0
 node=    69 local x,y,z forces =    0.0000E+00    0.0000E+00    0.0000E+00  setid=       0
 node=    69 local x,y,z moments=    0.0000E+00    0.0000E+00    0.0000E+00  setid=       0
 node=    85 local x,y,z forces =    0.0000E+00    0.0000E+00    0.0000E+00  setid=       0
 node=    85 local x,y,z moments=    0.0000E+00    0.0000E+00    0.0000E+00  setid=       0
 node=    86 local x,y,z forces =    0.0000E+00    0.0000E+00    0.0000E+00  setid=       0
 node=    86 local x,y,z moments=    0.0000E+00    0.0000E+00    0.0000E+00  setid=       0
 node=    87 local x,y,z forces =    0.0000E+00    0.0000E+00    0.0000E+00  setid=       0
 node=    87 local x,y,z moments=    0.0000E+00    0.0000E+00    0.0000E+00  setid=       0
 node=    88 local x,y,z forces =    0.0000E+00    0.0000E+00    0.0000E+00  setid=       0
 node=    88 local x,y,z moments=    0.0000E+00    0.0000E+00    0.0000E+00  setid=       0
 node=    89 local x,y,z forces =    0.0000E+00    0.0000E+00    0.0000E+00  setid=       0
 node=    89 local x,y,z moments=    0.0000E+00    0.0000E+00    0.0000E+00  setid=       0
 node=    90 local x,y,z forces =    0.0000E+00    0.0000E+00    0.0000E+00  setid=       0
 node=    90 local x,y,z moments=    0.0000E+00    0.0000E+00    0.0000E+00  setid=       0
 node=    91 local x,y,z forces =    0.0000E+00    0.0000E+00    0.0000E+00  setid=       0
 node=    91 local x,y,z moments=    0.0000E+00    0.0000E+00    0.0000E+00  setid=       0
 node=    92 local x,y,z forces =    0.0000E+00    0.0000E+00    0.0000E+00  setid=       0
 node=    92 local x,y,z moments=    0.0000E+00    0.0000E+00    0.0000E+00  setid=       0
 node=    93 local x,y,z forces =    0.0000E+00    0.0000E+00    0.0000E+00  setid=       0
 node=    93 local x,y,z moments=    0.0000E+00    0.0000E+00    0.0000E+00  setid=       0
 node=    94 local x,y,z forces =    0.0000E+00    0.0000E+00    0.0000E+00  setid=       0
 node=    94 local x,y,z moments=    0.0000E+00    0.0000E+00    0.0000E+00  setid=       0
 node=    95 local x,y,z forces =    0.0000E+00    0.0000E+00    0.0000E+00  setid=       0
 node=    95 local x,y,z moments=    0.0000E+00    0.0000E+00    0.0000E+00  setid=       0
 node=    96 local x,y,z forces =    0.0000E+00    0.0000E+00    0.0000E+00  setid=       0
 node=    96 local x,y,z moments=    0.0000E+00    0.0000E+00    0.0000E+00  setid=       0
 node=    97 local x,y,z forces =    0.0000E+00    0.0000E+00    0.0000E+00  setid=       0
 node=    97 local x,y,z moments=    0.0000E+00    0.0000E+00    0.0000E+00  setid=       0
 node=    98 local x,y,z forces =    0.0000E+00    0.0000E+00    0.0000E+00  setid=       0
 node=    98 local x,y,z moments=    0.0000E+00    0.0000E+00    0.0000E+00  setid=       0
 node=    99 local x,y,z forces =    0.0000E+00    0.0000E+00    0.0000E+00  setid=       0
 node=    99 local x,y,z moments=    0.0000E+00    0.0000E+00    0.0000E+00  setid=       0
 node=   100 local x,y,z forces =    0.0000E+00    0.0000E+00    0.0000E+00  setid=       0
 node=   100 local x,y,z moments=    0.0000E+00    0.0000E+00    0.0000E+00  setid=       0
 node=   101 local x,y,z forces =    0.0000E+00    0.0000E+00    0.0000E+00  setid=       0
 node=   101 local x,y,z moments=    0.0000E+00    0.0000E+00    0.0000E+00  setid=       0
 node=   102 local x,y,z forces =    0.0000E+00    0.0000E+00    0.0000E+00  setid=       0
 node=   102 local x,y,z moments=    0.0000E+00    0.0000E+00    0.0000E+00  setid=       0
 node=   103 local x,y,z forces =    0.0000E+00    0.0000E+00    0.0000E+00  setid=       0
 node=   103 local x,y,z moments=    0.0000E+00    0.0000E+00    0.0000E+00  setid=       0
 node=   104 local x,y,z forces =    0.0000E+00    0.0000E+00    0.0000E+00  setid=       0
 node=   104 local x,y,z moments=    0.0000E+00    0.0000E+00    0.0000E+00  setid=       0
 node=   105 local x,y,z forces =    0.0000E+00    0.0000E+00    0.0000E+00  setid=       0
 node=   105 local x,y,z moments=    0.0000E+00    0.0000E+00    0.0000E+00  setid=       0
 node=   106 local x,y,z forces =    0.0000E+00    0.0000E+00    0.0000E+00  setid=       0
 node=   106 local x,y,z moments=    0.0000E+00    0.0000E+00    0.0000E+00  setid=       0
 node=   107 local x,y,z forces =    0.0000E+00    0.0000E+00    0.0000E+00  setid=       0
 node=   107 local x,y,z moments=    0.0000E+00    0.0000E+00    0.0000E+00  setid=       0
 node=   108 local x,y,z forces =    0.0000E+00    0.0000E+00    0.0000E+00  setid=       0
 node=   108 local x,y,z moments=    0.0000E+00    0.0000E+00    0.0000E+00  setid=       0
 node=   109 local x,y,z forces =    0.0000E+00    0.0000E+00    0.0000E+00  setid=       0
 node=   109 local x,y,z moments=    0.0000E+00    0.0000E+00    0.0000E+00  setid=       0
 node=   110 local x,y,z forces =    0.0000E+00    0.0000E+00    0.0000E+00  setid=       0
 node=   110 local x,y,z moments=    0.0000E+00    0.0000E+00    0.0000E+00  setid=       0
 node=   111 local x,y,z forces =    0.0000E+00    0.0000E+00    0.0000E+00  setid=       0
 node=   111 local x,y,z moments=    0.0000E+00    0.0000E+00    0.0000E+00  setid=       0
 node=   112 local x,y,z forces =    0.0000E+00    0.0000E+00    0.0000E+00  setid=       0
 node=   112 local x,y,z moments=    0.0000E+00    0.0000E+00    0.0000E+00  setid=       0
 node=   113 local x,y,z forces =    0.0000E+00    0.0000E+00    0.0000E+00  setid=       0
 node=   113 local x,y,z moments=    0.0000E+00    0.0000E+00    0.0000E+00  setid=       0
 node=   114 local x,y,z forces =    0.0000E+00    0.0000E+00    0.0000E+00  setid=       0
 node=   114 local x,y,z moments=    0.0000E+00    0.0000E+00    0.0000E+00  setid=       0
 node=   199 local x,y,z forces =    0.0000E+00    0.0000E+00    0.0000E+00  setid=       0
 node=   199 local x,y,z moments=    0.0000E+00    0.0000E+00    0.0000E+00  setid=       0
 node=   200 local x,y,z forces =    0.0000E+00    0.0000E+00    0.0000E+00  setid=       0
 node=   200 local x,y,z moments=    0.0000E+00    0.0000E+00    0.0000E+00  setid=       0
 node=   201 local x,y,z forces =    0.0000E+00    0.0000E+00    0.0000E+00  setid=       0
 node=   201 local x,y,z moments=    0.0000E+00    0.0000E+00    0.0000E+00  setid=       0
 node=   202 local x,y,z forces =    0.0000E+00    0.0000E+00    0.0000E+00  setid=       0
 node=   202 local x,y,z moments=    0.0000E+00    0.0000E+00    0.0000E+00  setid=       0
 node=   203 local x,y,z forces =    0.0000E+00    0.0000E+00    0.0000E+00  setid=       0
 node=   203 local x,y,z moments=    0.0000E+00    0.0000E+00    0.0000E+00  setid=       0
 node=   204 local x,y,z forces =    0.0000E+00    0.0000E+00    0.0000E+00  setid=       0
 node=   204 local x,y,z moments=    0.0000E+00    0.0000E+00    0.0000E+00  setid=       0
 node=   205 local x,y,z forces =    0.0000E+00    0.0000E+00    0.0000E+00  setid=       0
 node=   205 local x,y,z moments=    0.0000E+00    0.0000E+00    0.0000E+00  setid=       0
 node=   206 local x,y,z forces =    0.0000E+00    0.0000E+00    0.0000E+00  setid=       0
 node=   206 local x,y,z moments=    0.0000E+00    0.0000E+00    0.0000E+00  setid=       0
 node=   207 local x,y,z forces =    0.0000E+00    0.0000E+00    0.0000E+00  setid=       0
 node=   207 local x,y,z moments=    0.0000E+00    0.0000E+00    0.0000E+00  setid=       0
 node=   208 local x,y,z forces =    0.0000E+00    0.0000E+00    0.0000E+00  setid=       0
 node=   208 local x,y,z moments=    0.0000E+00    0.0000E+00    0.0000E+00  setid=       0
 node=   209 local x,y,z forces =    0.0000E+00    0.0000E+00    0.0000E+00  setid=       0
 node=   209 local x,y,z moments=    0.0000E+00    0.0000E+00    0.0000E+00  setid=       0
 node=   210 local x,y,z forces =    0.0000E+00    0.0000E+00    0.0000E+00  setid=       0
 node=   210 local x,y,z moments=    0.0000E+00    0.0000E+00    0.0000E+00  setid=       0
 node=   211 local x,y,z forces =    0.0000E+00    0.0000E+00    0.0000E+00  setid=       0
 node=   211 local x,y,z moments=    0.0000E+00    0.0000E+00    0.0000E+00  setid=       0
 node=   212 local x,y,z forces =    0.0000E+00    0.0000E+00    0.0000E+00  setid=       0
 node=   212 local x,y,z moments=    0.0000E+00    0.0000E+00    0.0000E+00  setid=       0
 node=   213 local x,y,z forces =    0.0000E+00    0.0000E+00    0.0000E+00  setid=       0
 node=   213 local x,y,z moments=    0.0000E+00    0.0000E+00    0.0000E+00  setid=       0
 node=   214 local x,y,z forces =    0.0000E+00    0.0000E+00    0.0000E+00  setid=       0
 node=   214 local x,y,z moments=    0.0000E+00    0.0000E+00    0.0000E+00  setid=       0
 node=   215 local x,y,z forces =    0.0000E+00    0.0000E+00    0.0000E+00  setid=       0
 node=   215 local x,y,z moments=    0.0000E+00    0.0000E+00    0.0000E+00  setid=       0
 node=   216 local x,y,z forces =    0.0000E+00    0.0000E+00    0.0000E+00  setid=       0
 node=   216 local x,y,z moments=    0.0000E+00    0.0000E+00    0.0000E+00  setid=       0
 node=   217 local x,y,z forces =    0.0000E+00    0.0000E+00    0.0000E+00  setid=       0
 node=   217 local x,y,z moments=    0.0000E+00    0.0000E+00    0.0000E+00  setid=       0
 node=   218 local x,y,z forces =    0.0000E+00    0.0000E+00    0.0000E+00  setid=       0
 node=   218 local x,y,z moments=    0.0000E+00    0.0000E+00    0.0000E+00  setid=       0
 node=   219 local x,y,z forces =    0.0000E+00    0.0000E+00    0.0000E+00  setid=       0
 node=   219 local x,y,z moments=    0.0000E+00    0.0000E+00    0.0000E+00  setid=       0
 node=   220 local x,y,z forces =    0.0000E+00    0.0000E+00    0.0000E+00  setid=       0
 node=   220 local x,y,z moments=    0.0000E+00    0.0000E+00    0.0000E+00  setid=       0
 node=   221 local x,y,z forces =    0.0000E+00    0.0000E+00    0.0000E+00  setid=       0
 node=   221 local x,y,z moments=    0.0000E+00    0.0000E+00    0.0000E+00  setid=       0
 node=   222 local x,y,z forces =    0.0000E+00    0.0000E+00    0.0000E+00  setid=       0
 node=   222 local x,y,z moments=    0.0000E+00    0.0000E+00    0.0000E+00  setid=       0
 node=   223 local x,y,z forces =    0.0000E+00    0.0000E+00    0.0000E+00  setid=       0
 node=   223 local x,y,z moments=    0.0000E+00    0.0000E+00    0.0000E+00  setid=       0
 node=   224 local x,y,z forces =    0.0000E+00    0.0000E+00    0.0000E+00  setid=       0
 node=   224 local x,y,z moments=    0.0000E+00    0.0000E+00    0.0000E+00  setid=       0
 node=   225 local x,y,z forces =    0.0000E+00    0.0000E+00    0.0000E+00  setid=       0
 node=   225 local x,y,z moments=    0.0000E+00    0.0000E+00    0.0000E+00  setid=       0
 node=   226 local x,y,z forces =    0.0000E+00    0.0000E+00    0.0000E+00  setid=       0
 node=   226 local x,y,z moments=    0.0000E+00    0.0000E+00    0.0000E+00  setid=       0
 node=   227 local x,y,z forces =    0.0000E+00    0.0000E+00    0.0000E+00  setid=       0
 node=   227 local x,y,z moments=    0.0000E+00    0.0000E+00    0.0000E+00  setid=       0
 node=   229 local x,y,z forces =    0.0000E+00    0.0000E+00    0.0000E+00  setid=       0
 node=   229 local x,y,z moments=    0.0000E+00    0.0000E+00    0.0000E+00  setid=       0
 node=   230 local x,y,z forces =    0.0000E+00    0.0000E+00    0.0000E+00  setid=       0
 node=   230 local x,y,z moments=    0.0000E+00    0.0000E+00    0.0000E+00  setid=       0
 node=   231 local x,y,z forces =    0.0000E+00    0.0000E+00    0.0000E+00  setid=       0
 node=   231 local x,y,z moments=    0.0000E+00    0.0000E+00    0.0000E+00  setid=       0
 node=   233 local x,y,z forces =    0.0000E+00    0.0000E+00    0.0000E+00  setid=       0
 node=   233 local x,y,z moments=    0.0000E+00    0.0000E+00    0.0000E+00  setid=       0
 node=   234 local x,y,z forces =    0.0000E+00    0.0000E+00    0.0000E+00  setid=       0
 node=   234 local x,y,z moments=    0.0000E+00    0.0000E+00    0.0000E+00  setid=       0
 node=   235 local x,y,z forces =    0.0000E+00    0.0000E+00    0.0000E+00  setid=       0
 node=   235 local x,y,z moments=    0.0000E+00    0.0000E+00    0.0000E+00  setid=       0
 node=   237 local x,y,z forces =    0.0000E+00    0.0000E+00    0.0000E+00  setid=       0
 node=   237 local x,y,z moments=    0.0000E+00    0.0000E+00    0.0000E+00  setid=       0
 node=   238 local x,y,z forces =    0.0000E+00    0.0000E+00    0.0000E+00  setid=       0
 node=   238 local x,y,z moments=    0.0000E+00    0.0000E+00    0.0000E+00  setid=       0
 node=   239 local x,y,z forces =    0.0000E+00    0.0000E+00    0.0000E+00  setid=       0
 node=   239 local x,y,z moments=    0.0000E+00    0.0000E+00    0.0000E+00  setid=       0
 node=   241 local x,y,z forces =    0.0000E+00    0.0000E+00    0.0000E+00  setid=       0
 node=   241 local x,y,z moments=    0.0000E+00    0.0000E+00    0.0000E+00  setid=       0
 node=   242 local x,y,z forces =    0.0000E+00    0.0000E+00    0.0000E+00  setid=       0
 node=   242 local x,y,z moments=    0.0000E+00    0.0000E+00    0.0000E+00  setid=       0
 node=   243 local x,y,z forces =    0.0000E+00    0.0000E+00    0.0000E+00  setid=       0
 node=   243 local x,y,z moments=    0.0000E+00    0.0000E+00    0.0000E+00  setid=       0
 node=   245 local x,y,z forces =    0.0000E+00    0.0000E+00    0.0000E+00  setid=       0
 node=   245 local x,y,z moments=    0.0000E+00    0.0000E+00    0.0000E+00  setid=       0
 node=   246 local x,y,z forces =    0.0000E+00    0.0000E+00    0.0000E+00  setid=       0
 node=   246 local x,y,z moments=    0.0000E+00    0.0000E+00    0.0000E+00  setid=       0
 node=   247 local x,y,z forces =    0.0000E+00    0.0000E+00    0.0000E+00  setid=       0
 node=   247 local x,y,z moments=    0.0000E+00    0.0000E+00    0.0000E+00  setid=       0
 node=   249 local x,y,z forces =    0.0000E+00    0.0000E+00    0.0000E+00  setid=       0
 node=   249 local x,y,z moments=    0.0000E+00    0.0000E+00    0.0000E+00  setid=       0
 node=   250 local x,y,z forces =    0.0000E+00    0.0000E+00    0.0000E+00  setid=       0
 node=   250 local x,y,z moments=    0.0000E+00    0.0000E+00    0.0000E+00  setid=       0
 node=   251 local x,y,z forces =    0.0000E+00    0.0000E+00    0.0000E+00  setid=       0
 node=   251 local x,y,z moments=    0.0000E+00    0.0000E+00    0.0000E+00  setid=       0
 node=   253 local x,y,z forces =    0.0000E+00    0.0000E+00    0.0000E+00  setid=       0
 node=   253 local x,y,z moments=    0.0000E+00    0.0000E+00    0.0000E+00  setid=       0
 node=   254 local x,y,z forces =    0.0000E+00    0.0000E+00    0.0000E+00  setid=       0
 node=   254 local x,y,z moments=    0.0000E+00    0.0000E+00    0.0000E+00  setid=       0
 node=   255 local x,y,z forces =    0.0000E+00    0.0000E+00    0.0000E+00  setid=       0
 node=   255 local x,y,z moments=    0.0000E+00    0.0000E+00    0.0000E+00  setid=       0
 node=   257 local x,y,z forces =    0.0000E+00    0.0000E+00    0.0000E+00  setid=       0
 node=   257 local x,y,z moments=    0.0000E+00    0.0000E+00    0.0000E+00  setid=       0
 node=   258 local x,y,z forces =    0.0000E+00    0.0000E+00    0.0000E+00  setid=       0
 node=   258 local x,y,z moments=    0.0000E+00    0.0000E+00    0.0000E+00  setid=       0
 node=   259 local x,y,z forces =    0.0000E+00    0.0000E+00    0.0000E+00  setid=       0
 node=   259 local x,y,z moments=    0.0000E+00    0.0000E+00    0.0000E+00  setid=       0
 node=   261 local x,y,z forces =    0.0000E+00    0.0000E+00    0.0000E+00  setid=       0
 node=   261 local x,y,z moments=    0.0000E+00    0.0000E+00    0.0000E+00  setid=       0
 node=   262 local x,y,z forces =    0.0000E+00    0.0000E+00    0.0000E+00  setid=       0
 node=   262 local x,y,z moments=    0.0000E+00    0.0000E+00    0.0000E+00  setid=       0
 node=   263 local x,y,z forces =    0.0000E+00    0.0000E+00    0.0000E+00  setid=       0
 node=   263 local x,y,z moments=    0.0000E+00    0.0000E+00    0.0000E+00  setid=       0
 node=   265 local x,y,z forces =    0.0000E+00    0.0000E+00    0.0000E+00  setid=       0
 node=   265 local x,y,z moments=    0.0000E+00    0.0000E+00    0.0000E+00  setid=       0
 node=   266 local x,y,z forces =    0.0000E+00    0.0000E+00    0.0000E+00  setid=       0
 node=   266 local x,y,z moments=    0.0000E+00    0.0000E+00    0.0000E+00  setid=       0
 node=   267 local x,y,z forces =    0.0000E+00    0.0000E+00    0.0000E+00  setid=       0
 node=   267 local x,y,z moments=    0.0000E+00    0.0000E+00    0.0000E+00  setid=       0
 node=   269 local x,y,z forces =    0.0000E+00    0.0000E+00    0.0000E+00  setid=       0
 node=   269 local x,y,z moments=    0.0000E+00    0.0000E+00    0.0000E+00  setid=       0
 node=   270 local x,y,z forces =    0.0000E+00    0.0000E+00    0.0000E+00  setid=       0
 node=   270 local x,y,z moments=    0.0000E+00    0.0000E+00    0.0000E+00  setid=       0
 node=   271 local x,y,z forces =    0.0000E+00    0.0000E+00    0.0000E+00  setid=       0
 node=   271 local x,y,z moments=    0.0000E+00    0.0000E+00    0.0000E+00  setid=       0
 node=   273 local x,y,z forces =    0.0000E+00    0.0000E+00    0.0000E+00  setid=       0
 node=   273 local x,y,z moments=    0.0000E+00    0.0000E+00    0.0000E+00  setid=       0
 node=   274 local x,y,z forces =    0.0000E+00    0.0000E+00    0.0000E+00  setid=       0
 node=   274 local x,y,z moments=    0.0000E+00    0.0000E+00    0.0000E+00  setid=       0
 node=   275 local x,y,z forces =    0.0000E+00    0.0000E+00    0.0000E+00  setid=       0
 node=   275 local x,y,z moments=    0.0000E+00    0.0000E+00    0.0000E+00  setid=       0
 node=   277 local x,y,z forces =    0.0000E+00    0.0000E+00    0.0000E+00  setid=       0
 node=   277 local x,y,z moments=    0.0000E+00    0.0000E+00    0.0000E+00  setid=       0
 node=   278 local x,y,z forces =    0.0000E+00    0.0000E+00    0.0000E+00  setid=       0
 node=   278 local x,y,z moments=    0.0000E+00    0.0000E+00    0.0000E+00  setid=       0
 node=   279 local x,y,z forces =    0.0000E+00    0.0000E+00    0.0000E+00  setid=       0
 node=   279 local x,y,z moments=    0.0000E+00    0.0000E+00    0.0000E+00  setid=       0
 node=   281 local x,y,z forces =    0.0000E+00    0.0000E+00    0.0000E+00  setid=       0
 node=   281 local x,y,z moments=    0.0000E+00    0.0000E+00    0.0000E+00  setid=       0
 node=   282 local x,y,z forces =    0.0000E+00    0.0000E+00    0.0000E+00  setid=       0
 node=   282 local x,y,z moments=    0.0000E+00    0.0000E+00    0.0000E+00  setid=       0
 node=   283 local x,y,z forces =    0.0000E+00    0.0000E+00    0.0000E+00  setid=       0
 node=   283 local x,y,z moments=    0.0000E+00    0.0000E+00    0.0000E+00  setid=       0
 node=   284 local x,y,z forces =    0.0000E+00    0.0000E+00    0.0000E+00  setid=       0
 node=   284 local x,y,z moments=    0.0000E+00    0.0000E+00    0.0000E+00  setid=       0
 node=   285 local x,y,z forces =    0.0000E+00    0.0000E+00    0.0000E+00  setid=       0
 node=   285 local x,y,z moments=    0.0000E+00    0.0000E+00    0.0000E+00  setid=       0
 node=   286 local x,y,z forces =    0.0000E+00    0.0000E+00    0.0000E+00  setid=       0
 node=   286 local x,y,z moments=    0.0000E+00    0.0000E+00    0.0000E+00  setid=       0
 node=   287 local x,y,z forces =    0.0000E+00    0.0000E+00    0.0000E+00  setid=       0
 node=   287 local x,y,z moments=    0.0000E+00    0.0000E+00    0.0000E+00  setid=       0
 node=   288 local x,y,z forces =    0.0000E+00    0.0000E+00    0.0000E+00  setid=       0
 node=   288 local x,y,z moments=    0.0000E+00    0.0000E+00    0.0000E+00  setid=       0
 node=   289 local x,y,z forces =    0.0000E+00    0.0000E+00    0.0000E+00  setid=       0
 node=   289 local x,y,z moments=    0.0000E+00    0.0000E+00    0.0000E+00  setid=       0
 node=   290 local x,y,z forces =    0.0000E+00    0.0000E+00    0.0000E+00  setid=       0
 node=   290 local x,y,z moments=    0.0000E+00    0.0000E+00    0.0000E+00  setid=       0
 node=   291 local x,y,z forces =    0.0000E+00    0.0000E+00    0.0000E+00  setid=       0
 node=   291 local x,y,z moments=    0.0000E+00    0.0000E+00    0.0000E+00  setid=       0
 node=   292 local x,y,z forces =    0.0000E+00    0.0000E+00    0.0000E+00  setid=       0
 node=   292 local x,y,z moments=    0.0000E+00    0.0000E+00    0.0000E+00  setid=       0
 node=   293 local x,y,z forces =    0.0000E+00    0.0000E+00    0.0000E+00  setid=       0
 node=   293 local x,y,z moments=    0.0000E+00    0.0000E+00    0.0000E+00  setid=       0
 node=   294 local x,y,z forces =    0.0000E+00    0.0000E+00    0.0000E+00  setid=       0
 node=   294 local x,y,z moments=    0.0000E+00    0.0000E+00    0.0000E+00  setid=       0
 node=   295 local x,y,z forces =    0.0000E+00    0.0000E+00    0.0000E+00  setid=       0
 node=   295 local x,y,z moments=    0.0000E+00    0.0000E+00    0.0000E+00  setid=       0
 node=   296 local x,y,z forces =    0.0000E+00    0.0000E+00    0.0000E+00  setid=       0
 node=   296 local x,y,z moments=    0.0000E+00    0.0000E+00    0.0000E+00  setid=       0
 node=   339 local x,y,z forces =    0.0000E+00    0.0000E+00    0.0000E+00  setid=       0
 node=   339 local x,y,z moments=    0.0000E+00    0.0000E+00    0.0000E+00  setid=       0
 node=   340 local x,y,z forces =    0.0000E+00    0.0000E+00    0.0000E+00  setid=       0
 node=   340 local x,y,z moments=    0.0000E+00    0.0000E+00    0.0000E+00  setid=       0
 node=   341 local x,y,z forces =    0.0000E+00    0.0000E+00    0.0000E+00  setid=       0
 node=   341 local x,y,z moments=    0.0000E+00    0.0000E+00    0.0000E+00  setid=       0
 node=   342 local x,y,z forces =    0.0000E+00    0.0000E+00    0.0000E+00  setid=       0
 node=   342 local x,y,z moments=    0.0000E+00    0.0000E+00    0.0000E+00  setid=       0
 node=   343 local x,y,z forces =    0.0000E+00    0.0000E+00    0.0000E+00  setid=       0
 node=   343 local x,y,z moments=    0.0000E+00    0.0000E+00    0.0000E+00  setid=       0
 node=   344 local x,y,z forces =    0.0000E+00    0.0000E+00    0.0000E+00  setid=       0
 node=   344 local x,y,z moments=    0.0000E+00    0.0000E+00    0.0000E+00  setid=       0
 node=   345 local x,y,z forces =    0.0000E+00    0.0000E+00    0.0000E+00  setid=       0
 node=   345 local x,y,z moments=    0.0000E+00    0.0000E+00    0.0000E+00  setid=       0
 node=   346 local x,y,z forces =    0.0000E+00    0.0000E+00    0.0000E+00  setid=       0
 node=   346 local x,y,z moments=    0.0000E+00    0.0000E+00    0.0000E+00  setid=       0
 node=   347 local x,y,z forces =    0.0000E+00    0.0000E+00    0.0000E+00  setid=       0
 node=   347 local x,y,z moments=    0.0000E+00    0.0000E+00    0.0000E+00  setid=       0
 node=   348 local x,y,z forces =    0.0000E+00    0.0000E+00    0.0000E+00  setid=       0
 node=   348 local x,y,z moments=    0.0000E+00    0.0000E+00    0.0000E+00  setid=       0
 node=   349 local x,y,z forces =    0.0000E+00    0.0000E+00    0.0000E+00  setid=       0
 node=   349 local x,y,z moments=    0.0000E+00    0.0000E+00    0.0000E+00  setid=       0
 node=   350 local x,y,z forces =    0.0000E+00    0.0000E+00    0.0000E+00  setid=       0
 node=   350 local x,y,z moments=    0.0000E+00    0.0000E+00    0.0000E+00  setid=       0
 node=   351 local x,y,z forces =    0.0000E+00    0.0000E+00    0.0000E+00  setid=       0
 node=   351 local x,y,z moments=    0.0000E+00    0.0000E+00    0.0000E+00  setid=       0
 node=   352 local x,y,z forces =    0.0000E+00    0.0000E+00    0.0000E+00  setid=       0
 node=   352 local x,y,z moments=    0.0000E+00    0.0000E+00    0.0000E+00  setid=       0
 node=   353 local x,y,z forces =    0.0000E+00    0.0000E+00    0.0000E+00  setid=       0
 node=   353 local x,y,z moments=    0.0000E+00    0.0000E+00    0.0000E+00  setid=       0
 node=   354 local x,y,z forces =    0.0000E+00    0.0000E+00    0.0000E+00  setid=       0
 node=   354 local x,y,z moments=    0.0000E+00    0.0000E+00    0.0000E+00  setid=       0
 node=   355 local x,y,z forces =    0.0000E+00    0.0000E+00    0.0000E+00  setid=       0
 node=   355 local x,y,z moments=    0.0000E+00    0.0000E+00    0.0000E+00  setid=       0
 node=   356 local x,y,z forces =    0.0000E+00    0.0000E+00    0.0000E+00  setid=       0
 node=   356 local x,y,z moments=    0.0000E+00    0.0000E+00    0.0000E+00  setid=       0
 node=   357 local x,y,z forces =    0.0000E+00    0.0000E+00    0.0000E+00  setid=       0
 node=   357 local x,y,z moments=    0.0000E+00    0.0000E+00    0.0000E+00  setid=       0
 node=   358 local x,y,z forces =    0.0000E+00    0.0000E+00    0.0000E+00  setid=       0
 node=   358 local x,y,z moments=    0.0000E+00    0.0000E+00    0.0000E+00  setid=       0
 node=   359 local x,y,z forces =    0.0000E+00    0.0000E+00    0.0000E+00  setid=       0
 node=   359 local x,y,z moments=    0.0000E+00    0.0000E+00    0.0000E+00  setid=       0
 node=   360 local x,y,z forces =    0.0000E+00    0.0000E+00    0.0000E+00  setid=       0
 node=   360 local x,y,z moments=    0.0000E+00    0.0000E+00    0.0000E+00  setid=       0
 node=   361 local x,y,z forces =    0.0000E+00    0.0000E+00    0.0000E+00  setid=       0
 node=   361 local x,y,z moments=    0.0000E+00    0.0000E+00    0.0000E+00  setid=       0
 node=   362 local x,y,z forces =    0.0000E+00    0.0000E+00    0.0000E+00  setid=       0
 node=   362 local x,y,z moments=    0.0000E+00    0.0000E+00    0.0000E+00  setid=       0
 node=   363 local x,y,z forces =    0.0000E+00    0.0000E+00    0.0000E+00  setid=       0
 node=   363 local x,y,z moments=    0.0000E+00    0.0000E+00    0.0000E+00  setid=       0
 node=   364 local x,y,z forces =    0.0000E+00    0.0000E+00    0.0000E+00  setid=       0
 node=   364 local x,y,z moments=    0.0000E+00    0.0000E+00    0.0000E+00  setid=       0
 node=   365 local x,y,z forces =    0.0000E+00    0.0000E+00    0.0000E+00  setid=       0
 node=   365 local x,y,z moments=    0.0000E+00    0.0000E+00    0.0000E+00  setid=       0
 node=   366 local x,y,z forces =    0.0000E+00    0.0000E+00    0.0000E+00  setid=       0
 node=   366 local x,y,z moments=    0.0000E+00    0.0000E+00    0.0000E+00  setid=       0
 node=   367 local x,y,z forces =    0.0000E+00    0.0000E+00    0.0000E+00  setid=       0
 node=   367 local x,y,z moments=    0.0000E+00    0.0000E+00    0.0000E+00  setid=       0
 node=   368 local x,y,z forces =    0.0000E+00    0.0000E+00    0.0000E+00  setid=       0
 node=   368 local x,y,z moments=    0.0000E+00    0.0000E+00    0.0000E+00  setid=       0
 node=   369 local x,y,z forces =    0.0000E+00    0.0000E+00    0.0000E+00  setid=       0
 node=   369 local x,y,z moments=    0.0000E+00    0.0000E+00    0.0000E+00  setid=       0
 node=   370 local x,y,z forces =    0.0000E+00    0.0000E+00    0.0000E+00  setid=       0
 node=   370 local x,y,z moments=    0.0000E+00    0.0000E+00    0.0000E+00  setid=       0
 node=   371 local x,y,z forces =    0.0000E+00    0.0000E+00    0.0000E+00  setid=       0
 node=   371 local x,y,z moments=    0.0000E+00    0.0000E+00    0.0000E+00  setid=       0
 node=   372 local x,y,z forces =    0.0000E+00    0.0000E+00    0.0000E+00  setid=       0
 node=   372 local x,y,z moments=    0.0000E+00    0.0000E+00    0.0000E+00  setid=       0
 node=   373 local x,y,z forces =    0.0000E+00    0.0000E+00    0.0000E+00  setid=       0
 node=   373 local x,y,z moments=    0.0000E+00    0.0000E+00    0.0000E+00  setid=       0
 node=   374 local x,y,z forces =    0.0000E+00    0.0000E+00    0.0000E+00  setid=       0
 node=   374 local x,y,z moments=    0.0000E+00    0.0000E+00    0.0000E+00  setid=       0
 node=   375 local x,y,z forces =    0.0000E+00    0.0000E+00    0.0000E+00  setid=       0
 node=   375 local x,y,z moments=    0.0000E+00    0.0000E+00    0.0000E+00  setid=       0
 node=   376 local x,y,z forces =    0.0000E+00    0.0000E+00    0.0000E+00  setid=       0
 node=   376 local x,y,z moments=    0.0000E+00    0.0000E+00    0.0000E+00  setid=       0
 node=   377 local x,y,z forces =    0.0000E+00    0.0000E+00    0.0000E+00  setid=       0
 node=   377 local x,y,z moments=    0.0000E+00    0.0000E+00    0.0000E+00  setid=       0
 node=   378 local x,y,z forces =    0.0000E+00    0.0000E+00    0.0000E+00  setid=       0
 node=   378 local x,y,z moments=    0.0000E+00    0.0000E+00    0.0000E+00  setid=       0
 node=   379 local x,y,z forces =    0.0000E+00    0.0000E+00    0.0000E+00  setid=       0
 node=   379 local x,y,z moments=    0.0000E+00    0.0000E+00    0.0000E+00  setid=       0
 node=   380 local x,y,z forces =    0.0000E+00    0.0000E+00    0.0000E+00  setid=       0
 node=   380 local x,y,z moments=    0.0000E+00    0.0000E+00    0.0000E+00  setid=       0
 node=   591 local x,y,z forces =    0.0000E+00    0.0000E+00    0.0000E+00  setid=       0
 node=   591 local x,y,z moments=    0.0000E+00    0.0000E+00    0.0000E+00  setid=       0
 node=   592 local x,y,z forces =    0.0000E+00    0.0000E+00    0.0000E+00  setid=       0
 node=   592 local x,y,z moments=    0.0000E+00    0.0000E+00    0.0000E+00  setid=       0
 node=   593 local x,y,z forces =    0.0000E+00    0.0000E+00    0.0000E+00  setid=       0
 node=   593 local x,y,z moments=    0.0000E+00    0.0000E+00    0.0000E+00  setid=       0
 node=   594 local x,y,z forces =    0.0000E+00    0.0000E+00    0.0000E+00  setid=       0
 node=   594 local x,y,z moments=    0.0000E+00    0.0000E+00    0.0000E+00  setid=       0
 node=   595 local x,y,z forces =    0.0000E+00    0.0000E+00    0.0000E+00  setid=       0
 node=   595 local x,y,z moments=    0.0000E+00    0.0000E+00    0.0000E+00  setid=       0
 node=   596 local x,y,z forces =    0.0000E+00    0.0000E+00    0.0000E+00  setid=       0
 node=   596 local x,y,z moments=    0.0000E+00    0.0000E+00    0.0000E+00  setid=       0
 node=   597 local x,y,z forces =    0.0000E+00    0.0000E+00    0.0000E+00  setid=       0
 node=   597 local x,y,z moments=    0.0000E+00    0.0000E+00    0.0000E+00  setid=       0
 node=   598 local x,y,z forces =    0.0000E+00    0.0000E+00    0.0000E+00  setid=       0
 node=   598 local x,y,z moments=    0.0000E+00    0.0000E+00    0.0000E+00  setid=       0
 node=   599 local x,y,z forces =    0.0000E+00    0.0000E+00    0.0000E+00  setid=       0
 node=   599 local x,y,z moments=    0.0000E+00    0.0000E+00    0.0000E+00  setid=       0
 node=   600 local x,y,z forces =    0.0000E+00    0.0000E+00    0.0000E+00  setid=       0
 node=   600 local x,y,z moments=    0.0000E+00    0.0000E+00    0.0000E+00  setid=       0
 node=   601 local x,y,z forces =    0.0000E+00    0.0000E+00    0.0000E+00  setid=       0
 node=   601 local x,y,z moments=    0.0000E+00    0.0000E+00    0.0000E+00  setid=       0
 node=   602 local x,y,z forces =    0.0000E+00    0.0000E+00    0.0000E+00  setid=       0
 node=   602 local x,y,z moments=    0.0000E+00    0.0000E+00    0.0000E+00  setid=       0
 node=   603 local x,y,z forces =    0.0000E+00    0.0000E+00    0.0000E+00  setid=       0
 node=   603 local x,y,z moments=    0.0000E+00    0.0000E+00    0.0000E+00  setid=       0
 node=   604 local x,y,z forces =    0.0000E+00    0.0000E+00    0.0000E+00  setid=       0
 node=   604 local x,y,z moments=    0.0000E+00    0.0000E+00    0.0000E+00  setid=       0
 node=   605 local x,y,z forces =    0.0000E+00    0.0000E+00    0.0000E+00  setid=       0
 node=   605 local x,y,z moments=    0.0000E+00    0.0000E+00    0.0000E+00  setid=       0
 node=   606 local x,y,z forces =    0.0000E+00    0.0000E+00    0.0000E+00  setid=       0
 node=   606 local x,y,z moments=    0.0000E+00    0.0000E+00    0.0000E+00  setid=       0
 node=   607 local x,y,z forces =    0.0000E+00    0.0000E+00    0.0000E+00  setid=       0
 node=   607 local x,y,z moments=    0.0000E+00    0.0000E+00    0.0000E+00  setid=       0
 node=   608 local x,y,z forces =    0.0000E+00    0.0000E+00    0.0000E+00  setid=       0
 node=   608 local x,y,z moments=    0.0000E+00    0.0000E+00    0.0000E+00  setid=       0
 node=   609 local x,y,z forces =    0.0000E+00    0.0000E+00    0.0000E+00  setid=       0
 node=   609 local x,y,z moments=    0.0000E+00    0.0000E+00    0.0000E+00  setid=       0
 node=   610 local x,y,z forces =    0.0000E+00    0.0000E+00    0.0000E+00  setid=       0
 node=   610 local x,y,z moments=    0.0000E+00    0.0000E+00    0.0000E+00  setid=       0
 node=   611 local x,y,z forces =    0.0000E+00    0.0000E+00    0.0000E+00  setid=       0
 node=   611 local x,y,z moments=    0.0000E+00    0.0000E+00    0.0000E+00  setid=       0
 node=   612 local x,y,z forces =    0.0000E+00    0.0000E+00    0.0000E+00  setid=       0
 node=   612 local x,y,z moments=    0.0000E+00    0.0000E+00    0.0000E+00  setid=       0
 node=   613 local x,y,z forces =    0.0000E+00    0.0000E+00    0.0000E+00  setid=       0
 node=   613 local x,y,z moments=    0.0000E+00    0.0000E+00    0.0000E+00  setid=       0
 node=   614 local x,y,z forces =    0.0000E+00    0.0000E+00    0.0000E+00  setid=       0
 node=   614 local x,y,z moments=    0.0000E+00    0.0000E+00    0.0000E+00  setid=       0
 node=   615 local x,y,z forces =    0.0000E+00    0.0000E+00    0.0000E+00  setid=       0
 node=   615 local x,y,z moments=    0.0000E+00    0.0000E+00    0.0000E+00  setid=       0
 node=   616 local x,y,z forces =    0.0000E+00    0.0000E+00    0.0000E+00  setid=       0
 node=   616 local x,y,z moments=    0.0000E+00    0.0000E+00    0.0000E+00  setid=       0
 node=   617 local x,y,z forces =    0.0000E+00    0.0000E+00    0.0000E+00  setid=       0
 node=   617 local x,y,z moments=    0.0000E+00    0.0000E+00    0.0000E+00  setid=       0
 node=   618 local x,y,z forces =    0.0000E+00    0.0000E+00    0.0000E+00  setid=       0
 node=   618 local x,y,z moments=    0.0000E+00    0.0000E+00    0.0000E+00  setid=       0
 node=   619 local x,y,z forces =    0.0000E+00    0.0000E+00    0.0000E+00  setid=       0
 node=   619 local x,y,z moments=    0.0000E+00    0.0000E+00    0.0000E+00  setid=       0
 node=   620 local x,y,z forces =    0.0000E+00    0.0000E+00    0.0000E+00  setid=       0
 node=   620 local x,y,z moments=    0.0000E+00    0.0000E+00    0.0000E+00  setid=       0
 node=   621 local x,y,z forces =    0.0000E+00    0.0000E+00    0.0000E+00  setid=       0
 node=   621 local x,y,z moments=    0.0000E+00    0.0000E+00    0.0000E+00  setid=       0
 node=   622 local x,y,z forces =    0.0000E+00    0.0000E+00    0.0000E+00  setid=       0
 node=   622 local x,y,z moments=    0.0000E+00    0.0000E+00    0.0000E+00  setid=       0
 node=   623 local x,y,z forces =    0.0000E+00    0.0000E+00    0.0000E+00  setid=       0
 node=   623 local x,y,z moments=    0.0000E+00    0.0000E+00    0.0000E+00  setid=       0
 node=   624 local x,y,z forces =    0.0000E+00    0.0000E+00    0.0000E+00  setid=       0
 node=   624 local x,y,z moments=    0.0000E+00    0.0000E+00    0.0000E+00  setid=       0
 node=   625 local x,y,z forces =    0.0000E+00    0.0000E+00    0.0000E+00  setid=       0
 node=   625 local x,y,z moments=    0.0000E+00    0.0000E+00    0.0000E+00  setid=       0
 node=   626 local x,y,z forces =    0.0000E+00    0.0000E+00    0.0000E+00  setid=       0
 node=   626 local x,y,z moments=    0.0000E+00    0.0000E+00    0.0000E+00  setid=       0
 node=   627 local x,y,z forces =    0.0000E+00    0.0000E+00    0.0000E+00  setid=       0
 node=   627 local x,y,z moments=    0.0000E+00    0.0000E+00    0.0000E+00  setid=       0
 node=   628 local x,y,z forces =    0.0000E+00    0.0000E+00    0.0000E+00  setid=       0
 node=   628 local x,y,z moments=    0.0000E+00    0.0000E+00    0.0000E+00  setid=       0
 node=   629 local x,y,z forces =    0.0000E+00    0.0000E+00    0.0000E+00  setid=       0
 node=   629 local x,y,z moments=    0.0000E+00    0.0000E+00    0.0000E+00  setid=       0
 node=   630 local x,y,z forces =    0.0000E+00    0.0000E+00    0.0000E+00  setid=       0
 node=   630 local x,y,z moments=    0.0000E+00    0.0000E+00    0.0000E+00  setid=       0
 node=   631 local x,y,z forces =    0.0000E+00    0.0000E+00    0.0000E+00  setid=       0
 node=   631 local x,y,z moments=    0.0000E+00    0.0000E+00    0.0000E+00  setid=       0
 node=   632 local x,y,z forces =    0.0000E+00    0.0000E+00    0.0000E+00  setid=       0
 node=   632 local x,y,z moments=    0.0000E+00    0.0000E+00    0.0000E+00  setid=       0
 node=   633 local x,y,z forces =    0.0000E+00    0.0000E+00    0.0000E+00  setid=       0
 node=   633 local x,y,z moments=    0.0000E+00    0.0000E+00    0.0000E+00  setid=       0
 node=   634 local x,y,z forces =    0.0000E+00    0.0000E+00    0.0000E+00  setid=       0
 node=   634 local x,y,z moments=    0.0000E+00    0.0000E+00    0.0000E+00  setid=       0
 node=   635 local x,y,z forces =    0.0000E+00    0.0000E+00    0.0000E+00  setid=       0
 node=   635 local x,y,z moments=    0.0000E+00    0.0000E+00    0.0000E+00  setid=       0
 node=   636 local x,y,z forces =    0.0000E+00    0.0000E+00    0.0000E+00  setid=       0
 node=   636 local x,y,z moments=    0.0000E+00    0.0000E+00    0.0000E+00  setid=       0
 node=   637 local x,y,z forces =    0.0000E+00    0.0000E+00    0.0000E+00  setid=       0
 node=   637 local x,y,z moments=    0.0000E+00    0.0000E+00    0.0000E+00  setid=       0
 node=   638 local x,y,z forces =    0.0000E+00    0.0000E+00    0.0000E+00  setid=       0
 node=   638 local x,y,z moments=    0.0000E+00    0.0000E+00    0.0000E+00  setid=       0
 node=   639 local x,y,z forces =    0.0000E+00    0.0000E+00    0.0000E+00  setid=       0
 node=   639 local x,y,z moments=    0.0000E+00    0.0000E+00    0.0000E+00  setid=       0
 node=   640 local x,y,z forces =    0.0000E+00    0.0000E+00    0.0000E+00  setid=       0
 node=   640 local x,y,z moments=    0.0000E+00    0.0000E+00    0.0000E+00  setid=       0
 node=   641 local x,y,z forces =    0.0000E+00    0.0000E+00    0.0000E+00  setid=       0
 node=   641 local x,y,z moments=    0.0000E+00    0.0000E+00    0.0000E+00  setid=       0
 node=   642 local x,y,z forces =    0.0000E+00    0.0000E+00    0.0000E+00  setid=       0
 node=   642 local x,y,z moments=    0.0000E+00    0.0000E+00    0.0000E+00  setid=       0
 node=   643 local x,y,z forces =    0.0000E+00    0.0000E+00    0.0000E+00  setid=       0
 node=   643 local x,y,z moments=    0.0000E+00    0.0000E+00    0.0000E+00  setid=       0
 node=   644 local x,y,z forces =    0.0000E+00    0.0000E+00    0.0000E+00  setid=       0
 node=   644 local x,y,z moments=    0.0000E+00    0.0000E+00    0.0000E+00  setid=       0
 node=   645 local x,y,z forces =    0.0000E+00    0.0000E+00    0.0000E+00  setid=       0
 node=   645 local x,y,z moments=    0.0000E+00    0.0000E+00    0.0000E+00  setid=       0
 node=   646 local x,y,z forces =    0.0000E+00    0.0000E+00    0.0000E+00  setid=       0
 node=   646 local x,y,z moments=    0.0000E+00    0.0000E+00    0.0000E+00  setid=       0
 node=   647 local x,y,z forces =    0.0000E+00    0.0000E+00    0.0000E+00  setid=       0
 node=   647 local x,y,z moments=    0.0000E+00    0.0000E+00    0.0000E+00  setid=       0
 node=   648 local x,y,z forces =    0.0000E+00    0.0000E+00    0.0000E+00  setid=       0
 node=   648 local x,y,z moments=    0.0000E+00    0.0000E+00    0.0000E+00  setid=       0
 node=   649 local x,y,z forces =    0.0000E+00    0.0000E+00    0.0000E+00  setid=       0
 node=   649 local x,y,z moments=    0.0000E+00    0.0000E+00    0.0000E+00  setid=       0
 node=   650 local x,y,z forces =    0.0000E+00    0.0000E+00    0.0000E+00  setid=       0
 node=   650 local x,y,z moments=    0.0000E+00    0.0000E+00    0.0000E+00  setid=       0
 node=   657 local x,y,z forces =    0.0000E+00    0.0000E+00    0.0000E+00  setid=       0
 node=   657 local x,y,z moments=    0.0000E+00    0.0000E+00    0.0000E+00  setid=       0
 node=   658 local x,y,z forces =    0.0000E+00    0.0000E+00    0.0000E+00  setid=       0
 node=   658 local x,y,z moments=    0.0000E+00    0.0000E+00    0.0000E+00  setid=       0
 node=   671 local x,y,z forces =    0.0000E+00    0.0000E+00    0.0000E+00  setid=       0
 node=   671 local x,y,z moments=    0.0000E+00    0.0000E+00    0.0000E+00  setid=       0
 node=   672 local x,y,z forces =    0.0000E+00    0.0000E+00    0.0000E+00  setid=       0
 node=   672 local x,y,z moments=    0.0000E+00    0.0000E+00    0.0000E+00  setid=       0
 node=   673 local x,y,z forces =    0.0000E+00    0.0000E+00    0.0000E+00  setid=       0
 node=   673 local x,y,z moments=    0.0000E+00    0.0000E+00    0.0000E+00  setid=       0
 node=   674 local x,y,z forces =    0.0000E+00    0.0000E+00    0.0000E+00  setid=       0
 node=   674 local x,y,z moments=    0.0000E+00    0.0000E+00    0.0000E+00  setid=       0
 node=   681 local x,y,z forces =    0.0000E+00    0.0000E+00    0.0000E+00  setid=       0
 node=   681 local x,y,z moments=    0.0000E+00    0.0000E+00    0.0000E+00  setid=       0
 node=   682 local x,y,z forces =    0.0000E+00    0.0000E+00    0.0000E+00  setid=       0
 node=   682 local x,y,z moments=    0.0000E+00    0.0000E+00    0.0000E+00  setid=       0
 node=   695 local x,y,z forces =    0.0000E+00    0.0000E+00    0.0000E+00  setid=       0
 node=   695 local x,y,z moments=    0.0000E+00    0.0000E+00    0.0000E+00  setid=       0
 node=   696 local x,y,z forces =    0.0000E+00    0.0000E+00    0.0000E+00  setid=       0
 node=   696 local x,y,z moments=    0.0000E+00    0.0000E+00    0.0000E+00  setid=       0
 node=   697 local x,y,z forces =    0.0000E+00    0.0000E+00    0.0000E+00  setid=       0
 node=   697 local x,y,z moments=    0.0000E+00    0.0000E+00    0.0000E+00  setid=       0
 node=   698 local x,y,z forces =    0.0000E+00    0.0000E+00    0.0000E+00  setid=       0
 node=   698 local x,y,z moments=    0.0000E+00    0.0000E+00    0.0000E+00  setid=       0
 node=   711 local x,y,z forces =    0.0000E+00    0.0000E+00    0.0000E+00  setid=       0
 node=   711 local x,y,z moments=    0.0000E+00    0.0000E+00    0.0000E+00  setid=       0
 node=   712 local x,y,z forces =    0.0000E+00    0.0000E+00    0.0000E+00  setid=       0
 node=   712 local x,y,z moments=    0.0000E+00    0.0000E+00    0.0000E+00  setid=       0
 node=   713 local x,y,z forces =    0.0000E+00    0.0000E+00    0.0000E+00  setid=       0
 node=   713 local x,y,z moments=    0.0000E+00    0.0000E+00    0.0000E+00  setid=       0
 node=   714 local x,y,z forces =    0.0000E+00    0.0000E+00    0.0000E+00  setid=       0
 node=   714 local x,y,z moments=    0.0000E+00    0.0000E+00    0.0000E+00  setid=       0
 node=   721 local x,y,z forces =    0.0000E+00    0.0000E+00    0.0000E+00  setid=       0
 node=   721 local x,y,z moments=    0.0000E+00    0.0000E+00    0.0000E+00  setid=       0
 node=   722 local x,y,z forces =    0.0000E+00    0.0000E+00    0.0000E+00  setid=       0
 node=   722 local x,y,z moments=    0.0000E+00    0.0000E+00    0.0000E+00  setid=       0
 node=   735 local x,y,z forces =    0.0000E+00    0.0000E+00    0.0000E+00  setid=       0
 node=   735 local x,y,z moments=    0.0000E+00    0.0000E+00    0.0000E+00  setid=       0
 node=   736 local x,y,z forces =    0.0000E+00    0.0000E+00    0.0000E+00  setid=       0
 node=   736 local x,y,z moments=    0.0000E+00    0.0000E+00    0.0000E+00  setid=       0
 node=   737 local x,y,z forces =    0.0000E+00    0.0000E+00    0.0000E+00  setid=       0
 node=   737 local x,y,z moments=    0.0000E+00    0.0000E+00    0.0000E+00  setid=       0
 node=   738 local x,y,z forces =    0.0000E+00    0.0000E+00    0.0000E+00  setid=       0
 node=   738 local x,y,z moments=    0.0000E+00    0.0000E+00    0.0000E+00  setid=       0
 node=   745 local x,y,z forces =    0.0000E+00    0.0000E+00    0.0000E+00  setid=       0
 node=   745 local x,y,z moments=    0.0000E+00    0.0000E+00    0.0000E+00  setid=       0
 node=   746 local x,y,z forces =    0.0000E+00    0.0000E+00    0.0000E+00  setid=       0
 node=   746 local x,y,z moments=    0.0000E+00    0.0000E+00    0.0000E+00  setid=       0
 node=   753 local x,y,z forces =    0.0000E+00    0.0000E+00    0.0000E+00  setid=       0
 node=   753 local x,y,z moments=    0.0000E+00    0.0000E+00    0.0000E+00  setid=       0
 node=   754 local x,y,z forces =    0.0000E+00    0.0000E+00    0.0000E+00  setid=       0
 node=   754 local x,y,z moments=    0.0000E+00    0.0000E+00    0.0000E+00  setid=       0
 node=   761 local x,y,z forces =    0.0000E+00    0.0000E+00    0.0000E+00  setid=       0
 node=   761 local x,y,z moments=    0.0000E+00    0.0000E+00    0.0000E+00  setid=       0
 node=   762 local x,y,z forces =    0.0000E+00    0.0000E+00    0.0000E+00  setid=       0
 node=   762 local x,y,z moments=    0.0000E+00    0.0000E+00    0.0000E+00  setid=       0
 node=   769 local x,y,z forces =    0.0000E+00    0.0000E+00    0.0000E+00  setid=       0
 node=   769 local x,y,z moments=    0.0000E+00    0.0000E+00    0.0000E+00  setid=       0
 node=   770 local x,y,z forces =    0.0000E+00    0.0000E+00    0.0000E+00  setid=       0
 node=   770 local x,y,z moments=    0.0000E+00    0.0000E+00    0.0000E+00  setid=       0
 node=   780 local x,y,z forces =    0.0000E+00    0.0000E+00    0.0000E+00  setid=       0
 node=   780 local x,y,z moments=    0.0000E+00    0.0000E+00    0.0000E+00  setid=       0
 node=   781 local x,y,z forces =    0.0000E+00    0.0000E+00    0.0000E+00  setid=       0
 node=   781 local x,y,z moments=    0.0000E+00    0.0000E+00    0.0000E+00  setid=       0
 node=   782 local x,y,z forces =    0.0000E+00    0.0000E+00    0.0000E+00  setid=       0
 node=   782 local x,y,z moments=    0.0000E+00    0.0000E+00    0.0000E+00  setid=       0
 node=   795 local x,y,z forces =    0.0000E+00    0.0000E+00    0.0000E+00  setid=       0
 node=   795 local x,y,z moments=    0.0000E+00    0.0000E+00    0.0000E+00  setid=       0
 node=   796 local x,y,z forces =    0.0000E+00    0.0000E+00    0.0000E+00  setid=       0
 node=   796 local x,y,z moments=    0.0000E+00    0.0000E+00    0.0000E+00  setid=       0
 node=   797 local x,y,z forces =    0.0000E+00    0.0000E+00    0.0000E+00  setid=       0
 node=   797 local x,y,z moments=    0.0000E+00    0.0000E+00    0.0000E+00  setid=       0
 node=   798 local x,y,z forces =    0.0000E+00    0.0000E+00    0.0000E+00  setid=       0
 node=   798 local x,y,z moments=    0.0000E+00    0.0000E+00    0.0000E+00  setid=       0
 node=   802 local x,y,z forces =    0.0000E+00    0.0000E+00    0.0000E+00  setid=       0
 node=   802 local x,y,z moments=    0.0000E+00    0.0000E+00    0.0000E+00  setid=       0
 node=   809 local x,y,z forces =    0.0000E+00    0.0000E+00    0.0000E+00  setid=       0
 node=   809 local x,y,z moments=    0.0000E+00    0.0000E+00    0.0000E+00  setid=       0
 node=   810 local x,y,z forces =    0.0000E+00    0.0000E+00    0.0000E+00  setid=       0
 node=   810 local x,y,z moments=    0.0000E+00    0.0000E+00    0.0000E+00  setid=       0
 node=   814 local x,y,z forces =    0.0000E+00    0.0000E+00    0.0000E+00  setid=       0
 node=   814 local x,y,z moments=    0.0000E+00    0.0000E+00    0.0000E+00  setid=       0
 node=   824 local x,y,z forces =    0.0000E+00    0.0000E+00    0.0000E+00  setid=       0
 node=   824 local x,y,z moments=    0.0000E+00    0.0000E+00    0.0000E+00  setid=       0
 node=   825 local x,y,z forces =    0.0000E+00    0.0000E+00    0.0000E+00  setid=       0
 node=   825 local x,y,z moments=    0.0000E+00    0.0000E+00    0.0000E+00  setid=       0
 node=   826 local x,y,z forces =    0.0000E+00    0.0000E+00    0.0000E+00  setid=       0
 node=   826 local x,y,z moments=    0.0000E+00    0.0000E+00    0.0000E+00  setid=       0
 node=   833 local x,y,z forces =    0.0000E+00    0.0000E+00    0.0000E+00  setid=       0
 node=   833 local x,y,z moments=    0.0000E+00    0.0000E+00    0.0000E+00  setid=       0
 node=   834 local x,y,z forces =    0.0000E+00    0.0000E+00    0.0000E+00  setid=       0
 node=   834 local x,y,z moments=    0.0000E+00    0.0000E+00    0.0000E+00  setid=       0
 node=   838 local x,y,z forces =    0.0000E+00    0.0000E+00    0.0000E+00  setid=       0
 node=   838 local x,y,z moments=    0.0000E+00    0.0000E+00    0.0000E+00  setid=       0
 node=   842 local x,y,z forces =    0.0000E+00    0.0000E+00    0.0000E+00  setid=       0
 node=   842 local x,y,z moments=    0.0000E+00    0.0000E+00    0.0000E+00  setid=       0
 node=   849 local x,y,z forces =    0.0000E+00    0.0000E+00    0.0000E+00  setid=       0
 node=   849 local x,y,z moments=    0.0000E+00    0.0000E+00    0.0000E+00  setid=       0
 node=   850 local x,y,z forces =    0.0000E+00    0.0000E+00    0.0000E+00  setid=       0
 node=   850 local x,y,z moments=    0.0000E+00    0.0000E+00    0.0000E+00  setid=       0
 node=   857 local x,y,z forces =    0.0000E+00    0.0000E+00    0.0000E+00  setid=       0
 node=   857 local x,y,z moments=    0.0000E+00    0.0000E+00    0.0000E+00  setid=       0
 node=   858 local x,y,z forces =    0.0000E+00    0.0000E+00    0.0000E+00  setid=       0
 node=   858 local x,y,z moments=    0.0000E+00    0.0000E+00    0.0000E+00  setid=       0
 node=   862 local x,y,z forces =    0.0000E+00    0.0000E+00    0.0000E+00  setid=       0
 node=   862 local x,y,z moments=    0.0000E+00    0.0000E+00    0.0000E+00  setid=       0
 node=   869 local x,y,z forces =    0.0000E+00    0.0000E+00    0.0000E+00  setid=       0
 node=   869 local x,y,z moments=    0.0000E+00    0.0000E+00    0.0000E+00  setid=       0
 node=   870 local x,y,z forces =    0.0000E+00    0.0000E+00    0.0000E+00  setid=       0
 node=   870 local x,y,z moments=    0.0000E+00    0.0000E+00    0.0000E+00  setid=       0
 node=   874 local x,y,z forces =    0.0000E+00    0.0000E+00    0.0000E+00  setid=       0
 node=   874 local x,y,z moments=    0.0000E+00    0.0000E+00    0.0000E+00  setid=       0
 node=   878 local x,y,z forces =    0.0000E+00    0.0000E+00    0.0000E+00  setid=       0
 node=   878 local x,y,z moments=    0.0000E+00    0.0000E+00    0.0000E+00  setid=       0
 node=   885 local x,y,z forces =    0.0000E+00    0.0000E+00    0.0000E+00  setid=       0
 node=   885 local x,y,z moments=    0.0000E+00    0.0000E+00    0.0000E+00  setid=       0
 node=   886 local x,y,z forces =    0.0000E+00    0.0000E+00    0.0000E+00  setid=       0
 node=   886 local x,y,z moments=    0.0000E+00    0.0000E+00    0.0000E+00  setid=       0
 node=   890 local x,y,z forces =    0.0000E+00    0.0000E+00    0.0000E+00  setid=       0
 node=   890 local x,y,z moments=    0.0000E+00    0.0000E+00    0.0000E+00  setid=       0
             force resultants   =    0.0000E+00    0.0000E+00    0.0000E+00
 output at time =   5.00000E-01
 node=     1 local x,y,z forces =    0.0000E+00    1.8076E+00    1.5699E+01  setid=       0
 node=     1 local x,y,z moments=    2.7646E-03    2.3017E-03   -2.9577E-04  setid=       0
 node=     2 local x,y,z forces =    0.0000E+00    3.6774E+00    2.1979E+01  setid=       0
 node=     2 local x,y,z moments=    2.7031E-03    4.5381E-05    9.3829E-06  setid=       0
 node=     3 local x,y,z forces =    0.0000E+00    4.0650E+00    1.4981E+01  setid=       0
 node=     3 local x,y,z moments=    1.0173E-03    3.0370E-05    1.0070E-05  setid=       0
 node=     4 local x,y,z forces =    0.0000E+00    4.2254E+00    1.4243E+01  setid=       0
 node=     4 local x,y,z moments=    1.0891E-03    1.1820E-04    3.9500E-06  setid=       0
 node=     5 local x,y,z forces =    2.0909E+00    2.1518E+00    7.1509E+00  setid=       0
 node=     5 local x,y,z moments=    5.5982E-04   -5.6770E-04    7.3440E-06  setid=       0
 node=     6 local x,y,z forces =    4.1211E+00    0.0000E+00    1.3868E+01  setid=       0
 node=     6 local x,y,z moments=   -6.0417E-05   -1.0071E-03   -9.8198E-06  setid=       0
 node=     7 local x,y,z forces =    3.9204E+00    0.0000E+00    1.4466E+01  setid=       0
 node=     7 local x,y,z moments=    8.1880E-05   -9.2094E-04   -2.1144E-05  setid=       0
 node=     8 local x,y,z forces =    3.5216E+00    0.0000E+00    2.1696E+01  setid=       0
 node=     8 local x,y,z moments=    1.1472E-04   -2.7284E-03   -3.9418E-05  setid=       0
 node=     9 local x,y,z forces =    1.8639E+00    0.0000E+00    1.4643E+01  setid=       0
 node=     9 local x,y,z moments=   -2.0383E-03   -2.6293E-03    2.4512E-04  setid=       0
 node=    10 local x,y,z forces =    0.0000E+00    0.0000E+00    2.8737E+01  setid=       0
 node=    10 local x,y,z moments=   -3.5824E-03    1.8107E-03    0.0000E+00  setid=       0
 node=    11 local x,y,z forces =    0.0000E+00    0.0000E+00    2.6635E+01  setid=       0
 node=    11 local x,y,z moments=   -2.0356E-03    2.4267E-03    0.0000E+00  setid=       0
 node=    12 local x,y,z forces =    0.0000E+00    0.0000E+00    3.0121E+01  setid=       0
 node=    12 local x,y,z moments=   -1.3953E-03    4.0625E-03    0.0000E+00  setid=       0
 node=    13 local x,y,z forces =    0.0000E+00    0.0000E+00    1.7986E+01  setid=       0
 node=    13 local x,y,z moments=    3.7252E-05   -2.2152E-04    0.0000E+00  setid=       0
 node=    14 local x,y,z forces =    0.0000E+00    0.0000E+00    2.7173E+01  setid=       0
 node=    14 local x,y,z moments=    3.4752E-04   -1.7010E-04    0.0000E+00  setid=       0
 node=    15 local x,y,z forces =    0.0000E+00    0.0000E+00    2.6563E+01  setid=       0
 node=    15 local x,y,z moments=    2.3686E-04   -6.4498E-04    0.0000E+00  setid=       0
 node=    16 local x,y,z forces =    0.0000E+00    0.0000E+00    2.6668E+01  setid=       0
 node=    16 local x,y,z moments=   -4.5063E-04    2.2667E-04    0.0000E+00  setid=       0
 node=    17 local x,y,z forces =    0.0000E+00    0.0000E+00    3.7772E+01  setid=       0
 node=    17 local x,y,z moments=   -1.1289E-04   -4.8438E-04    0.0000E+00  setid=       0
 node=    18 local x,y,z forces =    0.0000E+00    0.0000E+00    4.1465E+01  setid=       0
 node=    18 local x,y,z moments=    1.0048E-03   -3.1005E-04    0.0000E+00  setid=       0
 node=    19 local x,y,z forces =    0.0000E+00    0.0000E+00    4.1843E+01  setid=       0
 node=    19 local x,y,z moments=   -3.7897E-04   -1.4816E-03    0.0000E+00  setid=       0
 node=    51 local x,y,z forces =    8.0652E+00    0.0000E+00    0.0000E+00  setid=       0
 node=    51 local x,y,z moments=    0.0000E+00   -1.4180E-05   -1.2436E-05  setid=       0
 node=    52 local x,y,z forces =    4.0933E+00    4.2017E+00    0.0000E+00  setid=       0
 node=    52 local x,y,z moments=   -8.2263E-06    5.1062E-06    1.5581E-05  setid=       0
 node=    53 local x,y,z forces =    0.0000E+00    8.2609E+00    0.0000E+00  setid=       0
 node=    53 local x,y,z moments=   -2.1487E-05    0.0000E+00    9.0810E-06  setid=       0
 node=    55 local x,y,z forces =    7.2549E+00    0.0000E+00    0.0000E+00  setid=       0
 node=    55 local x,y,z moments=    0.0000E+00   -7.1793E-05    1.9441E-05  setid=       0
 node=    56 local x,y,z forces =    3.6978E+00    3.8015E+00    0.0000E+00  setid=       0
 node=    56 local x,y,z moments=    1.3039E-05   -1.2228E-05    2.2766E-05  setid=       0
 node=    57 local x,y,z forces =    0.0000E+00    7.5127E+00    0.0000E+00  setid=       0
 node=    57 local x,y,z moments=   -1.5622E-05    0.0000E+00    1.0793E-05  setid=       0
 node=    59 local x,y,z forces =    5.7586E+00    0.0000E+00    0.0000E+00  setid=       0
 node=    59 local x,y,z moments=    0.0000E+00   -1.1517E-04   -3.2127E-05  setid=       0
 node=    60 local x,y,z forces =    2.7914E+00    2.8428E+00    0.0000E+00  setid=       0
 node=    60 local x,y,z moments=    1.2131E-04   -9.0148E-05    2.8326E-05  setid=       0
 node=    61 local x,y,z forces =    0.0000E+00    5.7551E+00    0.0000E+00  setid=       0
 node=    61 local x,y,z moments=    1.5079E-04    0.0000E+00    1.9433E-05  setid=       0
 node=    63 local x,y,z forces =    4.4860E+00    0.0000E+00    0.0000E+00  setid=       0
 node=    63 local x,y,z moments=    0.0000E+00    1.3048E-04   -5.5714E-05  setid=       0
 node=    64 local x,y,z forces =    2.1063E+00    2.0704E+00    0.0000E+00  setid=       0
 node=    64 local x,y,z moments=   -1.1499E-04    1.8143E-04    2.3222E-06  setid=       0
 node=    65 local x,y,z forces =    0.0000E+00    4.0899E+00    0.0000E+00  setid=       0
 node=    65 local x,y,z moments=   -1.4819E-04    0.0000E+00    4.2921E-05  setid=       0
 node=    67 local x,y,z forces =    4.4966E+00    0.0000E+00    0.0000E+00  setid=       0
 node=    67 local x,y,z moments=    0.0000E+00    1.0563E-03    6.4653E-05  setid=       0
 node=    68 local x,y,z forces =    2.2698E+00    2.2136E+00    0.0000E+00  setid=       0
 node=    68 local x,y,z moments=   -6.7589E-04    7.9835E-04   -1.2310E-05  setid=       0
 node=    69 local x,y,z forces =    0.0000E+00    4.2335E+00    0.0000E+00  setid=       0
 node=    69 local x,y,z moments=   -1.1052E-03    0.0000E+00   -6.4727E-05  setid=       0
 node=    85 local x,y,z forces =    0.0000E+00    7.6727E+00    0.0000E+00  setid=       0
 node=    85 local x,y,z moments=   -1.8551E-04    0.0000E+00    6.1481E-05  setid=       0
 node=    86 local x,y,z forces =    0.0000E+00    3.4321E+00    0.0000E+00  setid=       0
 node=    86 local x,y,z moments=    9.2469E-05    0.0000E+00   -5.6235E-04  setid=       0
 node=    87 local x,y,z forces =    0.0000E+00    7.9831E+00    0.0000E+00  setid=       0
 node=    87 local x,y,z moments=   -3.6848E-04    0.0000E+00    1.4967E-04  setid=       0
 node=    88 local x,y,z forces =    0.0000E+00    3.0082E+00    0.0000E+00  setid=       0
 node=    88 local x,y,z moments=    7.5138E-05    0.0000E+00   -4.8311E-04  setid=       0
 node=    89 local x,y,z forces =    0.0000E+00    7.3812E+00    0.0000E+00  setid=       0
 node=    89 local x,y,z moments=   -4.1183E-04    0.0000E+00    1.7504E-04  setid=       0
 node=    90 local x,y,z forces =    0.0000E+00    2.5580E+00    0.0000E+00  setid=       0
 node=    90 local x,y,z moments=    5.1388E-05    0.0000E+00   -4.0584E-04  setid=       0
 node=    91 local x,y,z forces =    0.0000E+00    5.6669E+00    0.0000E+00  setid=       0
 node=    91 local x,y,z moments=   -3.3044E-04    0.0000E+00    3.6175E-05  setid=       0
 node=    92 local x,y,z forces =    0.0000E+00    1.8732E+00    0.0000E+00  setid=       0
 node=    92 local x,y,z moments=    9.2561E-05    0.0000E+00   -3.2924E-04  setid=       0
 node=    93 local x,y,z forces =    0.0000E+00    5.1632E+00    0.0000E+00  setid=       0
 node=    93 local x,y,z moments=   -1.1958E-03    0.0000E+00   -2.1362E-04  setid=       0
 node=    94 local x,y,z forces =    0.0000E+00    1.8933E+00    0.0000E+00  setid=       0
 node=    94 local x,y,z moments=   -6.6406E-04    0.0000E+00   -1.1889E-04  setid=       0
 node=    95 local x,y,z forces =    7.7497E+00    0.0000E+00    0.0000E+00  setid=       0
 node=    95 local x,y,z moments=    0.0000E+00   -1.2215E-04   -3.5117E-05  setid=       0
 node=    96 local x,y,z forces =    7.0373E+00    0.0000E+00    0.0000E+00  setid=       0
 node=    96 local x,y,z moments=    0.0000E+00   -2.7645E-04    8.2034E-06  setid=       0
 node=    97 local x,y,z forces =    6.0679E+00    0.0000E+00    0.0000E+00  setid=       0
 node=    97 local x,y,z moments=    0.0000E+00   -2.4091E-04   -9.9232E-05  setid=       0
 node=    98 local x,y,z forces =    4.9571E+00    0.0000E+00    0.0000E+00  setid=       0
 node=    98 local x,y,z moments=    0.0000E+00   -2.5758E-04   -7.0977E-05  setid=       0
 node=    99 local x,y,z forces =    4.8298E+00    0.0000E+00    0.0000E+00  setid=       0
 node=    99 local x,y,z moments=    0.0000E+00    2.5343E-04    8.9126E-05  setid=       0
 node=   100 local x,y,z forces =    7.2108E+00    0.0000E+00    0.0000E+00  setid=       0
 node=   100 local x,y,z moments=    0.0000E+00   -1.9289E-04   -5.2507E-05  setid=       0
 node=   101 local x,y,z forces =    6.9237E+00    0.0000E+00    0.0000E+00  setid=       0
 node=   101 local x,y,z moments=    0.0000E+00   -3.4979E-04    1.9469E-05  setid=       0
 node=   102 local x,y,z forces =    6.7034E+00    0.0000E+00    0.0000E+00  setid=       0
 node=   102 local x,y,z moments=    0.0000E+00   -9.3832E-05   -1.9256E-04  setid=       0
 node=   103 local x,y,z forces =    5.4585E+00    0.0000E+00    0.0000E+00  setid=       0
 node=   103 local x,y,z moments=    0.0000E+00   -1.7896E-04    1.4558E-05  setid=       0
 node=   104 local x,y,z forces =    5.1284E+00    0.0000E+00    0.0000E+00  setid=       0
 node=   104 local x,y,z moments=    0.0000E+00    4.9688E-04    1.1976E-04  setid=       0
 node=   105 local x,y,z forces =    0.0000E+00    8.0312E+00    0.0000E+00  setid=       0
 node=   105 local x,y,z moments=   -4.4631E-05    0.0000E+00    3.4022E-05  setid=       0
 node=   106 local x,y,z forces =    0.0000E+00    7.4922E+00    0.0000E+00  setid=       0
 node=   106 local x,y,z moments=   -6.0853E-05    0.0000E+00    6.2265E-05  setid=       0
 node=   107 local x,y,z forces =    0.0000E+00    6.1069E+00    0.0000E+00  setid=       0
 node=   107 local x,y,z moments=    3.8861E-05    0.0000E+00    7.9191E-05  setid=       0
 node=   108 local x,y,z forces =    0.0000E+00    4.5446E+00    0.0000E+00  setid=       0
 node=   108 local x,y,z moments=   -1.5953E-04    0.0000E+00    1.0279E-04  setid=       0
 node=   109 local x,y,z forces =    0.0000E+00    4.4965E+00    0.0000E+00  setid=       0
 node=   109 local x,y,z moments=   -1.0643E-03    0.0000E+00   -1.0089E-04  setid=       0
 node=   110 local x,y,z forces =    3.8122E+00    0.0000E+00    0.0000E+00  setid=       0
 node=   110 local x,y,z moments=    0.0000E+00    1.6205E-04    5.3209E-04  setid=       0
 node=   111 local x,y,z forces =    3.7341E+00    0.0000E+00    0.0000E+00  setid=       0
 node=   111 local x,y,z moments=    0.0000E+00    3.0800E-04    5.7700E-04  setid=       0
 node=   112 local x,y,z forces =    3.2656E+00    0.0000E+00    0.0000E+00  setid=       0
 node=   112 local x,y,z moments=    0.0000E+00    3.6736E-04    5.4498E-04  setid=       0
 node=   113 local x,y,z forces =    1.9504E+00    0.0000E+00    0.0000E+00  setid=       0
 node=   113 local x,y,z moments=    0.0000E+00    2.1581E-04    3.9813E-04  setid=       0
 node=   114 local x,y,z forces =    2.4759E+00    0.0000E+00    0.0000E+00  setid=       0
 node=   114 local x,y,z moments=    0.0000E+00    5.7512E-04    1.9956E-05  setid=       0
 node=   199 local x,y,z forces =    0.0000E+00    2.9848E+00    0.0000E+00  setid=       0
 node=   199 local x,y,z moments=    2.8115E-05    0.0000E+00    1.5209E-05  setid=       0
 node=   200 local x,y,z forces =    0.0000E+00    2.5473E+00    0.0000E+00  setid=       0
 node=   200 local x,y,z moments=   -1.0412E-05    0.0000E+00    1.1221E-05  setid=       0
 node=   201 local x,y,z forces =    0.0000E+00   -3.7912E-02    0.0000E+00  setid=       0
 node=   201 local x,y,z moments=   -1.1919E-04    0.0000E+00    3.1362E-05  setid=       0
 node=   202 local x,y,z forces =    0.0000E+00   -1.0770E-01    0.0000E+00  setid=       0
 node=   202 local x,y,z moments=   -1.4456E-04    0.0000E+00    2.4819E-05  setid=       0
 node=   203 local x,y,z forces =    0.0000E+00   -1.4859E+00    0.0000E+00  setid=       0
 node=   203 local x,y,z moments=   -1.6211E-04    0.0000E+00    2.8041E-05  setid=       0
 node=   204 local x,y,z forces =    0.0000E+00   -1.4284E+00    0.0000E+00  setid=       0
 node=   204 local x,y,z moments=   -1.5820E-04    0.0000E+00    3.1348E-05  setid=       0
 node=   205 local x,y,z forces =    0.0000E+00   -2.1056E+00    0.0000E+00  setid=       0
 node=   205 local x,y,z moments=   -1.6583E-04    0.0000E+00    2.3718E-05  setid=       0
 node=   206 local x,y,z forces =    0.0000E+00   -1.9954E+00    0.0000E+00  setid=       0
 node=   206 local x,y,z moments=   -1.4589E-04    0.0000E+00    2.4676E-05  setid=       0
 node=   207 local x,y,z forces =    0.0000E+00   -2.2867E+00    0.0000E+00  setid=       0
 node=   207 local x,y,z moments=   -1.5421E-04    0.0000E+00    1.7800E-05  setid=       0
 node=   208 local x,y,z forces =    0.0000E+00   -2.1674E+00    0.0000E+00  setid=       0
 node=   208 local x,y,z moments=   -1.2352E-04    0.0000E+00    1.7355E-05  setid=       0
 node=   209 local x,y,z forces =    0.0000E+00   -2.2317E+00    0.0000E+00  setid=       0
 node=   209 local x,y,z moments=   -1.3849E-04    0.0000E+00    1.2959E-05  setid=       0
 node=   210 local x,y,z forces =    0.0000E+00   -2.1178E+00    0.0000E+00  setid=       0
 node=   210 local x,y,z moments=   -9.9139E-05    0.0000E+00    1.1778E-05  setid=       0
 node=   211 local x,y,z forces =    0.0000E+00   -2.0487E+00    0.0000E+00  setid=       0
 node=   211 local x,y,z moments=   -1.2207E-04    0.0000E+00    9.2303E-06  setid=       0
 node=   212 local x,y,z forces =    0.0000E+00   -1.9457E+00    0.0000E+00  setid=       0
 node=   212 local x,y,z moments=   -7.4575E-05    0.0000E+00    7.7916E-06  setid=       0
 node=   213 local x,y,z forces =    0.0000E+00   -1.7967E+00    0.0000E+00  setid=       0
 node=   213 local x,y,z moments=   -1.0699E-04    0.0000E+00    6.0263E-06  setid=       0
 node=   214 local x,y,z forces =    0.0000E+00   -1.7098E+00    0.0000E+00  setid=       0
 node=   214 local x,y,z moments=   -5.1620E-05    0.0000E+00    4.5464E-06  setid=       0
 node=   215 local x,y,z forces =    0.0000E+00   -1.5039E+00    0.0000E+00  setid=       0
 node=   215 local x,y,z moments=   -9.4302E-05    0.0000E+00    2.7176E-06  setid=       0
 node=   216 local x,y,z forces =    0.0000E+00   -1.4397E+00    0.0000E+00  setid=       0
 node=   216 local x,y,z moments=   -3.1596E-05    0.0000E+00    1.1823E-06  setid=       0
 node=   217 local x,y,z forces =    0.0000E+00   -1.1760E+00    0.0000E+00  setid=       0
 node=   217 local x,y,z moments=   -8.4939E-05    0.0000E+00   -8.7941E-07  setid=       0
 node=   218 local x,y,z forces =    0.0000E+00   -1.1418E+00    0.0000E+00  setid=       0
 node=   218 local x,y,z moments=   -1.6019E-05    0.0000E+00   -2.7530E-06  setid=       0
 node=   219 local x,y,z forces =    0.0000E+00   -8.1026E-01    0.0000E+00  setid=       0
 node=   219 local x,y,z moments=   -7.8382E-05    0.0000E+00   -3.1603E-06  setid=       0
 node=   220 local x,y,z forces =    0.0000E+00   -8.0832E-01    0.0000E+00  setid=       0
 node=   220 local x,y,z moments=   -5.8197E-06    0.0000E+00   -6.4514E-06  setid=       0
 node=   221 local x,y,z forces =    0.0000E+00   -4.1752E-01    0.0000E+00  setid=       0
 node=   221 local x,y,z moments=   -7.2009E-05    0.0000E+00   -8.2098E-09  setid=       0
 node=   222 local x,y,z forces =    0.0000E+00   -4.3395E-01    0.0000E+00  setid=       0
 node=   222 local x,y,z moments=    1.7931E-06    0.0000E+00   -6.3407E-06  setid=       0
 node=   223 local x,y,z forces =    0.0000E+00    1.6141E-01    0.0000E+00  setid=       0
 node=   223 local x,y,z moments=   -1.0249E-04    0.0000E+00    5.6755E-07  setid=       0
 node=   224 local x,y,z forces =    0.0000E+00   -1.7578E-02    0.0000E+00  setid=       0
 node=   224 local x,y,z moments=   -5.9242E-06    0.0000E+00    1.2625E-05  setid=       0
 node=   225 local x,y,z forces =    0.0000E+00    1.0138E+00    0.0000E+00  setid=       0
 node=   225 local x,y,z moments=   -9.0173E-04    0.0000E+00   -1.6323E-06  setid=       0
 node=   226 local x,y,z forces =    0.0000E+00    1.2084E+00    0.0000E+00  setid=       0
 node=   226 local x,y,z moments=   -1.3016E-03    0.0000E+00    3.2802E-05  setid=       0
 node=   227 local x,y,z forces =    0.0000E+00    3.0448E+00    0.0000E+00  setid=       0
 node=   227 local x,y,z moments=    2.3950E-05    0.0000E+00   -1.6653E-06  setid=       0
 node=   229 local x,y,z forces =    3.1751E+00    0.0000E+00    0.0000E+00  setid=       0
 node=   229 local x,y,z moments=    0.0000E+00    8.1476E-05    7.3209E-06  setid=       0
 node=   230 local x,y,z forces =    1.6670E+00    1.5712E+00    0.0000E+00  setid=       0
 node=   230 local x,y,z moments=   -7.0318E-05    3.4162E-04   -1.9096E-05  setid=       0
 node=   231 local x,y,z forces =    0.0000E+00   -1.4893E-03    0.0000E+00  setid=       0
 node=   231 local x,y,z moments=   -1.0336E-04    0.0000E+00    3.9884E-06  setid=       0
 node=   233 local x,y,z forces =    1.1066E-01    0.0000E+00    0.0000E+00  setid=       0
 node=   233 local x,y,z moments=    0.0000E+00    2.0236E-04    4.7192E-06  setid=       0
 node=   234 local x,y,z forces =    1.2432E-01    4.2867E-02    0.0000E+00  setid=       0
 node=   234 local x,y,z moments=   -1.2868E-04    3.8115E-04   -1.8255E-05  setid=       0
 node=   235 local x,y,z forces =    0.0000E+00   -1.4917E+00    0.0000E+00  setid=       0
 node=   235 local x,y,z moments=   -1.3392E-04    0.0000E+00    5.3469E-06  setid=       0
 node=   237 local x,y,z forces =   -1.4258E+00    0.0000E+00    0.0000E+00  setid=       0
 node=   237 local x,y,z moments=    0.0000E+00    2.9665E-04   -6.8264E-07  setid=       0
 node=   238 local x,y,z forces =   -6.6612E-01   -7.0954E-01    0.0000E+00  setid=       0
 node=   238 local x,y,z moments=   -1.4103E-04    4.2187E-04   -1.1367E-05  setid=       0
 node=   239 local x,y,z forces =    0.0000E+00   -2.1320E+00    0.0000E+00  setid=       0
 node=   239 local x,y,z moments=   -1.2448E-04    0.0000E+00    4.7241E-06  setid=       0
 node=   241 local x,y,z forces =   -2.0938E+00    0.0000E+00    0.0000E+00  setid=       0
 node=   241 local x,y,z moments=    0.0000E+00    3.5719E-04   -2.9350E-06  setid=       0
 node=   242 local x,y,z forces =   -1.0171E+00   -1.0438E+00    0.0000E+00  setid=       0
 node=   242 local x,y,z moments=   -1.3362E-04    4.5070E-04   -7.7608E-06  setid=       0
 node=   243 local x,y,z forces =    0.0000E+00   -2.3207E+00    0.0000E+00  setid=       0
 node=   243 local x,y,z moments=   -1.0282E-04    0.0000E+00    4.3250E-06  setid=       0
 node=   245 local x,y,z forces =   -2.2933E+00    0.0000E+00    0.0000E+00  setid=       0
 node=   245 local x,y,z moments=    0.0000E+00    3.9618E-04   -3.2503E-06  setid=       0
 node=   246 local x,y,z forces =   -1.1268E+00   -1.1513E+00    0.0000E+00  setid=       0
 node=   246 local x,y,z moments=   -1.1999E-04    4.7118E-04   -6.6218E-06  setid=       0
 node=   247 local x,y,z forces =    0.0000E+00   -2.2669E+00    0.0000E+00  setid=       0
 node=   247 local x,y,z moments=   -7.9420E-05    0.0000E+00    3.4170E-06  setid=       0
 node=   249 local x,y,z forces =   -2.2387E+00    0.0000E+00    0.0000E+00  setid=       0
 node=   249 local x,y,z moments=    0.0000E+00    4.2245E-04   -2.8349E-06  setid=       0
 node=   250 local x,y,z forces =   -1.1048E+00   -1.1316E+00    0.0000E+00  setid=       0
 node=   250 local x,y,z moments=   -1.0543E-04    4.8715E-04   -6.4906E-06  setid=       0
 node=   251 local x,y,z forces =    0.0000E+00   -2.0812E+00    0.0000E+00  setid=       0
 node=   251 local x,y,z moments=   -5.7546E-05    0.0000E+00    2.4143E-06  setid=       0
 node=   253 local x,y,z forces =   -2.0478E+00    0.0000E+00    0.0000E+00  setid=       0
 node=   253 local x,y,z moments=    0.0000E+00    4.4043E-04   -2.2972E-06  setid=       0
 node=   254 local x,y,z forces =   -1.0120E+00   -1.0425E+00    0.0000E+00  setid=       0
 node=   254 local x,y,z moments=   -9.1938E-05    5.0106E-04   -6.7894E-06  setid=       0
 node=   255 local x,y,z forces =    0.0000E+00   -1.8225E+00    0.0000E+00  setid=       0
 node=   255 local x,y,z moments=   -3.9039E-05    0.0000E+00    1.2822E-06  setid=       0
 node=   257 local x,y,z forces =   -1.7811E+00    0.0000E+00    0.0000E+00  setid=       0
 node=   257 local x,y,z moments=    0.0000E+00    4.5294E-04   -1.6896E-06  setid=       0
 node=   258 local x,y,z forces =   -8.7992E-01   -9.1495E-01    0.0000E+00  setid=       0
 node=   258 local x,y,z moments=   -8.0482E-05    5.1424E-04   -7.3785E-06  setid=       0
 node=   259 local x,y,z forces =    0.0000E+00   -1.5180E+00    0.0000E+00  setid=       0
 node=   259 local x,y,z moments=   -2.4733E-05    0.0000E+00   -6.2711E-08  setid=       0
 node=   261 local x,y,z forces =   -1.4645E+00    0.0000E+00    0.0000E+00  setid=       0
 node=   261 local x,y,z moments=    0.0000E+00    4.6165E-04   -1.0236E-06  setid=       0
 node=   262 local x,y,z forces =   -7.2236E-01   -7.6365E-01    0.0000E+00  setid=       0
 node=   262 local x,y,z moments=   -7.1378E-05    5.2686E-04   -8.4885E-06  setid=       0
 node=   263 local x,y,z forces =    0.0000E+00   -1.1759E+00    0.0000E+00  setid=       0
 node=   263 local x,y,z moments=   -1.5285E-05    0.0000E+00   -1.3693E-06  setid=       0
 node=   265 local x,y,z forces =   -1.1008E+00    0.0000E+00    0.0000E+00  setid=       0
 node=   265 local x,y,z moments=    0.0000E+00    4.6808E-04   -5.2762E-07  setid=       0
 node=   266 local x,y,z forces =   -5.4211E-01   -5.9433E-01    0.0000E+00  setid=       0
 node=   266 local x,y,z moments=   -6.4620E-05    5.3808E-04   -1.0781E-05  setid=       0
 node=   267 local x,y,z forces =    0.0000E+00   -8.0777E-01    0.0000E+00  setid=       0
 node=   267 local x,y,z moments=   -7.4740E-06    0.0000E+00   -1.3682E-06  setid=       0
[...]
 node=   603 local x,y,z forces =    0.0000E+00   -1.2054E+01    0.0000E+00  setid=       0
 node=   603 local x,y,z moments=   -5.2302E-03    0.0000E+00    1.1158E-03  setid=       0
 node=   604 local x,y,z forces =    0.0000E+00   -1.5518E+01    0.0000E+00  setid=       0
 node=   604 local x,y,z moments=   -4.0105E-03    0.0000E+00    4.5148E-04  setid=       0
 node=   605 local x,y,z forces =    0.0000E+00   -2.1111E+01    0.0000E+00  setid=       0
 node=   605 local x,y,z moments=   -5.3437E-03    0.0000E+00   -3.6165E-04  setid=       0
 node=   606 local x,y,z forces =    0.0000E+00   -2.7608E+01    0.0000E+00  setid=       0
 node=   606 local x,y,z moments=   -4.6458E-03    0.0000E+00   -1.0786E-03  setid=       0
 node=   607 local x,y,z forces =    0.0000E+00   -3.2050E+01    0.0000E+00  setid=       0
 node=   607 local x,y,z moments=   -8.7162E-03    0.0000E+00   -7.1733E-03  setid=       0
 node=   608 local x,y,z forces =    0.0000E+00    7.4385E+01    0.0000E+00  setid=       0
 node=   608 local x,y,z moments=    4.9379E-02    0.0000E+00   -3.9358E-02  setid=       0
 node=   609 local x,y,z forces =    0.0000E+00    1.3538E+02    0.0000E+00  setid=       0
 node=   609 local x,y,z moments=    2.8288E-02    0.0000E+00    1.6671E-03  setid=       0
 node=   610 local x,y,z forces =    0.0000E+00    1.0521E+02    0.0000E+00  setid=       0
 node=   610 local x,y,z moments=    9.2537E-03    0.0000E+00    2.4128E-03  setid=       0
 node=   611 local x,y,z forces =    0.0000E+00    8.0685E+01    0.0000E+00  setid=       0
 node=   611 local x,y,z moments=    2.3608E-04    0.0000E+00    3.0973E-03  setid=       0
 node=   612 local x,y,z forces =    0.0000E+00   -9.9377E+00    0.0000E+00  setid=       0
 node=   612 local x,y,z moments=   -4.0425E-03    0.0000E+00    3.4521E-03  setid=       0
 node=   613 local x,y,z forces =    0.0000E+00   -1.0700E+01    0.0000E+00  setid=       0
 node=   613 local x,y,z moments=   -3.2398E-03    0.0000E+00    1.1400E-03  setid=       0
 node=   614 local x,y,z forces =    0.0000E+00   -1.2194E+01    0.0000E+00  setid=       0
 node=   614 local x,y,z moments=   -2.1662E-03    0.0000E+00   -4.1775E-04  setid=       0
 node=   615 local x,y,z forces =    0.0000E+00   -1.5565E+01    0.0000E+00  setid=       0
 node=   615 local x,y,z moments=   -1.4266E-04    0.0000E+00    3.4292E-03  setid=       0
 node=   616 local x,y,z forces =    0.0000E+00   -1.7065E+01    0.0000E+00  setid=       0
 node=   616 local x,y,z moments=   -1.0961E-03    0.0000E+00    1.7326E-03  setid=       0
 node=   617 local x,y,z forces =    0.0000E+00   -1.8719E+01    0.0000E+00  setid=       0
 node=   617 local x,y,z moments=   -1.1091E-03    0.0000E+00    1.0451E-03  setid=       0
 node=   618 local x,y,z forces =    0.0000E+00   -1.8679E+01    0.0000E+00  setid=       0
 node=   618 local x,y,z moments=   -7.4765E-04    0.0000E+00    1.4326E-03  setid=       0
 node=   619 local x,y,z forces =    0.0000E+00   -1.9804E+01    0.0000E+00  setid=       0
 node=   619 local x,y,z moments=   -1.0568E-04    0.0000E+00    1.5706E-03  setid=       0
 node=   620 local x,y,z forces =    0.0000E+00   -1.7618E+01    0.0000E+00  setid=       0
 node=   620 local x,y,z moments=   -3.6734E-04    0.0000E+00    2.9614E-03  setid=       0
 node=   621 local x,y,z forces =    0.0000E+00   -1.8807E+01    0.0000E+00  setid=       0
 node=   621 local x,y,z moments=   -6.0500E-04    0.0000E+00    1.9458E-03  setid=       0
 node=   622 local x,y,z forces =    0.0000E+00   -1.9298E+01    0.0000E+00  setid=       0
 node=   622 local x,y,z moments=   -1.2154E-03    0.0000E+00    1.2086E-03  setid=       0
 node=   623 local x,y,z forces =    0.0000E+00   -1.8571E+01    0.0000E+00  setid=       0
 node=   623 local x,y,z moments=   -3.3152E-03    0.0000E+00    1.7208E-03  setid=       0
 node=   624 local x,y,z forces =    0.0000E+00   -1.1400E+01    0.0000E+00  setid=       0
 node=   624 local x,y,z moments=   -2.1830E-03    0.0000E+00    1.1995E-03  setid=       0
 node=   625 local x,y,z forces =    0.0000E+00   -1.3107E+01    0.0000E+00  setid=       0
 node=   625 local x,y,z moments=   -2.2552E-03    0.0000E+00    1.6024E-03  setid=       0
 node=   626 local x,y,z forces =    0.0000E+00   -1.4984E+01    0.0000E+00  setid=       0
 node=   626 local x,y,z moments=   -1.9925E-03    0.0000E+00    1.3365E-03  setid=       0
 node=   627 local x,y,z forces =    0.0000E+00   -1.1271E+01    0.0000E+00  setid=       0
 node=   627 local x,y,z moments=   -1.6237E-03    0.0000E+00    3.2247E-03  setid=       0
 node=   628 local x,y,z forces =    0.0000E+00   -9.9927E+00    0.0000E+00  setid=       0
 node=   628 local x,y,z moments=   -2.8594E-03    0.0000E+00    3.2297E-03  setid=       0
 node=   629 local x,y,z forces =    0.0000E+00   -1.3236E+01    0.0000E+00  setid=       0
 node=   629 local x,y,z moments=   -8.7407E-04    0.0000E+00    3.2646E-03  setid=       0
 node=   630 local x,y,z forces =    0.0000E+00   -1.5374E+01    0.0000E+00  setid=       0
 node=   630 local x,y,z moments=   -2.1294E-03    0.0000E+00    3.9816E-04  setid=       0
 node=   631 local x,y,z forces =    0.0000E+00   -1.3660E+01    0.0000E+00  setid=       0
 node=   631 local x,y,z moments=   -1.5855E-03    0.0000E+00   -2.9988E-04  setid=       0
 node=   632 local x,y,z forces =    0.0000E+00   -1.7183E+01    0.0000E+00  setid=       0
 node=   632 local x,y,z moments=   -1.9794E-03    0.0000E+00    5.6928E-04  setid=       0
 node=   633 local x,y,z forces =    0.0000E+00   -2.0229E+01    0.0000E+00  setid=       0
 node=   633 local x,y,z moments=   -5.2822E-03    0.0000E+00    5.4147E-03  setid=       0
 node=   634 local x,y,z forces =    0.0000E+00   -1.8449E+01    0.0000E+00  setid=       0
 node=   634 local x,y,z moments=   -2.6967E-03    0.0000E+00    1.4216E-03  setid=       0
 node=   635 local x,y,z forces =    0.0000E+00   -1.6294E+01    0.0000E+00  setid=       0
 node=   635 local x,y,z moments=   -1.9868E-03    0.0000E+00   -8.7544E-04  setid=       0
 node=   636 local x,y,z forces =    0.0000E+00   -1.4218E+01    0.0000E+00  setid=       0
 node=   636 local x,y,z moments=   -4.3432E-03    0.0000E+00    1.1222E-03  setid=       0
 node=   637 local x,y,z forces =    0.0000E+00   -1.1468E+01    0.0000E+00  setid=       0
 node=   637 local x,y,z moments=   -4.0860E-03    0.0000E+00    1.0456E-03  setid=       0
 node=   638 local x,y,z forces =    0.0000E+00   -1.5089E+01    0.0000E+00  setid=       0
 node=   638 local x,y,z moments=   -6.1519E-03    0.0000E+00    4.6434E-03  setid=       0
 node=   639 local x,y,z forces =    0.0000E+00   -1.1404E+01    0.0000E+00  setid=       0
 node=   639 local x,y,z moments=   -5.8972E-03    0.0000E+00    4.0254E-03  setid=       0
 node=   640 local x,y,z forces =    0.0000E+00   -1.3466E+01    0.0000E+00  setid=       0
 node=   640 local x,y,z moments=   -2.9337E-03    0.0000E+00   -9.3404E-04  setid=       0
 node=   641 local x,y,z forces =    0.0000E+00   -1.2145E+01    0.0000E+00  setid=       0
 node=   641 local x,y,z moments=   -2.6761E-03    0.0000E+00   -9.0523E-04  setid=       0
 node=   642 local x,y,z forces =    0.0000E+00   -4.7999E+01    0.0000E+00  setid=       0
 node=   642 local x,y,z moments=   -3.5884E-03    0.0000E+00    6.1084E-03  setid=       0
 node=   643 local x,y,z forces =    0.0000E+00   -3.4942E+01    0.0000E+00  setid=       0
 node=   643 local x,y,z moments=   -1.9769E-05    0.0000E+00    3.9203E-03  setid=       0
 node=   644 local x,y,z forces =    0.0000E+00   -2.4684E+01    0.0000E+00  setid=       0
 node=   644 local x,y,z moments=   -1.4264E-03    0.0000E+00    2.1098E-03  setid=       0
 node=   645 local x,y,z forces =    0.0000E+00   -4.1125E+01    0.0000E+00  setid=       0
 node=   645 local x,y,z moments=   -3.8859E-03    0.0000E+00    8.8512E-03  setid=       0
 node=   646 local x,y,z forces =    0.0000E+00   -5.3659E+01    0.0000E+00  setid=       0
 node=   646 local x,y,z moments=   -8.1738E-03    0.0000E+00    9.4022E-03  setid=       0
 node=   647 local x,y,z forces =    0.0000E+00   -2.8625E+01    0.0000E+00  setid=       0
 node=   647 local x,y,z moments=   -5.0612E-03    0.0000E+00    6.8093E-03  setid=       0
 node=   648 local x,y,z forces =    0.0000E+00   -2.8006E+01    0.0000E+00  setid=       0
 node=   648 local x,y,z moments=    7.1329E-04    0.0000E+00    7.3543E-04  setid=       0
 node=   649 local x,y,z forces =    0.0000E+00   -3.9287E+01    0.0000E+00  setid=       0
 node=   649 local x,y,z moments=   -5.6366E-04    0.0000E+00    3.0197E-03  setid=       0
 node=   650 local x,y,z forces =    0.0000E+00   -2.0223E+01    0.0000E+00  setid=       0
 node=   650 local x,y,z moments=   -4.5367E-05    0.0000E+00   -4.3811E-04  setid=       0
 node=   657 local x,y,z forces =    3.4146E-01    0.0000E+00    0.0000E+00  setid=       0
 node=   657 local x,y,z moments=    0.0000E+00    3.1574E-03   -7.2823E-05  setid=       0
 node=   658 local x,y,z forces =   -1.5396E+01    0.0000E+00    0.0000E+00  setid=       0
 node=   658 local x,y,z moments=    0.0000E+00    8.8972E-03   -2.4131E-03  setid=       0
 node=   671 local x,y,z forces =   -5.8210E+00    0.0000E+00    0.0000E+00  setid=       0
 node=   671 local x,y,z moments=    0.0000E+00    2.2359E-03   -3.6348E-04  setid=       0
 node=   672 local x,y,z forces =   -8.0295E+00    0.0000E+00    0.0000E+00  setid=       0
 node=   672 local x,y,z moments=    0.0000E+00    3.1325E-03   -7.8476E-04  setid=       0
 node=   673 local x,y,z forces =   -5.5327E+00    0.0000E+00    0.0000E+00  setid=       0
 node=   673 local x,y,z moments=    0.0000E+00    3.7688E-03   -8.7144E-04  setid=       0
 node=   674 local x,y,z forces =   -5.2355E+00    0.0000E+00    0.0000E+00  setid=       0
 node=   674 local x,y,z moments=    0.0000E+00    3.3340E-03   -1.0377E-03  setid=       0
 node=   681 local x,y,z forces =   -1.5892E+01    0.0000E+00    0.0000E+00  setid=       0
 node=   681 local x,y,z moments=    0.0000E+00    1.6751E-03   -7.9630E-04  setid=       0
 node=   682 local x,y,z forces =   -1.3567E+01    0.0000E+00    0.0000E+00  setid=       0
 node=   682 local x,y,z moments=    0.0000E+00    1.9917E-03   -8.2863E-04  setid=       0
 node=   695 local x,y,z forces =   -7.5998E+00    0.0000E+00    0.0000E+00  setid=       0
 node=   695 local x,y,z moments=    0.0000E+00   -8.1286E-04    6.7183E-04  setid=       0
 node=   696 local x,y,z forces =   -1.0559E+01    0.0000E+00    0.0000E+00  setid=       0
 node=   696 local x,y,z moments=    0.0000E+00    6.5467E-04   -2.4251E-04  setid=       0
 node=   697 local x,y,z forces =   -8.1021E+00    0.0000E+00    0.0000E+00  setid=       0
 node=   697 local x,y,z moments=    0.0000E+00    8.8725E-04   -2.3945E-04  setid=       0
 node=   698 local x,y,z forces =   -5.6261E+00    0.0000E+00    0.0000E+00  setid=       0
 node=   698 local x,y,z moments=    0.0000E+00   -1.3564E-03    6.9779E-04  setid=       0
 node=   711 local x,y,z forces =   -2.0925E+01    0.0000E+00    0.0000E+00  setid=       0
 node=   711 local x,y,z moments=    0.0000E+00    3.6682E-03   -1.2017E-03  setid=       0
 node=   712 local x,y,z forces =   -1.8855E+01    0.0000E+00    0.0000E+00  setid=       0
 node=   712 local x,y,z moments=    0.0000E+00    3.5004E-03   -4.7652E-04  setid=       0
 node=   713 local x,y,z forces =   -2.0999E+01    0.0000E+00    0.0000E+00  setid=       0
 node=   713 local x,y,z moments=    0.0000E+00    3.8599E-03   -7.0799E-04  setid=       0
 node=   714 local x,y,z forces =   -2.1755E+01    0.0000E+00    0.0000E+00  setid=       0
 node=   714 local x,y,z moments=    0.0000E+00    3.9796E-03   -1.1748E-03  setid=       0
 node=   721 local x,y,z forces =   -2.2202E+01    0.0000E+00    0.0000E+00  setid=       0
 node=   721 local x,y,z moments=    0.0000E+00    5.0123E-03   -1.3307E-03  setid=       0
 node=   722 local x,y,z forces =   -2.1919E+01    0.0000E+00    0.0000E+00  setid=       0
 node=   722 local x,y,z moments=    0.0000E+00    6.2040E-03   -1.7703E-03  setid=       0
 node=   735 local x,y,z forces =   -6.1607E+00    0.0000E+00    0.0000E+00  setid=       0
 node=   735 local x,y,z moments=    0.0000E+00    1.2918E-03   -2.7747E-03  setid=       0
 node=   736 local x,y,z forces =   -1.6044E+01    0.0000E+00    0.0000E+00  setid=       0
 node=   736 local x,y,z moments=    0.0000E+00    2.7593E-03   -3.3284E-04  setid=       0
 node=   737 local x,y,z forces =   -1.3482E+01    0.0000E+00    0.0000E+00  setid=       0
 node=   737 local x,y,z moments=    0.0000E+00    2.2090E-03   -7.5020E-05  setid=       0
 node=   738 local x,y,z forces =   -5.0025E+00    0.0000E+00    0.0000E+00  setid=       0
 node=   738 local x,y,z moments=    0.0000E+00    1.4411E-03   -2.1773E-03  setid=       0
 node=   745 local x,y,z forces =   -7.6914E+00    0.0000E+00    0.0000E+00  setid=       0
 node=   745 local x,y,z moments=    0.0000E+00    1.9496E-03   -3.4087E-03  setid=       0
 node=   746 local x,y,z forces =   -9.2691E+00    0.0000E+00    0.0000E+00  setid=       0
 node=   746 local x,y,z moments=    0.0000E+00    2.6019E-03   -3.7936E-03  setid=       0
 node=   753 local x,y,z forces =   -9.4215E+00    0.0000E+00    0.0000E+00  setid=       0
 node=   753 local x,y,z moments=    0.0000E+00    7.9637E-04    4.7583E-04  setid=       0
 node=   754 local x,y,z forces =   -1.2896E+01    0.0000E+00    0.0000E+00  setid=       0
 node=   754 local x,y,z moments=    0.0000E+00    1.3892E-03   -2.8411E-04  setid=       0
 node=   761 local x,y,z forces =   -5.0970E+00    0.0000E+00    0.0000E+00  setid=       0
 node=   761 local x,y,z moments=    0.0000E+00    1.1477E-03   -1.4371E-03  setid=       0
 node=   762 local x,y,z forces =   -2.1175E+01    0.0000E+00    0.0000E+00  setid=       0
 node=   762 local x,y,z moments=    0.0000E+00    5.1563E-03   -1.9400E-03  setid=       0
 node=   769 local x,y,z forces =   -1.9270E+01    0.0000E+00    0.0000E+00  setid=       0
 node=   769 local x,y,z moments=    0.0000E+00    2.9269E-03   -9.7374E-04  setid=       0
 node=   770 local x,y,z forces =   -1.7260E+01    0.0000E+00    0.0000E+00  setid=       0
 node=   770 local x,y,z moments=    0.0000E+00    2.7856E-03   -9.3267E-04  setid=       0
 node=   780 local x,y,z forces =   -4.3902E+00    0.0000E+00    0.0000E+00  setid=       0
 node=   780 local x,y,z moments=    0.0000E+00    3.7520E-04   -5.7143E-04  setid=       0
 node=   781 local x,y,z forces =   -6.6617E+00    0.0000E+00    0.0000E+00  setid=       0
 node=   781 local x,y,z moments=    0.0000E+00    4.0555E-03   -4.1259E-03  setid=       0
 node=   782 local x,y,z forces =   -9.0477E+00    0.0000E+00    0.0000E+00  setid=       0
 node=   782 local x,y,z moments=    0.0000E+00    4.4277E-03   -6.5444E-03  setid=       0
 node=   795 local x,y,z forces =   -2.2110E+01    0.0000E+00    0.0000E+00  setid=       0
 node=   795 local x,y,z moments=    0.0000E+00    3.7734E-03   -1.0652E-03  setid=       0
 node=   796 local x,y,z forces =   -1.0584E+01    0.0000E+00    0.0000E+00  setid=       0
 node=   796 local x,y,z moments=    0.0000E+00    3.7410E-03   -3.6745E-03  setid=       0
 node=   797 local x,y,z forces =   -3.0144E+00    0.0000E+00    0.0000E+00  setid=       0
 node=   797 local x,y,z moments=    0.0000E+00    2.1879E-03   -1.1110E-03  setid=       0
 node=   798 local x,y,z forces =   -6.3481E+00    0.0000E+00    0.0000E+00  setid=       0
 node=   798 local x,y,z moments=    0.0000E+00   -2.9522E-05   -1.7049E-03  setid=       0
 node=   802 local x,y,z forces =   -1.1005E+01    0.0000E+00    0.0000E+00  setid=       0
 node=   802 local x,y,z moments=    0.0000E+00    2.2254E-03   -8.0300E-04  setid=       0
 node=   809 local x,y,z forces =   -6.1400E+00    0.0000E+00    0.0000E+00  setid=       0
 node=   809 local x,y,z moments=    0.0000E+00   -9.9232E-04   -3.5712E-03  setid=       0
 node=   810 local x,y,z forces =    8.3329E+00    0.0000E+00    0.0000E+00  setid=       0
 node=   810 local x,y,z moments=    0.0000E+00    6.3936E-03    1.7603E-03  setid=       0
 node=   814 local x,y,z forces =   -4.7496E+00    0.0000E+00    0.0000E+00  setid=       0
 node=   814 local x,y,z moments=    0.0000E+00    2.6728E-03   -1.4738E-03  setid=       0
 node=   824 local x,y,z forces =   -2.1473E+00    0.0000E+00    0.0000E+00  setid=       0
 node=   824 local x,y,z moments=    0.0000E+00    8.8537E-03   -3.2703E-05  setid=       0
 node=   825 local x,y,z forces =   -3.7959E+00    0.0000E+00    0.0000E+00  setid=       0
 node=   825 local x,y,z moments=    0.0000E+00   -1.0028E-03    6.8079E-04  setid=       0
 node=   826 local x,y,z forces =   -1.5475E+00    0.0000E+00    0.0000E+00  setid=       0
 node=   826 local x,y,z moments=    0.0000E+00    1.5356E-02    1.1936E-03  setid=       0
 node=   833 local x,y,z forces =   -1.1226E+01    0.0000E+00    0.0000E+00  setid=       0
 node=   833 local x,y,z moments=    0.0000E+00    1.3099E-03    1.7945E-04  setid=       0
 node=   834 local x,y,z forces =   -1.5058E+01    0.0000E+00    0.0000E+00  setid=       0
 node=   834 local x,y,z moments=    0.0000E+00    1.5358E-03   -4.7457E-04  setid=       0
 node=   838 local x,y,z forces =   -2.1421E+01    0.0000E+00    0.0000E+00  setid=       0
 node=   838 local x,y,z moments=    0.0000E+00    3.8905E-03   -1.0650E-03  setid=       0
 node=   842 local x,y,z forces =   -1.9938E+01    0.0000E+00    0.0000E+00  setid=       0
 node=   842 local x,y,z moments=    0.0000E+00    3.8438E-03   -1.3974E-03  setid=       0
 node=   849 local x,y,z forces =   -2.4969E+00    0.0000E+00    0.0000E+00  setid=       0
 node=   849 local x,y,z moments=    0.0000E+00    3.6103E-03   -5.5224E-04  setid=       0
 node=   850 local x,y,z forces =   -2.1574E+00    0.0000E+00    0.0000E+00  setid=       0
 node=   850 local x,y,z moments=    0.0000E+00    5.9164E-03   -2.5747E-04  setid=       0
 node=   857 local x,y,z forces =   -1.3246E+01    0.0000E+00    0.0000E+00  setid=       0
 node=   857 local x,y,z moments=    0.0000E+00    1.3928E-03   -5.0398E-03  setid=       0
 node=   858 local x,y,z forces =    9.6291E+00    0.0000E+00    0.0000E+00  setid=       0
 node=   858 local x,y,z moments=    0.0000E+00   -1.9741E-03    2.9880E-03  setid=       0
 node=   862 local x,y,z forces =   -3.9371E+00    0.0000E+00    0.0000E+00  setid=       0
 node=   862 local x,y,z moments=    0.0000E+00    1.9325E-03   -1.5733E-03  setid=       0
 node=   869 local x,y,z forces =   -2.6905E+01    0.0000E+00    0.0000E+00  setid=       0
 node=   869 local x,y,z moments=    0.0000E+00   -2.8305E-03   -1.0718E-02  setid=       0
 node=   870 local x,y,z forces =    2.1864E+00    0.0000E+00    0.0000E+00  setid=       0
 node=   870 local x,y,z moments=    0.0000E+00   -3.5917E-02    9.2744E-03  setid=       0
 node=   874 local x,y,z forces =   -1.8238E+01    0.0000E+00    0.0000E+00  setid=       0
 node=   874 local x,y,z moments=    0.0000E+00    2.3708E-03   -1.1887E-03  setid=       0
 node=   878 local x,y,z forces =   -3.2823E+00    0.0000E+00    0.0000E+00  setid=       0
 node=   878 local x,y,z moments=    0.0000E+00    3.1752E-03   -1.2638E-03  setid=       0
 node=   885 local x,y,z forces =   -5.1471E+00    0.0000E+00    0.0000E+00  setid=       0
 node=   885 local x,y,z moments=    0.0000E+00    1.8754E-02    1.3347E-02  setid=       0
 node=   886 local x,y,z forces =    3.0741E+00    0.0000E+00    0.0000E+00  setid=       0
 node=   886 local x,y,z moments=    0.0000E+00   -8.1984E-02    5.3183E-03  setid=       0
 node=   890 local x,y,z forces =   -1.0714E+00    0.0000E+00    0.0000E+00  setid=       0
 node=   890 local x,y,z moments=    0.0000E+00    2.6306E-02    6.6604E-03  setid=       0
             force resultants   =    1.6667E+01   -1.1709E+02    1.9702E+03
