 LS-DYNA keyword deck by LS-PrePost                                      
                    ls-dyna smp d R14 R14.1.1s_1_ef50e1 date 06/16/2024

 n o d a l   f o r c e/e n e r g y    o u t p u t  t=   0.00000E+00

 velocity boundary condition forces/rigid body moments 

 nd#     354  xforce=   0.0000E+00   yforce=   0.0000E+00  zforce=   0.0000E+00   energy=   0.0000E+00   setid =     354 xmoment=   0.0000E+00 ymoment=   0.0000E+00 zmoment=   0.0000E+00
 nd#     355  xforce=   0.0000E+00   yforce=   0.0000E+00  zforce=   0.0000E+00   energy=   0.0000E+00   setid =     355 xmoment=   0.0000E+00 ymoment=   0.0000E+00 zmoment=   0.0000E+00
 nd#     356  xforce=   0.0000E+00   yforce=   0.0000E+00  zforce=   0.0000E+00   energy=   0.0000E+00   setid =     356 xmoment=   0.0000E+00 ymoment=   0.0000E+00 zmoment=   0.0000E+00
 nd#     357  xforce=   0.0000E+00   yforce=   0.0000E+00  zforce=   0.0000E+00   energy=   0.0000E+00   setid =     357 xmoment=   0.0000E+00 ymoment=   0.0000E+00 zmoment=   0.0000E+00
 nd#     403  xforce=   0.0000E+00   yforce=   0.0000E+00  zforce=   0.0000E+00   energy=   0.0000E+00   setid =     403 xmoment=   0.0000E+00 ymoment=   0.0000E+00 zmoment=   0.0000E+00
 nd#     404  xforce=   0.0000E+00   yforce=   0.0000E+00  zforce=   0.0000E+00   energy=   0.0000E+00   setid =     404 xmoment=   0.0000E+00 ymoment=   0.0000E+00 zmoment=   0.0000E+00
 nd#     405  xforce=   0.0000E+00   yforce=   0.0000E+00  zforce=   0.0000E+00   energy=   0.0000E+00   setid =     405 xmoment=   0.0000E+00 ymoment=   0.0000E+00 zmoment=   0.0000E+00
 nd#     466  xforce=   0.0000E+00   yforce=   0.0000E+00  zforce=   0.0000E+00   energy=   0.0000E+00   setid =     466 xmoment=   0.0000E+00 ymoment=   0.0000E+00 zmoment=   0.0000E+00
 nd#     467  xforce=   0.0000E+00   yforce=   0.0000E+00  zforce=   0.0000E+00   energy=   0.0000E+00   setid =     467 xmoment=   0.0000E+00 ymoment=   0.0000E+00 zmoment=   0.0000E+00
 nd#     468  xforce=   0.0000E+00   yforce=   0.0000E+00  zforce=   0.0000E+00   energy=   0.0000E+00   setid =     468 xmoment=   0.0000E+00 ymoment=   0.0000E+00 zmoment=   0.0000E+00
 nd#     469  xforce=   0.0000E+00   yforce=   0.0000E+00  zforce=   0.0000E+00   energy=   0.0000E+00   setid =     469 xmoment=   0.0000E+00 ymoment=   0.0000E+00 zmoment=   0.0000E+00
 nd#     530  xforce=   0.0000E+00   yforce=   0.0000E+00  zforce=   0.0000E+00   energy=   0.0000E+00   setid =     530 xmoment=   0.0000E+00 ymoment=   0.0000E+00 zmoment=   0.0000E+00
 nd#     531  xforce=   0.0000E+00   yforce=   0.0000E+00  zforce=   0.0000E+00   energy=   0.0000E+00   setid =     531 xmoment=   0.0000E+00 ymoment=   0.0000E+00 zmoment=   0.0000E+00
 nd#     532  xforce=   0.0000E+00   yforce=   0.0000E+00  zforce=   0.0000E+00   energy=   0.0000E+00   setid =     532 xmoment=   0.0000E+00 ymoment=   0.0000E+00 zmoment=   0.0000E+00
 nd#     533  xforce=   0.0000E+00   yforce=   0.0000E+00  zforce=   0.0000E+00   energy=   0.0000E+00   setid =     533 xmoment=   0.0000E+00 ymoment=   0.0000E+00 zmoment=   0.0000E+00
 nd#     549  xforce=   0.0000E+00   yforce=   0.0000E+00  zforce=   0.0000E+00   energy=   0.0000E+00   setid =     549 xmoment=   0.0000E+00 ymoment=   0.0000E+00 zmoment=   0.0000E+00
 nd#     610  xforce=   0.0000E+00   yforce=   0.0000E+00  zforce=   0.0000E+00   energy=   0.0000E+00   setid =     610 xmoment=   0.0000E+00 ymoment=   0.0000E+00 zmoment=   0.0000E+00
 nd#     611  xforce=   0.0000E+00   yforce=   0.0000E+00  zforce=   0.0000E+00   energy=   0.0000E+00   setid =     611 xmoment=   0.0000E+00 ymoment=   0.0000E+00 zmoment=   0.0000E+00
 nd#     612  xforce=   0.0000E+00   yforce=   0.0000E+00  zforce=   0.0000E+00   energy=   0.0000E+00   setid =     612 xmoment=   0.0000E+00 ymoment=   0.0000E+00 zmoment=   0.0000E+00
 nd#     613  xforce=   0.0000E+00   yforce=   0.0000E+00  zforce=   0.0000E+00   energy=   0.0000E+00   setid =     613 xmoment=   0.0000E+00 ymoment=   0.0000E+00 zmoment=   0.0000E+00
 nd#     629  xforce=   0.0000E+00   yforce=   0.0000E+00  zforce=   0.0000E+00   energy=   0.0000E+00   setid =     629 xmoment=   0.0000E+00 ymoment=   0.0000E+00 zmoment=   0.0000E+00
 nd#     660  xforce=   0.0000E+00   yforce=   0.0000E+00  zforce=   0.0000E+00   energy=   0.0000E+00   setid =     660 xmoment=   0.0000E+00 ymoment=   0.0000E+00 zmoment=   0.0000E+00
 nd#     661  xforce=   0.0000E+00   yforce=   0.0000E+00  zforce=   0.0000E+00   energy=   0.0000E+00   setid =     661 xmoment=   0.0000E+00 ymoment=   0.0000E+00 zmoment=   0.0000E+00
 nd#     692  xforce=   0.0000E+00   yforce=   0.0000E+00  zforce=   0.0000E+00   energy=   0.0000E+00   setid =     692 xmoment=   0.0000E+00 ymoment=   0.0000E+00 zmoment=   0.0000E+00
 nd#     693  xforce=   0.0000E+00   yforce=   0.0000E+00  zforce=   0.0000E+00   energy=   0.0000E+00   setid =     693 xmoment=   0.0000E+00 ymoment=   0.0000E+00 zmoment=   0.0000E+00
 nd#     724  xforce=   0.0000E+00   yforce=   0.0000E+00  zforce=   0.0000E+00   energy=   0.0000E+00   setid =     724 xmoment=   0.0000E+00 ymoment=   0.0000E+00 zmoment=   0.0000E+00
 nd#     725  xforce=   0.0000E+00   yforce=   0.0000E+00  zforce=   0.0000E+00   energy=   0.0000E+00   setid =     725 xmoment=   0.0000E+00 ymoment=   0.0000E+00 zmoment=   0.0000E+00
 nd#     771  xforce=   0.0000E+00   yforce=   0.0000E+00  zforce=   0.0000E+00   energy=   0.0000E+00   setid =     771 xmoment=   0.0000E+00 ymoment=   0.0000E+00 zmoment=   0.0000E+00
 nd#     772  xforce=   0.0000E+00   yforce=   0.0000E+00  zforce=   0.0000E+00   energy=   0.0000E+00   setid =     772 xmoment=   0.0000E+00 ymoment=   0.0000E+00 zmoment=   0.0000E+00
 nd#     773  xforce=   0.0000E+00   yforce=   0.0000E+00  zforce=   0.0000E+00   energy=   0.0000E+00   setid =     773 xmoment=   0.0000E+00 ymoment=   0.0000E+00 zmoment=   0.0000E+00
 nd#     804  xforce=   0.0000E+00   yforce=   0.0000E+00  zforce=   0.0000E+00   energy=   0.0000E+00   setid =     804 xmoment=   0.0000E+00 ymoment=   0.0000E+00 zmoment=   0.0000E+00
 nd#     805  xforce=   0.0000E+00   yforce=   0.0000E+00  zforce=   0.0000E+00   energy=   0.0000E+00   setid =     805 xmoment=   0.0000E+00 ymoment=   0.0000E+00 zmoment=   0.0000E+00
 nd#     821  xforce=   0.0000E+00   yforce=   0.0000E+00  zforce=   0.0000E+00   energy=   0.0000E+00   setid =     821 xmoment=   0.0000E+00 ymoment=   0.0000E+00 zmoment=   0.0000E+00
 nd#     852  xforce=   0.0000E+00   yforce=   0.0000E+00  zforce=   0.0000E+00   energy=   0.0000E+00   setid =     852 xmoment=   0.0000E+00 ymoment=   0.0000E+00 zmoment=   0.0000E+00
 nd#     853  xforce=   0.0000E+00   yforce=   0.0000E+00  zforce=   0.0000E+00   energy=   0.0000E+00   setid =     853 xmoment=   0.0000E+00 ymoment=   0.0000E+00 zmoment=   0.0000E+00
 nd#     869  xforce=   0.0000E+00   yforce=   0.0000E+00  zforce=   0.0000E+00   energy=   0.0000E+00   setid =     869 xmoment=   0.0000E+00 ymoment=   0.0000E+00 zmoment=   0.0000E+00
 nd#     885  xforce=   0.0000E+00   yforce=   0.0000E+00  zforce=   0.0000E+00   energy=   0.0000E+00   setid =     885 xmoment=   0.0000E+00 ymoment=   0.0000E+00 zmoment=   0.0000E+00
 nd#    1082  xforce=   0.0000E+00   yforce=   0.0000E+00  zforce=   0.0000E+00   energy=   0.0000E+00   setid =    1082 xmoment=   0.0000E+00 ymoment=   0.0000E+00 zmoment=   0.0000E+00
 nd#    1083  xforce=   0.0000E+00   yforce=   0.0000E+00  zforce=   0.0000E+00   energy=   0.0000E+00   setid =    1083 xmoment=   0.0000E+00 ymoment=   0.0000E+00 zmoment=   0.0000E+00
 nd#    1084  xforce=   0.0000E+00   yforce=   0.0000E+00  zforce=   0.0000E+00   energy=   0.0000E+00   setid =    1084 xmoment=   0.0000E+00 ymoment=   0.0000E+00 zmoment=   0.0000E+00
 nd#    1085  xforce=   0.0000E+00   yforce=   0.0000E+00  zforce=   0.0000E+00   energy=   0.0000E+00   setid =    1085 xmoment=   0.0000E+00 ymoment=   0.0000E+00 zmoment=   0.0000E+00
 nd#    1086  xforce=   0.0000E+00   yforce=   0.0000E+00  zforce=   0.0000E+00   energy=   0.0000E+00   setid =    1086 xmoment=   0.0000E+00 ymoment=   0.0000E+00 zmoment=   0.0000E+00
 nd#    1087  xforce=   0.0000E+00   yforce=   0.0000E+00  zforce=   0.0000E+00   energy=   0.0000E+00   setid =    1087 xmoment=   0.0000E+00 ymoment=   0.0000E+00 zmoment=   0.0000E+00
 nd#    1649  xforce=   0.0000E+00   yforce=   0.0000E+00  zforce=   0.0000E+00   energy=   0.0000E+00   setid =    1649 xmoment=   0.0000E+00 ymoment=   0.0000E+00 zmoment=   0.0000E+00
 nd#    1651  xforce=   0.0000E+00   yforce=   0.0000E+00  zforce=   0.0000E+00   energy=   0.0000E+00   setid =    1651 xmoment=   0.0000E+00 ymoment=   0.0000E+00 zmoment=   0.0000E+00
 nd#    1653  xforce=   0.0000E+00   yforce=   0.0000E+00  zforce=   0.0000E+00   energy=   0.0000E+00   setid =    1653 xmoment=   0.0000E+00 ymoment=   0.0000E+00 zmoment=   0.0000E+00
 nd#    1655  xforce=   0.0000E+00   yforce=   0.0000E+00  zforce=   0.0000E+00   energy=   0.0000E+00   setid =    1655 xmoment=   0.0000E+00 ymoment=   0.0000E+00 zmoment=   0.0000E+00
 nd#    1657  xforce=   0.0000E+00   yforce=   0.0000E+00  zforce=   0.0000E+00   energy=   0.0000E+00   setid =    1657 xmoment=   0.0000E+00 ymoment=   0.0000E+00 zmoment=   0.0000E+00
 nd#    1659  xforce=   0.0000E+00   yforce=   0.0000E+00  zforce=   0.0000E+00   energy=   0.0000E+00   setid =    1659 xmoment=   0.0000E+00 ymoment=   0.0000E+00 zmoment=   0.0000E+00
 nd#    1733  xforce=   0.0000E+00   yforce=   0.0000E+00  zforce=   0.0000E+00   energy=   0.0000E+00   setid =    1733 xmoment=   0.0000E+00 ymoment=   0.0000E+00 zmoment=   0.0000E+00
 nd#    1734  xforce=   0.0000E+00   yforce=   0.0000E+00  zforce=   0.0000E+00   energy=   0.0000E+00   setid =    1734 xmoment=   0.0000E+00 ymoment=   0.0000E+00 zmoment=   0.0000E+00
 nd#    1735  xforce=   0.0000E+00   yforce=   0.0000E+00  zforce=   0.0000E+00   energy=   0.0000E+00   setid =    1735 xmoment=   0.0000E+00 ymoment=   0.0000E+00 zmoment=   0.0000E+00
 nd#    1736  xforce=   0.0000E+00   yforce=   0.0000E+00  zforce=   0.0000E+00   energy=   0.0000E+00   setid =    1736 xmoment=   0.0000E+00 ymoment=   0.0000E+00 zmoment=   0.0000E+00
 nd#    1737  xforce=   0.0000E+00   yforce=   0.0000E+00  zforce=   0.0000E+00   energy=   0.0000E+00   setid =    1737 xmoment=   0.0000E+00 ymoment=   0.0000E+00 zmoment=   0.0000E+00
 nd#    1738  xforce=   0.0000E+00   yforce=   0.0000E+00  zforce=   0.0000E+00   energy=   0.0000E+00   setid =    1738 xmoment=   0.0000E+00 ymoment=   0.0000E+00 zmoment=   0.0000E+00
 nd#    1739  xforce=   0.0000E+00   yforce=   0.0000E+00  zforce=   0.0000E+00   energy=   0.0000E+00   setid =    1739 xmoment=   0.0000E+00 ymoment=   0.0000E+00 zmoment=   0.0000E+00
 nd#    1740  xforce=   0.0000E+00   yforce=   0.0000E+00  zforce=   0.0000E+00   energy=   0.0000E+00   setid =    1740 xmoment=   0.0000E+00 ymoment=   0.0000E+00 zmoment=   0.0000E+00
 nd#    1741  xforce=   0.0000E+00   yforce=   0.0000E+00  zforce=   0.0000E+00   energy=   0.0000E+00   setid =    1741 xmoment=   0.0000E+00 ymoment=   0.0000E+00 zmoment=   0.0000E+00
 nd#    1742  xforce=   0.0000E+00   yforce=   0.0000E+00  zforce=   0.0000E+00   energy=   0.0000E+00   setid =    1742 xmoment=   0.0000E+00 ymoment=   0.0000E+00 zmoment=   0.0000E+00
 nd#    1743  xforce=   0.0000E+00   yforce=   0.0000E+00  zforce=   0.0000E+00   energy=   0.0000E+00   setid =    1743 xmoment=   0.0000E+00 ymoment=   0.0000E+00 zmoment=   0.0000E+00
 nd#    1744  xforce=   0.0000E+00   yforce=   0.0000E+00  zforce=   0.0000E+00   energy=   0.0000E+00   setid =    1744 xmoment=   0.0000E+00 ymoment=   0.0000E+00 zmoment=   0.0000E+00
 nd#    1751  xforce=   0.0000E+00   yforce=   0.0000E+00  zforce=   0.0000E+00   energy=   0.0000E+00   setid =    1751 xmoment=   0.0000E+00 ymoment=   0.0000E+00 zmoment=   0.0000E+00
 nd#    1752  xforce=   0.0000E+00   yforce=   0.0000E+00  zforce=   0.0000E+00   energy=   0.0000E+00   setid =    1752 xmoment=   0.0000E+00 ymoment=   0.0000E+00 zmoment=   0.0000E+00
 nd#    1753  xforce=   0.0000E+00   yforce=   0.0000E+00  zforce=   0.0000E+00   energy=   0.0000E+00   setid =    1753 xmoment=   0.0000E+00 ymoment=   0.0000E+00 zmoment=   0.0000E+00
 nd#    1754  xforce=   0.0000E+00   yforce=   0.0000E+00  zforce=   0.0000E+00   energy=   0.0000E+00   setid =    1754 xmoment=   0.0000E+00 ymoment=   0.0000E+00 zmoment=   0.0000E+00
 nd#    1755  xforce=   0.0000E+00   yforce=   0.0000E+00  zforce=   0.0000E+00   energy=   0.0000E+00   setid =    1755 xmoment=   0.0000E+00 ymoment=   0.0000E+00 zmoment=   0.0000E+00
 nd#    1756  xforce=   0.0000E+00   yforce=   0.0000E+00  zforce=   0.0000E+00   energy=   0.0000E+00   setid =    1756 xmoment=   0.0000E+00 ymoment=   0.0000E+00 zmoment=   0.0000E+00
 nd#    1757  xforce=   0.0000E+00   yforce=   0.0000E+00  zforce=   0.0000E+00   energy=   0.0000E+00   setid =    1757 xmoment=   0.0000E+00 ymoment=   0.0000E+00 zmoment=   0.0000E+00
 nd#    1758  xforce=   0.0000E+00   yforce=   0.0000E+00  zforce=   0.0000E+00   energy=   0.0000E+00   setid =    1758 xmoment=   0.0000E+00 ymoment=   0.0000E+00 zmoment=   0.0000E+00
 nd#    1759  xforce=   0.0000E+00   yforce=   0.0000E+00  zforce=   0.0000E+00   energy=   0.0000E+00   setid =    1759 xmoment=   0.0000E+00 ymoment=   0.0000E+00 zmoment=   0.0000E+00
 nd#    1760  xforce=   0.0000E+00   yforce=   0.0000E+00  zforce=   0.0000E+00   energy=   0.0000E+00   setid =    1760 xmoment=   0.0000E+00 ymoment=   0.0000E+00 zmoment=   0.0000E+00
 nd#    1761  xforce=   0.0000E+00   yforce=   0.0000E+00  zforce=   0.0000E+00   energy=   0.0000E+00   setid =    1761 xmoment=   0.0000E+00 ymoment=   0.0000E+00 zmoment=   0.0000E+00
 nd#    1762  xforce=   0.0000E+00   yforce=   0.0000E+00  zforce=   0.0000E+00   energy=   0.0000E+00   setid =    1762 xmoment=   0.0000E+00 ymoment=   0.0000E+00 zmoment=   0.0000E+00
 nd#    1769  xforce=   0.0000E+00   yforce=   0.0000E+00  zforce=   0.0000E+00   energy=   0.0000E+00   setid =    1769 xmoment=   0.0000E+00 ymoment=   0.0000E+00 zmoment=   0.0000E+00
 nd#    1770  xforce=   0.0000E+00   yforce=   0.0000E+00  zforce=   0.0000E+00   energy=   0.0000E+00   setid =    1770 xmoment=   0.0000E+00 ymoment=   0.0000E+00 zmoment=   0.0000E+00
 nd#    1771  xforce=   0.0000E+00   yforce=   0.0000E+00  zforce=   0.0000E+00   energy=   0.0000E+00   setid =    1771 xmoment=   0.0000E+00 ymoment=   0.0000E+00 zmoment=   0.0000E+00
 nd#    1772  xforce=   0.0000E+00   yforce=   0.0000E+00  zforce=   0.0000E+00   energy=   0.0000E+00   setid =    1772 xmoment=   0.0000E+00 ymoment=   0.0000E+00 zmoment=   0.0000E+00
 nd#    1773  xforce=   0.0000E+00   yforce=   0.0000E+00  zforce=   0.0000E+00   energy=   0.0000E+00   setid =    1773 xmoment=   0.0000E+00 ymoment=   0.0000E+00 zmoment=   0.0000E+00
 nd#    1774  xforce=   0.0000E+00   yforce=   0.0000E+00  zforce=   0.0000E+00   energy=   0.0000E+00   setid =    1774 xmoment=   0.0000E+00 ymoment=   0.0000E+00 zmoment=   0.0000E+00
              xtotal=   0.0000E+00   ytotal=   0.0000E+00  ztotal=   0.0000E+00   etotal=   0.0000E+00

 n o d a l   f o r c e/e n e r g y    o u t p u t  t=   2.50000E+00

 velocity boundary condition forces/rigid body moments 

 nd#     354  xforce=   0.0000E+00   yforce=   0.0000E+00  zforce=  -1.4226E+01   energy=   8.8911E-05   setid =     354 xmoment=   0.0000E+00 ymoment=   0.0000E+00 zmoment=   0.0000E+00
 nd#     355  xforce=   0.0000E+00   yforce=   0.0000E+00  zforce=  -2.1145E+01   energy=   1.3215E-04   setid =     355 xmoment=   0.0000E+00 ymoment=   0.0000E+00 zmoment=   0.0000E+00
 nd#     356  xforce=   0.0000E+00   yforce=   0.0000E+00  zforce=  -1.0937E+01   energy=   6.8356E-05   setid =     356 xmoment=   0.0000E+00 ymoment=   0.0000E+00 zmoment=   0.0000E+00
 nd#     357  xforce=   0.0000E+00   yforce=   0.0000E+00  zforce=  -7.6686E+00   energy=   4.7929E-05   setid =     357 xmoment=   0.0000E+00 ymoment=   0.0000E+00 zmoment=   0.0000E+00
 nd#     403  xforce=   0.0000E+00   yforce=   0.0000E+00  zforce=  -9.3419E+00   energy=   5.8387E-05   setid =     403 xmoment=   0.0000E+00 ymoment=   0.0000E+00 zmoment=   0.0000E+00
 nd#     404  xforce=   0.0000E+00   yforce=   0.0000E+00  zforce=  -1.2438E+01   energy=   7.7738E-05   setid =     404 xmoment=   0.0000E+00 ymoment=   0.0000E+00 zmoment=   0.0000E+00
 nd#     405  xforce=   0.0000E+00   yforce=   0.0000E+00  zforce=  -1.1464E+01   energy=   7.1649E-05   setid =     405 xmoment=   0.0000E+00 ymoment=   0.0000E+00 zmoment=   0.0000E+00
 nd#     466  xforce=   0.0000E+00   yforce=   0.0000E+00  zforce=  -4.9448E+00   energy=   3.0905E-05   setid =     466 xmoment=   0.0000E+00 ymoment=   0.0000E+00 zmoment=   0.0000E+00
 nd#     467  xforce=   0.0000E+00   yforce=   0.0000E+00  zforce=  -7.3292E+00   energy=   4.5807E-05   setid =     467 xmoment=   0.0000E+00 ymoment=   0.0000E+00 zmoment=   0.0000E+00
 nd#     468  xforce=   0.0000E+00   yforce=   0.0000E+00  zforce=  -9.3958E+00   energy=   5.8724E-05   setid =     468 xmoment=   0.0000E+00 ymoment=   0.0000E+00 zmoment=   0.0000E+00
 nd#     469  xforce=   0.0000E+00   yforce=   0.0000E+00  zforce=  -7.8913E+00   energy=   4.9320E-05   setid =     469 xmoment=   0.0000E+00 ymoment=   0.0000E+00 zmoment=   0.0000E+00
 nd#     530  xforce=   0.0000E+00   yforce=   0.0000E+00  zforce=  -7.9950E+00   energy=   4.9969E-05   setid =     530 xmoment=   0.0000E+00 ymoment=   0.0000E+00 zmoment=   0.0000E+00
 nd#     531  xforce=   0.0000E+00   yforce=   0.0000E+00  zforce=  -1.0170E+01   energy=   6.3563E-05   setid =     531 xmoment=   0.0000E+00 ymoment=   0.0000E+00 zmoment=   0.0000E+00
 nd#     532  xforce=   0.0000E+00   yforce=   0.0000E+00  zforce=  -1.1163E+01   energy=   6.9767E-05   setid =     532 xmoment=   0.0000E+00 ymoment=   0.0000E+00 zmoment=   0.0000E+00
 nd#     533  xforce=   0.0000E+00   yforce=   0.0000E+00  zforce=  -9.0337E+00   energy=   5.6461E-05   setid =     533 xmoment=   0.0000E+00 ymoment=   0.0000E+00 zmoment=   0.0000E+00
 nd#     549  xforce=   0.0000E+00   yforce=   0.0000E+00  zforce=  -6.2098E+00   energy=   3.8811E-05   setid =     549 xmoment=   0.0000E+00 ymoment=   0.0000E+00 zmoment=   0.0000E+00
 nd#     610  xforce=   0.0000E+00   yforce=   0.0000E+00  zforce=  -1.2497E+01   energy=   7.8103E-05   setid =     610 xmoment=   0.0000E+00 ymoment=   0.0000E+00 zmoment=   0.0000E+00
 nd#     611  xforce=   0.0000E+00   yforce=   0.0000E+00  zforce=  -1.3964E+01   energy=   8.7272E-05   setid =     611 xmoment=   0.0000E+00 ymoment=   0.0000E+00 zmoment=   0.0000E+00
 nd#     612  xforce=   0.0000E+00   yforce=   0.0000E+00  zforce=  -2.2944E+01   energy=   1.4340E-04   setid =     612 xmoment=   0.0000E+00 ymoment=   0.0000E+00 zmoment=   0.0000E+00
 nd#     613  xforce=   0.0000E+00   yforce=   0.0000E+00  zforce=  -2.1987E+01   energy=   1.3742E-04   setid =     613 xmoment=   0.0000E+00 ymoment=   0.0000E+00 zmoment=   0.0000E+00
 nd#     629  xforce=   0.0000E+00   yforce=   0.0000E+00  zforce=  -1.1164E+01   energy=   6.9776E-05   setid =     629 xmoment=   0.0000E+00 ymoment=   0.0000E+00 zmoment=   0.0000E+00
 nd#     660  xforce=   0.0000E+00   yforce=   0.0000E+00  zforce=  -5.9232E+00   energy=   3.7020E-05   setid =     660 xmoment=   0.0000E+00 ymoment=   0.0000E+00 zmoment=   0.0000E+00
 nd#     661  xforce=   0.0000E+00   yforce=   0.0000E+00  zforce=  -6.3140E+00   energy=   3.9462E-05   setid =     661 xmoment=   0.0000E+00 ymoment=   0.0000E+00 zmoment=   0.0000E+00
 nd#     692  xforce=   0.0000E+00   yforce=   0.0000E+00  zforce=  -2.0709E+01   energy=   1.2943E-04   setid =     692 xmoment=   0.0000E+00 ymoment=   0.0000E+00 zmoment=   0.0000E+00
 nd#     693  xforce=   0.0000E+00   yforce=   0.0000E+00  zforce=  -2.0586E+01   energy=   1.2866E-04   setid =     693 xmoment=   0.0000E+00 ymoment=   0.0000E+00 zmoment=   0.0000E+00
 nd#     724  xforce=   0.0000E+00   yforce=   0.0000E+00  zforce=  -3.2659E+00   energy=   2.0412E-05   setid =     724 xmoment=   0.0000E+00 ymoment=   0.0000E+00 zmoment=   0.0000E+00
 nd#     725  xforce=   0.0000E+00   yforce=   0.0000E+00  zforce=  -5.8009E+00   energy=   3.6255E-05   setid =     725 xmoment=   0.0000E+00 ymoment=   0.0000E+00 zmoment=   0.0000E+00
 nd#     771  xforce=   0.0000E+00   yforce=   0.0000E+00  zforce=  -8.4302E+00   energy=   5.2689E-05   setid =     771 xmoment=   0.0000E+00 ymoment=   0.0000E+00 zmoment=   0.0000E+00
 nd#     772  xforce=   0.0000E+00   yforce=   0.0000E+00  zforce=  -6.4559E+00   energy=   4.0350E-05   setid =     772 xmoment=   0.0000E+00 ymoment=   0.0000E+00 zmoment=   0.0000E+00
 nd#     773  xforce=   0.0000E+00   yforce=   0.0000E+00  zforce=  -5.2830E+00   energy=   3.3019E-05   setid =     773 xmoment=   0.0000E+00 ymoment=   0.0000E+00 zmoment=   0.0000E+00
 nd#     804  xforce=   0.0000E+00   yforce=   0.0000E+00  zforce=  -7.1444E+00   energy=   4.4652E-05   setid =     804 xmoment=   0.0000E+00 ymoment=   0.0000E+00 zmoment=   0.0000E+00
 nd#     805  xforce=   0.0000E+00   yforce=   0.0000E+00  zforce=  -1.1530E+01   energy=   7.2063E-05   setid =     805 xmoment=   0.0000E+00 ymoment=   0.0000E+00 zmoment=   0.0000E+00
 nd#     821  xforce=   0.0000E+00   yforce=   0.0000E+00  zforce=  -4.7002E+00   energy=   2.9376E-05   setid =     821 xmoment=   0.0000E+00 ymoment=   0.0000E+00 zmoment=   0.0000E+00
 nd#     852  xforce=   0.0000E+00   yforce=   0.0000E+00  zforce=  -9.9825E+00   energy=   6.2391E-05   setid =     852 xmoment=   0.0000E+00 ymoment=   0.0000E+00 zmoment=   0.0000E+00
 nd#     853  xforce=   0.0000E+00   yforce=   0.0000E+00  zforce=  -1.0925E+01   energy=   6.8284E-05   setid =     853 xmoment=   0.0000E+00 ymoment=   0.0000E+00 zmoment=   0.0000E+00
 nd#     869  xforce=   0.0000E+00   yforce=   0.0000E+00  zforce=  -5.7271E+00   energy=   3.5794E-05   setid =     869 xmoment=   0.0000E+00 ymoment=   0.0000E+00 zmoment=   0.0000E+00
 nd#     885  xforce=   0.0000E+00   yforce=   0.0000E+00  zforce=  -5.5991E+00   energy=   3.4994E-05   setid =     885 xmoment=   0.0000E+00 ymoment=   0.0000E+00 zmoment=   0.0000E+00
 nd#    1082  xforce=   0.0000E+00   yforce=   0.0000E+00  zforce=  -7.3552E+00   energy=   4.5970E-05   setid =    1082 xmoment=   0.0000E+00 ymoment=   0.0000E+00 zmoment=   0.0000E+00
 nd#    1083  xforce=   0.0000E+00   yforce=   0.0000E+00  zforce=  -2.8215E+01   energy=   1.7635E-04   setid =    1083 xmoment=   0.0000E+00 ymoment=   0.0000E+00 zmoment=   0.0000E+00
 nd#    1084  xforce=   0.0000E+00   yforce=   0.0000E+00  zforce=  -2.5398E+01   energy=   1.5874E-04   setid =    1084 xmoment=   0.0000E+00 ymoment=   0.0000E+00 zmoment=   0.0000E+00
 nd#    1085  xforce=   0.0000E+00   yforce=   0.0000E+00  zforce=  -2.2158E+01   energy=   1.3849E-04   setid =    1085 xmoment=   0.0000E+00 ymoment=   0.0000E+00 zmoment=   0.0000E+00
 nd#    1086  xforce=   0.0000E+00   yforce=   0.0000E+00  zforce=  -1.9264E+01   energy=   1.2040E-04   setid =    1086 xmoment=   0.0000E+00 ymoment=   0.0000E+00 zmoment=   0.0000E+00
 nd#    1087  xforce=   0.0000E+00   yforce=   0.0000E+00  zforce=  -1.6274E+01   energy=   1.0171E-04   setid =    1087 xmoment=   0.0000E+00 ymoment=   0.0000E+00 zmoment=   0.0000E+00
 nd#    1649  xforce=   0.0000E+00   yforce=   0.0000E+00  zforce=  -3.2457E+01   energy=   2.0286E-04   setid =    1649 xmoment=   0.0000E+00 ymoment=   0.0000E+00 zmoment=   0.0000E+00
 nd#    1651  xforce=   0.0000E+00   yforce=   0.0000E+00  zforce=  -3.1943E+01   energy=   1.9965E-04   setid =    1651 xmoment=   0.0000E+00 ymoment=   0.0000E+00 zmoment=   0.0000E+00
 nd#    1653  xforce=   0.0000E+00   yforce=   0.0000E+00  zforce=  -3.1433E+01   energy=   1.9646E-04   setid =    1653 xmoment=   0.0000E+00 ymoment=   0.0000E+00 zmoment=   0.0000E+00
 nd#    1655  xforce=   0.0000E+00   yforce=   0.0000E+00  zforce=  -3.1412E+01   energy=   1.9633E-04   setid =    1655 xmoment=   0.0000E+00 ymoment=   0.0000E+00 zmoment=   0.0000E+00
 nd#    1657  xforce=   0.0000E+00   yforce=   0.0000E+00  zforce=  -3.1977E+01   energy=   1.9986E-04   setid =    1657 xmoment=   0.0000E+00 ymoment=   0.0000E+00 zmoment=   0.0000E+00
 nd#    1659  xforce=   0.0000E+00   yforce=   0.0000E+00  zforce=  -1.6364E+01   energy=   1.0228E-04   setid =    1659 xmoment=   0.0000E+00 ymoment=   0.0000E+00 zmoment=   0.0000E+00
 nd#    1733  xforce=   0.0000E+00   yforce=   0.0000E+00  zforce=  -5.0952E+01   energy=   3.1845E-04   setid =    1733 xmoment=   0.0000E+00 ymoment=   0.0000E+00 zmoment=   0.0000E+00
 nd#    1734  xforce=   0.0000E+00   yforce=   0.0000E+00  zforce=  -5.6919E+01   energy=   3.5574E-04   setid =    1734 xmoment=   0.0000E+00 ymoment=   0.0000E+00 zmoment=   0.0000E+00
 nd#    1735  xforce=   0.0000E+00   yforce=   0.0000E+00  zforce=  -5.1110E+01   energy=   3.1944E-04   setid =    1735 xmoment=   0.0000E+00 ymoment=   0.0000E+00 zmoment=   0.0000E+00
 nd#    1736  xforce=   0.0000E+00   yforce=   0.0000E+00  zforce=  -5.7745E+01   energy=   3.6091E-04   setid =    1736 xmoment=   0.0000E+00 ymoment=   0.0000E+00 zmoment=   0.0000E+00
 nd#    1737  xforce=   0.0000E+00   yforce=   0.0000E+00  zforce=  -5.1184E+01   energy=   3.1990E-04   setid =    1737 xmoment=   0.0000E+00 ymoment=   0.0000E+00 zmoment=   0.0000E+00
 nd#    1738  xforce=   0.0000E+00   yforce=   0.0000E+00  zforce=  -5.7976E+01   energy=   3.6235E-04   setid =    1738 xmoment=   0.0000E+00 ymoment=   0.0000E+00 zmoment=   0.0000E+00
 nd#    1739  xforce=   0.0000E+00   yforce=   0.0000E+00  zforce=  -5.1202E+01   energy=   3.2001E-04   setid =    1739 xmoment=   0.0000E+00 ymoment=   0.0000E+00 zmoment=   0.0000E+00
 nd#    1740  xforce=   0.0000E+00   yforce=   0.0000E+00  zforce=  -5.7244E+01   energy=   3.5778E-04   setid =    1740 xmoment=   0.0000E+00 ymoment=   0.0000E+00 zmoment=   0.0000E+00
 nd#    1741  xforce=   0.0000E+00   yforce=   0.0000E+00  zforce=  -5.1212E+01   energy=   3.2007E-04   setid =    1741 xmoment=   0.0000E+00 ymoment=   0.0000E+00 zmoment=   0.0000E+00
 nd#    1742  xforce=   0.0000E+00   yforce=   0.0000E+00  zforce=  -5.6134E+01   energy=   3.5084E-04   setid =    1742 xmoment=   0.0000E+00 ymoment=   0.0000E+00 zmoment=   0.0000E+00
 nd#    1743  xforce=   0.0000E+00   yforce=   0.0000E+00  zforce=  -2.5683E+01   energy=   1.6052E-04   setid =    1743 xmoment=   0.0000E+00 ymoment=   0.0000E+00 zmoment=   0.0000E+00
 nd#    1744  xforce=   0.0000E+00   yforce=   0.0000E+00  zforce=  -2.7859E+01   energy=   1.7412E-04   setid =    1744 xmoment=   0.0000E+00 ymoment=   0.0000E+00 zmoment=   0.0000E+00
 nd#    1751  xforce=   0.0000E+00   yforce=   0.0000E+00  zforce=  -3.8528E+01   energy=   2.4080E-04   setid =    1751 xmoment=   0.0000E+00 ymoment=   0.0000E+00 zmoment=   0.0000E+00
 nd#    1752  xforce=   0.0000E+00   yforce=   0.0000E+00  zforce=  -4.4382E+01   energy=   2.7739E-04   setid =    1752 xmoment=   0.0000E+00 ymoment=   0.0000E+00 zmoment=   0.0000E+00
 nd#    1753  xforce=   0.0000E+00   yforce=   0.0000E+00  zforce=  -3.8248E+01   energy=   2.3905E-04   setid =    1753 xmoment=   0.0000E+00 ymoment=   0.0000E+00 zmoment=   0.0000E+00
 nd#    1754  xforce=   0.0000E+00   yforce=   0.0000E+00  zforce=  -4.4287E+01   energy=   2.7679E-04   setid =    1754 xmoment=   0.0000E+00 ymoment=   0.0000E+00 zmoment=   0.0000E+00
 nd#    1755  xforce=   0.0000E+00   yforce=   0.0000E+00  zforce=  -3.7877E+01   energy=   2.3673E-04   setid =    1755 xmoment=   0.0000E+00 ymoment=   0.0000E+00 zmoment=   0.0000E+00
 nd#    1756  xforce=   0.0000E+00   yforce=   0.0000E+00  zforce=  -4.4116E+01   energy=   2.7572E-04   setid =    1756 xmoment=   0.0000E+00 ymoment=   0.0000E+00 zmoment=   0.0000E+00
 nd#    1757  xforce=   0.0000E+00   yforce=   0.0000E+00  zforce=  -3.7708E+01   energy=   2.3568E-04   setid =    1757 xmoment=   0.0000E+00 ymoment=   0.0000E+00 zmoment=   0.0000E+00
 nd#    1758  xforce=   0.0000E+00   yforce=   0.0000E+00  zforce=  -4.4047E+01   energy=   2.7529E-04   setid =    1758 xmoment=   0.0000E+00 ymoment=   0.0000E+00 zmoment=   0.0000E+00
 nd#    1759  xforce=   0.0000E+00   yforce=   0.0000E+00  zforce=  -3.7933E+01   energy=   2.3708E-04   setid =    1759 xmoment=   0.0000E+00 ymoment=   0.0000E+00 zmoment=   0.0000E+00
 nd#    1760  xforce=   0.0000E+00   yforce=   0.0000E+00  zforce=  -4.4171E+01   energy=   2.7607E-04   setid =    1760 xmoment=   0.0000E+00 ymoment=   0.0000E+00 zmoment=   0.0000E+00
 nd#    1761  xforce=   0.0000E+00   yforce=   0.0000E+00  zforce=  -1.9208E+01   energy=   1.2005E-04   setid =    1761 xmoment=   0.0000E+00 ymoment=   0.0000E+00 zmoment=   0.0000E+00
 nd#    1762  xforce=   0.0000E+00   yforce=   0.0000E+00  zforce=  -2.2245E+01   energy=   1.3903E-04   setid =    1762 xmoment=   0.0000E+00 ymoment=   0.0000E+00 zmoment=   0.0000E+00
 nd#    1769  xforce=   0.0000E+00   yforce=   0.0000E+00  zforce=  -1.4456E+01   energy=   9.0347E-05   setid =    1769 xmoment=   0.0000E+00 ymoment=   0.0000E+00 zmoment=   0.0000E+00
 nd#    1770  xforce=   0.0000E+00   yforce=   0.0000E+00  zforce=  -1.3754E+01   energy=   8.5960E-05   setid =    1770 xmoment=   0.0000E+00 ymoment=   0.0000E+00 zmoment=   0.0000E+00
 nd#    1771  xforce=   0.0000E+00   yforce=   0.0000E+00  zforce=  -1.3010E+01   energy=   8.1310E-05   setid =    1771 xmoment=   0.0000E+00 ymoment=   0.0000E+00 zmoment=   0.0000E+00
 nd#    1772  xforce=   0.0000E+00   yforce=   0.0000E+00  zforce=  -1.2565E+01   energy=   7.8529E-05   setid =    1772 xmoment=   0.0000E+00 ymoment=   0.0000E+00 zmoment=   0.0000E+00
 nd#    1773  xforce=   0.0000E+00   yforce=   0.0000E+00  zforce=  -1.2397E+01   energy=   7.7481E-05   setid =    1773 xmoment=   0.0000E+00 ymoment=   0.0000E+00 zmoment=   0.0000E+00
 nd#    1774  xforce=   0.0000E+00   yforce=   0.0000E+00  zforce=  -6.1893E+00   energy=   3.8683E-05   setid =    1774 xmoment=   0.0000E+00 ymoment=   0.0000E+00 zmoment=   0.0000E+00
              xtotal=   0.0000E+00   ytotal=   0.0000E+00  ztotal=  -1.7969E+03   etotal=   1.1230E-02

 n o d a l   f o r c e/e n e r g y    o u t p u t  t=   6.46223E+00

 velocity boundary condition forces/rigid body moments 

 nd#     354  xforce=   0.0000E+00   yforce=   0.0000E+00  zforce=  -3.6526E+01   energy=   5.9164E-04   setid =     354 xmoment=   0.0000E+00 ymoment=   0.0000E+00 zmoment=   0.0000E+00
 nd#     355  xforce=   0.0000E+00   yforce=   0.0000E+00  zforce=  -5.2666E+01   energy=   8.6329E-04   setid =     355 xmoment=   0.0000E+00 ymoment=   0.0000E+00 zmoment=   0.0000E+00
 nd#     356  xforce=   0.0000E+00   yforce=   0.0000E+00  zforce=  -2.7841E+01   energy=   4.5247E-04   setid =     356 xmoment=   0.0000E+00 ymoment=   0.0000E+00 zmoment=   0.0000E+00
 nd#     357  xforce=   0.0000E+00   yforce=   0.0000E+00  zforce=  -2.0581E+01   energy=   3.2776E-04   setid =     357 xmoment=   0.0000E+00 ymoment=   0.0000E+00 zmoment=   0.0000E+00
 nd#     403  xforce=   0.0000E+00   yforce=   0.0000E+00  zforce=  -2.2703E+01   energy=   3.7581E-04   setid =     403 xmoment=   0.0000E+00 ymoment=   0.0000E+00 zmoment=   0.0000E+00
 nd#     404  xforce=   0.0000E+00   yforce=   0.0000E+00  zforce=  -3.1223E+01   energy=   5.1022E-04   setid =     404 xmoment=   0.0000E+00 ymoment=   0.0000E+00 zmoment=   0.0000E+00
 nd#     405  xforce=   0.0000E+00   yforce=   0.0000E+00  zforce=  -2.9272E+01   energy=   4.7516E-04   setid =     405 xmoment=   0.0000E+00 ymoment=   0.0000E+00 zmoment=   0.0000E+00
 nd#     466  xforce=   0.0000E+00   yforce=   0.0000E+00  zforce=  -1.2653E+01   energy=   2.0522E-04   setid =     466 xmoment=   0.0000E+00 ymoment=   0.0000E+00 zmoment=   0.0000E+00
 nd#     467  xforce=   0.0000E+00   yforce=   0.0000E+00  zforce=  -1.6210E+01   energy=   2.7898E-04   setid =     467 xmoment=   0.0000E+00 ymoment=   0.0000E+00 zmoment=   0.0000E+00
 nd#     468  xforce=   0.0000E+00   yforce=   0.0000E+00  zforce=  -2.2595E+01   energy=   3.7561E-04   setid =     468 xmoment=   0.0000E+00 ymoment=   0.0000E+00 zmoment=   0.0000E+00
 nd#     469  xforce=   0.0000E+00   yforce=   0.0000E+00  zforce=  -1.9215E+01   energy=   3.1782E-04   setid =     469 xmoment=   0.0000E+00 ymoment=   0.0000E+00 zmoment=   0.0000E+00
 nd#     530  xforce=   0.0000E+00   yforce=   0.0000E+00  zforce=  -1.8452E+01   energy=   3.1194E-04   setid =     530 xmoment=   0.0000E+00 ymoment=   0.0000E+00 zmoment=   0.0000E+00
 nd#     531  xforce=   0.0000E+00   yforce=   0.0000E+00  zforce=  -2.5489E+01   energy=   4.1678E-04   setid =     531 xmoment=   0.0000E+00 ymoment=   0.0000E+00 zmoment=   0.0000E+00
 nd#     532  xforce=   0.0000E+00   yforce=   0.0000E+00  zforce=  -2.9417E+01   energy=   4.7174E-04   setid =     532 xmoment=   0.0000E+00 ymoment=   0.0000E+00 zmoment=   0.0000E+00
 nd#     533  xforce=   0.0000E+00   yforce=   0.0000E+00  zforce=  -2.2953E+01   energy=   3.7331E-04   setid =     533 xmoment=   0.0000E+00 ymoment=   0.0000E+00 zmoment=   0.0000E+00
 nd#     549  xforce=   0.0000E+00   yforce=   0.0000E+00  zforce=  -1.3263E+01   energy=   2.3170E-04   setid =     549 xmoment=   0.0000E+00 ymoment=   0.0000E+00 zmoment=   0.0000E+00
 nd#     610  xforce=   0.0000E+00   yforce=   0.0000E+00  zforce=  -3.0999E+01   energy=   5.0895E-04   setid =     610 xmoment=   0.0000E+00 ymoment=   0.0000E+00 zmoment=   0.0000E+00
 nd#     611  xforce=   0.0000E+00   yforce=   0.0000E+00  zforce=  -3.6080E+01   energy=   5.8299E-04   setid =     611 xmoment=   0.0000E+00 ymoment=   0.0000E+00 zmoment=   0.0000E+00
 nd#     612  xforce=   0.0000E+00   yforce=   0.0000E+00  zforce=  -6.0419E+01   energy=   9.6916E-04   setid =     612 xmoment=   0.0000E+00 ymoment=   0.0000E+00 zmoment=   0.0000E+00
 nd#     613  xforce=   0.0000E+00   yforce=   0.0000E+00  zforce=  -5.6478E+01   energy=   9.1466E-04   setid =     613 xmoment=   0.0000E+00 ymoment=   0.0000E+00 zmoment=   0.0000E+00
 nd#     629  xforce=   0.0000E+00   yforce=   0.0000E+00  zforce=  -2.7875E+01   energy=   4.5648E-04   setid =     629 xmoment=   0.0000E+00 ymoment=   0.0000E+00 zmoment=   0.0000E+00
 nd#     660  xforce=   0.0000E+00   yforce=   0.0000E+00  zforce=  -1.6379E+01   energy=   2.5793E-04   setid =     660 xmoment=   0.0000E+00 ymoment=   0.0000E+00 zmoment=   0.0000E+00
 nd#     661  xforce=   0.0000E+00   yforce=   0.0000E+00  zforce=  -1.8040E+01   energy=   2.8070E-04   setid =     661 xmoment=   0.0000E+00 ymoment=   0.0000E+00 zmoment=   0.0000E+00
 nd#     692  xforce=   0.0000E+00   yforce=   0.0000E+00  zforce=  -5.2890E+01   energy=   8.5848E-04   setid =     692 xmoment=   0.0000E+00 ymoment=   0.0000E+00 zmoment=   0.0000E+00
 nd#     693  xforce=   0.0000E+00   yforce=   0.0000E+00  zforce=  -5.1670E+01   energy=   8.4441E-04   setid =     693 xmoment=   0.0000E+00 ymoment=   0.0000E+00 zmoment=   0.0000E+00
 nd#     724  xforce=   0.0000E+00   yforce=   0.0000E+00  zforce=  -9.7967E+00   energy=   1.4980E-04   setid =     724 xmoment=   0.0000E+00 ymoment=   0.0000E+00 zmoment=   0.0000E+00
 nd#     725  xforce=   0.0000E+00   yforce=   0.0000E+00  zforce=  -1.6185E+01   energy=   2.5404E-04   setid =     725 xmoment=   0.0000E+00 ymoment=   0.0000E+00 zmoment=   0.0000E+00
 nd#     771  xforce=   0.0000E+00   yforce=   0.0000E+00  zforce=  -2.0042E+01   energy=   3.3472E-04   setid =     771 xmoment=   0.0000E+00 ymoment=   0.0000E+00 zmoment=   0.0000E+00
 nd#     772  xforce=   0.0000E+00   yforce=   0.0000E+00  zforce=  -1.7508E+01   energy=   2.7773E-04   setid =     772 xmoment=   0.0000E+00 ymoment=   0.0000E+00 zmoment=   0.0000E+00
 nd#     773  xforce=   0.0000E+00   yforce=   0.0000E+00  zforce=  -1.4465E+01   energy=   2.2863E-04   setid =     773 xmoment=   0.0000E+00 ymoment=   0.0000E+00 zmoment=   0.0000E+00
 nd#     804  xforce=   0.0000E+00   yforce=   0.0000E+00  zforce=  -1.9061E+01   energy=   3.0423E-04   setid =     804 xmoment=   0.0000E+00 ymoment=   0.0000E+00 zmoment=   0.0000E+00
 nd#     805  xforce=   0.0000E+00   yforce=   0.0000E+00  zforce=  -3.0953E+01   energy=   4.9288E-04   setid =     805 xmoment=   0.0000E+00 ymoment=   0.0000E+00 zmoment=   0.0000E+00
 nd#     821  xforce=   0.0000E+00   yforce=   0.0000E+00  zforce=  -1.2756E+01   energy=   2.0229E-04   setid =     821 xmoment=   0.0000E+00 ymoment=   0.0000E+00 zmoment=   0.0000E+00
 nd#     852  xforce=   0.0000E+00   yforce=   0.0000E+00  zforce=  -2.5654E+01   energy=   4.1539E-04   setid =     852 xmoment=   0.0000E+00 ymoment=   0.0000E+00 zmoment=   0.0000E+00
 nd#     853  xforce=   0.0000E+00   yforce=   0.0000E+00  zforce=  -2.8033E+01   energy=   4.5418E-04   setid =     853 xmoment=   0.0000E+00 ymoment=   0.0000E+00 zmoment=   0.0000E+00
 nd#     869  xforce=   0.0000E+00   yforce=   0.0000E+00  zforce=  -1.5414E+01   energy=   2.4521E-04   setid =     869 xmoment=   0.0000E+00 ymoment=   0.0000E+00 zmoment=   0.0000E+00
 nd#     885  xforce=   0.0000E+00   yforce=   0.0000E+00  zforce=  -1.5929E+01   energy=   2.4824E-04   setid =     885 xmoment=   0.0000E+00 ymoment=   0.0000E+00 zmoment=   0.0000E+00
 nd#    1082  xforce=   0.0000E+00   yforce=   0.0000E+00  zforce=  -1.6801E+01   energy=   2.8525E-04   setid =    1082 xmoment=   0.0000E+00 ymoment=   0.0000E+00 zmoment=   0.0000E+00
 nd#    1083  xforce=   0.0000E+00   yforce=   0.0000E+00  zforce=  -7.0546E+01   energy=   1.1546E-03   setid =    1083 xmoment=   0.0000E+00 ymoment=   0.0000E+00 zmoment=   0.0000E+00
 nd#    1084  xforce=   0.0000E+00   yforce=   0.0000E+00  zforce=  -6.4546E+01   energy=   1.0497E-03   setid =    1084 xmoment=   0.0000E+00 ymoment=   0.0000E+00 zmoment=   0.0000E+00
 nd#    1085  xforce=   0.0000E+00   yforce=   0.0000E+00  zforce=  -5.6983E+01   energy=   9.2243E-04   setid =    1085 xmoment=   0.0000E+00 ymoment=   0.0000E+00 zmoment=   0.0000E+00
 nd#    1086  xforce=   0.0000E+00   yforce=   0.0000E+00  zforce=  -4.9994E+01   energy=   8.0644E-04   setid =    1086 xmoment=   0.0000E+00 ymoment=   0.0000E+00 zmoment=   0.0000E+00
 nd#    1087  xforce=   0.0000E+00   yforce=   0.0000E+00  zforce=  -4.2605E+01   energy=   6.8493E-04   setid =    1087 xmoment=   0.0000E+00 ymoment=   0.0000E+00 zmoment=   0.0000E+00
 nd#    1649  xforce=   0.0000E+00   yforce=   0.0000E+00  zforce=  -8.3818E+01   energy=   1.3546E-03   setid =    1649 xmoment=   0.0000E+00 ymoment=   0.0000E+00 zmoment=   0.0000E+00
 nd#    1651  xforce=   0.0000E+00   yforce=   0.0000E+00  zforce=  -8.1025E+01   energy=   1.3187E-03   setid =    1651 xmoment=   0.0000E+00 ymoment=   0.0000E+00 zmoment=   0.0000E+00
 nd#    1653  xforce=   0.0000E+00   yforce=   0.0000E+00  zforce=  -7.9822E+01   energy=   1.2985E-03   setid =    1653 xmoment=   0.0000E+00 ymoment=   0.0000E+00 zmoment=   0.0000E+00
 nd#    1655  xforce=   0.0000E+00   yforce=   0.0000E+00  zforce=  -7.9839E+01   energy=   1.2983E-03   setid =    1655 xmoment=   0.0000E+00 ymoment=   0.0000E+00 zmoment=   0.0000E+00
 nd#    1657  xforce=   0.0000E+00   yforce=   0.0000E+00  zforce=  -8.1522E+01   energy=   1.3241E-03   setid =    1657 xmoment=   0.0000E+00 ymoment=   0.0000E+00 zmoment=   0.0000E+00
 nd#    1659  xforce=   0.0000E+00   yforce=   0.0000E+00  zforce=  -4.2314E+01   energy=   6.8352E-04   setid =    1659 xmoment=   0.0000E+00 ymoment=   0.0000E+00 zmoment=   0.0000E+00
 nd#    1733  xforce=   0.0000E+00   yforce=   0.0000E+00  zforce=  -1.2920E+02   energy=   2.1029E-03   setid =    1733 xmoment=   0.0000E+00 ymoment=   0.0000E+00 zmoment=   0.0000E+00
 nd#    1734  xforce=   0.0000E+00   yforce=   0.0000E+00  zforce=  -1.4258E+02   energy=   2.3319E-03   setid =    1734 xmoment=   0.0000E+00 ymoment=   0.0000E+00 zmoment=   0.0000E+00
 nd#    1735  xforce=   0.0000E+00   yforce=   0.0000E+00  zforce=  -1.2924E+02   energy=   2.1060E-03   setid =    1735 xmoment=   0.0000E+00 ymoment=   0.0000E+00 zmoment=   0.0000E+00
 nd#    1736  xforce=   0.0000E+00   yforce=   0.0000E+00  zforce=  -1.4566E+02   energy=   2.3758E-03   setid =    1736 xmoment=   0.0000E+00 ymoment=   0.0000E+00 zmoment=   0.0000E+00
 nd#    1737  xforce=   0.0000E+00   yforce=   0.0000E+00  zforce=  -1.2990E+02   energy=   2.1137E-03   setid =    1737 xmoment=   0.0000E+00 ymoment=   0.0000E+00 zmoment=   0.0000E+00
 nd#    1738  xforce=   0.0000E+00   yforce=   0.0000E+00  zforce=  -1.4770E+02   energy=   2.3997E-03   setid =    1738 xmoment=   0.0000E+00 ymoment=   0.0000E+00 zmoment=   0.0000E+00
 nd#    1739  xforce=   0.0000E+00   yforce=   0.0000E+00  zforce=  -1.3059E+02   energy=   2.1208E-03   setid =    1739 xmoment=   0.0000E+00 ymoment=   0.0000E+00 zmoment=   0.0000E+00
 nd#    1740  xforce=   0.0000E+00   yforce=   0.0000E+00  zforce=  -1.4590E+02   energy=   2.3700E-03   setid =    1740 xmoment=   0.0000E+00 ymoment=   0.0000E+00 zmoment=   0.0000E+00
 nd#    1741  xforce=   0.0000E+00   yforce=   0.0000E+00  zforce=  -1.3066E+02   energy=   2.1216E-03   setid =    1741 xmoment=   0.0000E+00 ymoment=   0.0000E+00 zmoment=   0.0000E+00
 nd#    1742  xforce=   0.0000E+00   yforce=   0.0000E+00  zforce=  -1.4137E+02   energy=   2.3072E-03   setid =    1742 xmoment=   0.0000E+00 ymoment=   0.0000E+00 zmoment=   0.0000E+00
 nd#    1743  xforce=   0.0000E+00   yforce=   0.0000E+00  zforce=  -6.5651E+01   energy=   1.0652E-03   setid =    1743 xmoment=   0.0000E+00 ymoment=   0.0000E+00 zmoment=   0.0000E+00
 nd#    1744  xforce=   0.0000E+00   yforce=   0.0000E+00  zforce=  -6.9685E+01   energy=   1.1404E-03   setid =    1744 xmoment=   0.0000E+00 ymoment=   0.0000E+00 zmoment=   0.0000E+00
 nd#    1751  xforce=   0.0000E+00   yforce=   0.0000E+00  zforce=  -9.9115E+01   energy=   1.6042E-03   setid =    1751 xmoment=   0.0000E+00 ymoment=   0.0000E+00 zmoment=   0.0000E+00
 nd#    1752  xforce=   0.0000E+00   yforce=   0.0000E+00  zforce=  -1.1353E+02   energy=   1.8416E-03   setid =    1752 xmoment=   0.0000E+00 ymoment=   0.0000E+00 zmoment=   0.0000E+00
 nd#    1753  xforce=   0.0000E+00   yforce=   0.0000E+00  zforce=  -9.7268E+01   energy=   1.5814E-03   setid =    1753 xmoment=   0.0000E+00 ymoment=   0.0000E+00 zmoment=   0.0000E+00
 nd#    1754  xforce=   0.0000E+00   yforce=   0.0000E+00  zforce=  -1.1248E+02   energy=   1.8296E-03   setid =    1754 xmoment=   0.0000E+00 ymoment=   0.0000E+00 zmoment=   0.0000E+00
 nd#    1755  xforce=   0.0000E+00   yforce=   0.0000E+00  zforce=  -9.6419E+01   energy=   1.5670E-03   setid =    1755 xmoment=   0.0000E+00 ymoment=   0.0000E+00 zmoment=   0.0000E+00
 nd#    1756  xforce=   0.0000E+00   yforce=   0.0000E+00  zforce=  -1.1225E+02   energy=   1.8246E-03   setid =    1756 xmoment=   0.0000E+00 ymoment=   0.0000E+00 zmoment=   0.0000E+00
 nd#    1757  xforce=   0.0000E+00   yforce=   0.0000E+00  zforce=  -9.5998E+01   energy=   1.5601E-03   setid =    1757 xmoment=   0.0000E+00 ymoment=   0.0000E+00 zmoment=   0.0000E+00
 nd#    1758  xforce=   0.0000E+00   yforce=   0.0000E+00  zforce=  -1.1233E+02   energy=   1.8243E-03   setid =    1758 xmoment=   0.0000E+00 ymoment=   0.0000E+00 zmoment=   0.0000E+00
 nd#    1759  xforce=   0.0000E+00   yforce=   0.0000E+00  zforce=  -9.6549E+01   energy=   1.5692E-03   setid =    1759 xmoment=   0.0000E+00 ymoment=   0.0000E+00 zmoment=   0.0000E+00
 nd#    1760  xforce=   0.0000E+00   yforce=   0.0000E+00  zforce=  -1.1265E+02   energy=   1.8295E-03   setid =    1760 xmoment=   0.0000E+00 ymoment=   0.0000E+00 zmoment=   0.0000E+00
 nd#    1761  xforce=   0.0000E+00   yforce=   0.0000E+00  zforce=  -4.9298E+01   energy=   7.9864E-04   setid =    1761 xmoment=   0.0000E+00 ymoment=   0.0000E+00 zmoment=   0.0000E+00
 nd#    1762  xforce=   0.0000E+00   yforce=   0.0000E+00  zforce=  -5.7011E+01   energy=   9.2410E-04   setid =    1762 xmoment=   0.0000E+00 ymoment=   0.0000E+00 zmoment=   0.0000E+00
 nd#    1769  xforce=   0.0000E+00   yforce=   0.0000E+00  zforce=  -3.2368E+01   energy=   5.5416E-04   setid =    1769 xmoment=   0.0000E+00 ymoment=   0.0000E+00 zmoment=   0.0000E+00
 nd#    1770  xforce=   0.0000E+00   yforce=   0.0000E+00  zforce=  -2.9312E+01   energy=   5.1255E-04   setid =    1770 xmoment=   0.0000E+00 ymoment=   0.0000E+00 zmoment=   0.0000E+00
 nd#    1771  xforce=   0.0000E+00   yforce=   0.0000E+00  zforce=  -2.6303E+01   energy=   4.7073E-04   setid =    1771 xmoment=   0.0000E+00 ymoment=   0.0000E+00 zmoment=   0.0000E+00
 nd#    1772  xforce=   0.0000E+00   yforce=   0.0000E+00  zforce=  -2.4234E+01   energy=   4.4305E-04   setid =    1772 xmoment=   0.0000E+00 ymoment=   0.0000E+00 zmoment=   0.0000E+00
 nd#    1773  xforce=   0.0000E+00   yforce=   0.0000E+00  zforce=  -2.2712E+01   energy=   4.2526E-04   setid =    1773 xmoment=   0.0000E+00 ymoment=   0.0000E+00 zmoment=   0.0000E+00
 nd#    1774  xforce=   0.0000E+00   yforce=   0.0000E+00  zforce=  -1.1033E+01   energy=   2.0928E-04   setid =    1774 xmoment=   0.0000E+00 ymoment=   0.0000E+00 zmoment=   0.0000E+00
              xtotal=   0.0000E+00   ytotal=   0.0000E+00  ztotal=  -4.5365E+03   etotal=   7.3966E-02

 n o d a l   f o r c e/e n e r g y    o u t p u t  t=   9.37702E+00

 velocity boundary condition forces/rigid body moments 

 nd#     354  xforce=   0.0000E+00   yforce=   0.0000E+00  zforce=  -4.5390E+01   energy=   1.1886E-03   setid =     354 xmoment=   0.0000E+00 ymoment=   0.0000E+00 zmoment=   0.0000E+00
 nd#     355  xforce=   0.0000E+00   yforce=   0.0000E+00  zforce=  -5.4825E+01   energy=   1.6466E-03   setid =     355 xmoment=   0.0000E+00 ymoment=   0.0000E+00 zmoment=   0.0000E+00
 nd#     356  xforce=   0.0000E+00   yforce=   0.0000E+00  zforce=  -3.4798E+01   energy=   9.0892E-04   setid =     356 xmoment=   0.0000E+00 ymoment=   0.0000E+00 zmoment=   0.0000E+00
 nd#     357  xforce=   0.0000E+00   yforce=   0.0000E+00  zforce=  -4.3084E+01   energy=   7.9168E-04   setid =     357 xmoment=   0.0000E+00 ymoment=   0.0000E+00 zmoment=   0.0000E+00
 nd#     403  xforce=   0.0000E+00   yforce=   0.0000E+00  zforce=  -1.2906E+01   energy=   6.3529E-04   setid =     403 xmoment=   0.0000E+00 ymoment=   0.0000E+00 zmoment=   0.0000E+00
 nd#     404  xforce=   0.0000E+00   yforce=   0.0000E+00  zforce=  -4.4353E+01   energy=   1.0609E-03   setid =     404 xmoment=   0.0000E+00 ymoment=   0.0000E+00 zmoment=   0.0000E+00
 nd#     405  xforce=   0.0000E+00   yforce=   0.0000E+00  zforce=  -1.5703E+01   energy=   8.0290E-04   setid =     405 xmoment=   0.0000E+00 ymoment=   0.0000E+00 zmoment=   0.0000E+00
 nd#     466  xforce=   0.0000E+00   yforce=   0.0000E+00  zforce=  -2.3955E+01   energy=   4.7197E-04   setid =     466 xmoment=   0.0000E+00 ymoment=   0.0000E+00 zmoment=   0.0000E+00
 nd#     467  xforce=   0.0000E+00   yforce=   0.0000E+00  zforce=   1.8369E+01   energy=   2.6325E-04   setid =     467 xmoment=   0.0000E+00 ymoment=   0.0000E+00 zmoment=   0.0000E+00
 nd#     468  xforce=   0.0000E+00   yforce=   0.0000E+00  zforce=  -3.6070E+01   energy=   8.0310E-04   setid =     468 xmoment=   0.0000E+00 ymoment=   0.0000E+00 zmoment=   0.0000E+00
 nd#     469  xforce=   0.0000E+00   yforce=   0.0000E+00  zforce=  -3.3722E+01   energy=   7.0357E-04   setid =     469 xmoment=   0.0000E+00 ymoment=   0.0000E+00 zmoment=   0.0000E+00
 nd#     530  xforce=   0.0000E+00   yforce=   0.0000E+00  zforce=  -1.3847E+01   energy=   5.4730E-04   setid =     530 xmoment=   0.0000E+00 ymoment=   0.0000E+00 zmoment=   0.0000E+00
 nd#     531  xforce=   0.0000E+00   yforce=   0.0000E+00  zforce=  -1.9918E+01   energy=   7.4766E-04   setid =     531 xmoment=   0.0000E+00 ymoment=   0.0000E+00 zmoment=   0.0000E+00
 nd#     532  xforce=   0.0000E+00   yforce=   0.0000E+00  zforce=   3.3003E+01   energy=   4.4561E-04   setid =     532 xmoment=   0.0000E+00 ymoment=   0.0000E+00 zmoment=   0.0000E+00
 nd#     533  xforce=   0.0000E+00   yforce=   0.0000E+00  zforce=   3.5313E+01   energy=   2.8324E-04   setid =     533 xmoment=   0.0000E+00 ymoment=   0.0000E+00 zmoment=   0.0000E+00
 nd#     549  xforce=   0.0000E+00   yforce=   0.0000E+00  zforce=  -9.5314E+00   energy=   3.9780E-04   setid =     549 xmoment=   0.0000E+00 ymoment=   0.0000E+00 zmoment=   0.0000E+00
 nd#     610  xforce=   0.0000E+00   yforce=   0.0000E+00  zforce=  -6.5584E+01   energy=   1.2127E-03   setid =     610 xmoment=   0.0000E+00 ymoment=   0.0000E+00 zmoment=   0.0000E+00
 nd#     611  xforce=   0.0000E+00   yforce=   0.0000E+00  zforce=  -2.9995E+01   energy=   1.0645E-03   setid =     611 xmoment=   0.0000E+00 ymoment=   0.0000E+00 zmoment=   0.0000E+00
 nd#     612  xforce=   0.0000E+00   yforce=   0.0000E+00  zforce=  -6.7986E+01   energy=   1.9048E-03   setid =     612 xmoment=   0.0000E+00 ymoment=   0.0000E+00 zmoment=   0.0000E+00
 nd#     613  xforce=   0.0000E+00   yforce=   0.0000E+00  zforce=  -9.5721E+01   energy=   2.0237E-03   setid =     613 xmoment=   0.0000E+00 ymoment=   0.0000E+00 zmoment=   0.0000E+00
 nd#     629  xforce=   0.0000E+00   yforce=   0.0000E+00  zforce=  -5.1361E+01   energy=   1.0339E-03   setid =     629 xmoment=   0.0000E+00 ymoment=   0.0000E+00 zmoment=   0.0000E+00
 nd#     660  xforce=   0.0000E+00   yforce=   0.0000E+00  zforce=  -4.8923E+01   energy=   7.3378E-04   setid =     660 xmoment=   0.0000E+00 ymoment=   0.0000E+00 zmoment=   0.0000E+00
 nd#     661  xforce=   0.0000E+00   yforce=   0.0000E+00  zforce=  -1.7344E+01   energy=   5.3854E-04   setid =     661 xmoment=   0.0000E+00 ymoment=   0.0000E+00 zmoment=   0.0000E+00
 nd#     692  xforce=   0.0000E+00   yforce=   0.0000E+00  zforce=  -8.2057E+01   energy=   1.8418E-03   setid =     692 xmoment=   0.0000E+00 ymoment=   0.0000E+00 zmoment=   0.0000E+00
 nd#     693  xforce=   0.0000E+00   yforce=   0.0000E+00  zforce=  -7.4045E+01   energy=   1.7605E-03   setid =     693 xmoment=   0.0000E+00 ymoment=   0.0000E+00 zmoment=   0.0000E+00
 nd#     724  xforce=   0.0000E+00   yforce=   0.0000E+00  zforce=  -6.8154E+01   energy=   7.1783E-04   setid =     724 xmoment=   0.0000E+00 ymoment=   0.0000E+00 zmoment=   0.0000E+00
 nd#     725  xforce=   0.0000E+00   yforce=   0.0000E+00  zforce=  -1.1093E+02   energy=   1.1804E-03   setid =     725 xmoment=   0.0000E+00 ymoment=   0.0000E+00 zmoment=   0.0000E+00
 nd#     771  xforce=   0.0000E+00   yforce=   0.0000E+00  zforce=  -1.9146E+01   energy=   6.2028E-04   setid =     771 xmoment=   0.0000E+00 ymoment=   0.0000E+00 zmoment=   0.0000E+00
 nd#     772  xforce=   0.0000E+00   yforce=   0.0000E+00  zforce=  -3.6404E+01   energy=   6.7058E-04   setid =     772 xmoment=   0.0000E+00 ymoment=   0.0000E+00 zmoment=   0.0000E+00
 nd#     773  xforce=   0.0000E+00   yforce=   0.0000E+00  zforce=  -5.2763E+01   energy=   7.1852E-04   setid =     773 xmoment=   0.0000E+00 ymoment=   0.0000E+00 zmoment=   0.0000E+00
 nd#     804  xforce=   0.0000E+00   yforce=   0.0000E+00  zforce=  -7.8033E+01   energy=   1.0118E-03   setid =     804 xmoment=   0.0000E+00 ymoment=   0.0000E+00 zmoment=   0.0000E+00
 nd#     805  xforce=   0.0000E+00   yforce=   0.0000E+00  zforce=  -8.2591E+01   energy=   1.3203E-03   setid =     805 xmoment=   0.0000E+00 ymoment=   0.0000E+00 zmoment=   0.0000E+00
 nd#     821  xforce=   0.0000E+00   yforce=   0.0000E+00  zforce=  -1.0587E+02   energy=   1.0667E-03   setid =     821 xmoment=   0.0000E+00 ymoment=   0.0000E+00 zmoment=   0.0000E+00
 nd#     852  xforce=   0.0000E+00   yforce=   0.0000E+00  zforce=   9.1193E+01   energy=  -6.2192E-05   setid =     852 xmoment=   0.0000E+00 ymoment=   0.0000E+00 zmoment=   0.0000E+00
 nd#     853  xforce=   0.0000E+00   yforce=   0.0000E+00  zforce=   1.3141E+01   energy=   5.6270E-04   setid =     853 xmoment=   0.0000E+00 ymoment=   0.0000E+00 zmoment=   0.0000E+00
 nd#     869  xforce=   0.0000E+00   yforce=   0.0000E+00  zforce=  -7.1490E+01   energy=   8.7848E-04   setid =     869 xmoment=   0.0000E+00 ymoment=   0.0000E+00 zmoment=   0.0000E+00
 nd#     885  xforce=   0.0000E+00   yforce=   0.0000E+00  zforce=  -5.7247E+01   energy=   7.8147E-04   setid =     885 xmoment=   0.0000E+00 ymoment=   0.0000E+00 zmoment=   0.0000E+00
 nd#    1082  xforce=   0.0000E+00   yforce=   0.0000E+00  zforce=   8.1333E+00   energy=   3.4841E-04   setid =    1082 xmoment=   0.0000E+00 ymoment=   0.0000E+00 zmoment=   0.0000E+00
 nd#    1083  xforce=   0.0000E+00   yforce=   0.0000E+00  zforce=  -4.7204E+01   energy=   2.0127E-03   setid =    1083 xmoment=   0.0000E+00 ymoment=   0.0000E+00 zmoment=   0.0000E+00
 nd#    1084  xforce=   0.0000E+00   yforce=   0.0000E+00  zforce=  -5.6646E+01   energy=   1.9328E-03   setid =    1084 xmoment=   0.0000E+00 ymoment=   0.0000E+00 zmoment=   0.0000E+00
 nd#    1085  xforce=   0.0000E+00   yforce=   0.0000E+00  zforce=  -6.4178E+01   energy=   1.8053E-03   setid =    1085 xmoment=   0.0000E+00 ymoment=   0.0000E+00 zmoment=   0.0000E+00
 nd#    1086  xforce=   0.0000E+00   yforce=   0.0000E+00  zforce=  -7.5205E+01   energy=   1.7188E-03   setid =    1086 xmoment=   0.0000E+00 ymoment=   0.0000E+00 zmoment=   0.0000E+00
 nd#    1087  xforce=   0.0000E+00   yforce=   0.0000E+00  zforce=  -8.5546E+01   energy=   1.6188E-03   setid =    1087 xmoment=   0.0000E+00 ymoment=   0.0000E+00 zmoment=   0.0000E+00
 nd#    1649  xforce=   0.0000E+00   yforce=   0.0000E+00  zforce=  -9.7452E+01   energy=   2.6755E-03   setid =    1649 xmoment=   0.0000E+00 ymoment=   0.0000E+00 zmoment=   0.0000E+00
 nd#    1651  xforce=   0.0000E+00   yforce=   0.0000E+00  zforce=  -1.2734E+02   energy=   2.8370E-03   setid =    1651 xmoment=   0.0000E+00 ymoment=   0.0000E+00 zmoment=   0.0000E+00
 nd#    1653  xforce=   0.0000E+00   yforce=   0.0000E+00  zforce=  -1.2241E+02   energy=   2.7722E-03   setid =    1653 xmoment=   0.0000E+00 ymoment=   0.0000E+00 zmoment=   0.0000E+00
 nd#    1655  xforce=   0.0000E+00   yforce=   0.0000E+00  zforce=  -1.2760E+02   energy=   2.8100E-03   setid =    1655 xmoment=   0.0000E+00 ymoment=   0.0000E+00 zmoment=   0.0000E+00
 nd#    1657  xforce=   0.0000E+00   yforce=   0.0000E+00  zforce=  -1.1265E+02   energy=   2.7390E-03   setid =    1657 xmoment=   0.0000E+00 ymoment=   0.0000E+00 zmoment=   0.0000E+00
 nd#    1659  xforce=   0.0000E+00   yforce=   0.0000E+00  zforce=  -5.6815E+01   energy=   1.4059E-03   setid =    1659 xmoment=   0.0000E+00 ymoment=   0.0000E+00 zmoment=   0.0000E+00
 nd#    1733  xforce=   0.0000E+00   yforce=   0.0000E+00  zforce=  -1.2205E+02   energy=   3.9338E-03   setid =    1733 xmoment=   0.0000E+00 ymoment=   0.0000E+00 zmoment=   0.0000E+00
 nd#    1734  xforce=   0.0000E+00   yforce=   0.0000E+00  zforce=  -1.1778E+02   energy=   4.2291E-03   setid =    1734 xmoment=   0.0000E+00 ymoment=   0.0000E+00 zmoment=   0.0000E+00
 nd#    1735  xforce=   0.0000E+00   yforce=   0.0000E+00  zforce=  -1.5230E+02   energy=   4.1575E-03   setid =    1735 xmoment=   0.0000E+00 ymoment=   0.0000E+00 zmoment=   0.0000E+00
 nd#    1736  xforce=   0.0000E+00   yforce=   0.0000E+00  zforce=  -1.5209E+02   energy=   4.5455E-03   setid =    1736 xmoment=   0.0000E+00 ymoment=   0.0000E+00 zmoment=   0.0000E+00
 nd#    1737  xforce=   0.0000E+00   yforce=   0.0000E+00  zforce=  -1.6336E+02   energy=   4.2506E-03   setid =    1737 xmoment=   0.0000E+00 ymoment=   0.0000E+00 zmoment=   0.0000E+00
 nd#    1738  xforce=   0.0000E+00   yforce=   0.0000E+00  zforce=  -1.6580E+02   energy=   4.6842E-03   setid =    1738 xmoment=   0.0000E+00 ymoment=   0.0000E+00 zmoment=   0.0000E+00
 nd#    1739  xforce=   0.0000E+00   yforce=   0.0000E+00  zforce=  -1.7878E+02   energy=   4.3752E-03   setid =    1739 xmoment=   0.0000E+00 ymoment=   0.0000E+00 zmoment=   0.0000E+00
 nd#    1740  xforce=   0.0000E+00   yforce=   0.0000E+00  zforce=  -1.6215E+02   energy=   4.6147E-03   setid =    1740 xmoment=   0.0000E+00 ymoment=   0.0000E+00 zmoment=   0.0000E+00
 nd#    1741  xforce=   0.0000E+00   yforce=   0.0000E+00  zforce=  -1.4607E+02   energy=   4.1381E-03   setid =    1741 xmoment=   0.0000E+00 ymoment=   0.0000E+00 zmoment=   0.0000E+00
 nd#    1742  xforce=   0.0000E+00   yforce=   0.0000E+00  zforce=  -1.0417E+02   energy=   4.0964E-03   setid =    1742 xmoment=   0.0000E+00 ymoment=   0.0000E+00 zmoment=   0.0000E+00
 nd#    1743  xforce=   0.0000E+00   yforce=   0.0000E+00  zforce=  -5.8935E+01   energy=   1.9731E-03   setid =    1743 xmoment=   0.0000E+00 ymoment=   0.0000E+00 zmoment=   0.0000E+00
 nd#    1744  xforce=   0.0000E+00   yforce=   0.0000E+00  zforce=  -2.4494E+01   energy=   1.8266E-03   setid =    1744 xmoment=   0.0000E+00 ymoment=   0.0000E+00 zmoment=   0.0000E+00
 nd#    1751  xforce=   0.0000E+00   yforce=   0.0000E+00  zforce=  -1.1627E+02   energy=   3.1737E-03   setid =    1751 xmoment=   0.0000E+00 ymoment=   0.0000E+00 zmoment=   0.0000E+00
 nd#    1752  xforce=   0.0000E+00   yforce=   0.0000E+00  zforce=  -1.2110E+02   energy=   3.5513E-03   setid =    1752 xmoment=   0.0000E+00 ymoment=   0.0000E+00 zmoment=   0.0000E+00
 nd#    1753  xforce=   0.0000E+00   yforce=   0.0000E+00  zforce=  -1.4696E+02   energy=   3.3611E-03   setid =    1753 xmoment=   0.0000E+00 ymoment=   0.0000E+00 zmoment=   0.0000E+00
 nd#    1754  xforce=   0.0000E+00   yforce=   0.0000E+00  zforce=  -1.5067E+02   energy=   3.7472E-03   setid =    1754 xmoment=   0.0000E+00 ymoment=   0.0000E+00 zmoment=   0.0000E+00
 nd#    1755  xforce=   0.0000E+00   yforce=   0.0000E+00  zforce=  -1.4784E+02   energy=   3.3469E-03   setid =    1755 xmoment=   0.0000E+00 ymoment=   0.0000E+00 zmoment=   0.0000E+00
 nd#    1756  xforce=   0.0000E+00   yforce=   0.0000E+00  zforce=  -1.5821E+02   energy=   3.7953E-03   setid =    1756 xmoment=   0.0000E+00 ymoment=   0.0000E+00 zmoment=   0.0000E+00
 nd#    1757  xforce=   0.0000E+00   yforce=   0.0000E+00  zforce=  -1.6398E+02   energy=   3.4545E-03   setid =    1757 xmoment=   0.0000E+00 ymoment=   0.0000E+00 zmoment=   0.0000E+00
 nd#    1758  xforce=   0.0000E+00   yforce=   0.0000E+00  zforce=  -1.7624E+02   energy=   3.9271E-03   setid =    1758 xmoment=   0.0000E+00 ymoment=   0.0000E+00 zmoment=   0.0000E+00
 nd#    1759  xforce=   0.0000E+00   yforce=   0.0000E+00  zforce=  -1.3625E+02   energy=   3.2656E-03   setid =    1759 xmoment=   0.0000E+00 ymoment=   0.0000E+00 zmoment=   0.0000E+00
 nd#    1760  xforce=   0.0000E+00   yforce=   0.0000E+00  zforce=  -1.5120E+02   energy=   3.7521E-03   setid =    1760 xmoment=   0.0000E+00 ymoment=   0.0000E+00 zmoment=   0.0000E+00
 nd#    1761  xforce=   0.0000E+00   yforce=   0.0000E+00  zforce=  -6.0921E+01   energy=   1.6018E-03   setid =    1761 xmoment=   0.0000E+00 ymoment=   0.0000E+00 zmoment=   0.0000E+00
 nd#    1762  xforce=   0.0000E+00   yforce=   0.0000E+00  zforce=  -6.3378E+01   energy=   1.8014E-03   setid =    1762 xmoment=   0.0000E+00 ymoment=   0.0000E+00 zmoment=   0.0000E+00
 nd#    1769  xforce=   0.0000E+00   yforce=   0.0000E+00  zforce=   2.0939E+01   energy=   6.3744E-04   setid =    1769 xmoment=   0.0000E+00 ymoment=   0.0000E+00 zmoment=   0.0000E+00
 nd#    1770  xforce=   0.0000E+00   yforce=   0.0000E+00  zforce=   3.7315E+01   energy=   4.5423E-04   setid =    1770 xmoment=   0.0000E+00 ymoment=   0.0000E+00 zmoment=   0.0000E+00
 nd#    1771  xforce=   0.0000E+00   yforce=   0.0000E+00  zforce=   6.0070E+01   energy=   2.2467E-04   setid =    1771 xmoment=   0.0000E+00 ymoment=   0.0000E+00 zmoment=   0.0000E+00
 nd#    1772  xforce=   0.0000E+00   yforce=   0.0000E+00  zforce=   7.4612E+01   energy=   7.5943E-05   setid =    1772 xmoment=   0.0000E+00 ymoment=   0.0000E+00 zmoment=   0.0000E+00
 nd#    1773  xforce=   0.0000E+00   yforce=   0.0000E+00  zforce=   9.3218E+01   energy=  -8.8510E-05   setid =    1773 xmoment=   0.0000E+00 ymoment=   0.0000E+00 zmoment=   0.0000E+00
 nd#    1774  xforce=   0.0000E+00   yforce=   0.0000E+00  zforce=   5.3225E+01   energy=  -9.8180E-05   setid =    1774 xmoment=   0.0000E+00 ymoment=   0.0000E+00 zmoment=   0.0000E+00
              xtotal=   0.0000E+00   ytotal=   0.0000E+00  ztotal=  -5.1792E+03   etotal=   1.4476E-01

 n o d a l   f o r c e/e n e r g y    o u t p u t  t=   1.08379E+01

 velocity boundary condition forces/rigid body moments 

 nd#     354  xforce=   0.0000E+00   yforce=   0.0000E+00  zforce=  -5.1777E+01   energy=   1.5434E-03   setid =     354 xmoment=   0.0000E+00 ymoment=   0.0000E+00 zmoment=   0.0000E+00
 nd#     355  xforce=   0.0000E+00   yforce=   0.0000E+00  zforce=  -5.9399E+01   energy=   2.0637E-03   setid =     355 xmoment=   0.0000E+00 ymoment=   0.0000E+00 zmoment=   0.0000E+00
 nd#     356  xforce=   0.0000E+00   yforce=   0.0000E+00  zforce=  -3.7620E+01   energy=   1.1734E-03   setid =     356 xmoment=   0.0000E+00 ymoment=   0.0000E+00 zmoment=   0.0000E+00
 nd#     357  xforce=   0.0000E+00   yforce=   0.0000E+00  zforce=  -4.7362E+01   energy=   1.1220E-03   setid =     357 xmoment=   0.0000E+00 ymoment=   0.0000E+00 zmoment=   0.0000E+00
 nd#     403  xforce=   0.0000E+00   yforce=   0.0000E+00  zforce=  -2.1172E+01   energy=   7.5975E-04   setid =     403 xmoment=   0.0000E+00 ymoment=   0.0000E+00 zmoment=   0.0000E+00
 nd#     404  xforce=   0.0000E+00   yforce=   0.0000E+00  zforce=  -5.2469E+01   energy=   1.4146E-03   setid =     404 xmoment=   0.0000E+00 ymoment=   0.0000E+00 zmoment=   0.0000E+00
 nd#     405  xforce=   0.0000E+00   yforce=   0.0000E+00  zforce=  -2.6034E+01   energy=   9.5533E-04   setid =     405 xmoment=   0.0000E+00 ymoment=   0.0000E+00 zmoment=   0.0000E+00
 nd#     466  xforce=   0.0000E+00   yforce=   0.0000E+00  zforce=  -2.2963E+01   energy=   6.4332E-04   setid =     466 xmoment=   0.0000E+00 ymoment=   0.0000E+00 zmoment=   0.0000E+00
 nd#     467  xforce=   0.0000E+00   yforce=   0.0000E+00  zforce=  -3.2528E+00   energy=   2.0804E-04   setid =     467 xmoment=   0.0000E+00 ymoment=   0.0000E+00 zmoment=   0.0000E+00
 nd#     468  xforce=   0.0000E+00   yforce=   0.0000E+00  zforce=  -4.0546E+01   energy=   1.0829E-03   setid =     468 xmoment=   0.0000E+00 ymoment=   0.0000E+00 zmoment=   0.0000E+00
 nd#     469  xforce=   0.0000E+00   yforce=   0.0000E+00  zforce=  -2.1773E+01   energy=   9.0624E-04   setid =     469 xmoment=   0.0000E+00 ymoment=   0.0000E+00 zmoment=   0.0000E+00
 nd#     530  xforce=   0.0000E+00   yforce=   0.0000E+00  zforce=  -1.1915E+01   energy=   6.4139E-04   setid =     530 xmoment=   0.0000E+00 ymoment=   0.0000E+00 zmoment=   0.0000E+00
 nd#     531  xforce=   0.0000E+00   yforce=   0.0000E+00  zforce=  -3.8825E+01   energy=   9.6220E-04   setid =     531 xmoment=   0.0000E+00 ymoment=   0.0000E+00 zmoment=   0.0000E+00
 nd#     532  xforce=   0.0000E+00   yforce=   0.0000E+00  zforce=   2.1843E+01   energy=   2.4530E-04   setid =     532 xmoment=   0.0000E+00 ymoment=   0.0000E+00 zmoment=   0.0000E+00
 nd#     533  xforce=   0.0000E+00   yforce=   0.0000E+00  zforce=   4.3064E+01   energy=  -3.0015E-06   setid =     533 xmoment=   0.0000E+00 ymoment=   0.0000E+00 zmoment=   0.0000E+00
 nd#     549  xforce=   0.0000E+00   yforce=   0.0000E+00  zforce=   4.9129E+00   energy=   4.1467E-04   setid =     549 xmoment=   0.0000E+00 ymoment=   0.0000E+00 zmoment=   0.0000E+00
 nd#     610  xforce=   0.0000E+00   yforce=   0.0000E+00  zforce=  -6.9491E+01   energy=   1.7061E-03   setid =     610 xmoment=   0.0000E+00 ymoment=   0.0000E+00 zmoment=   0.0000E+00
 nd#     611  xforce=   0.0000E+00   yforce=   0.0000E+00  zforce=  -3.8417E+01   energy=   1.3143E-03   setid =     611 xmoment=   0.0000E+00 ymoment=   0.0000E+00 zmoment=   0.0000E+00
 nd#     612  xforce=   0.0000E+00   yforce=   0.0000E+00  zforce=  -8.4116E+01   energy=   2.4603E-03   setid =     612 xmoment=   0.0000E+00 ymoment=   0.0000E+00 zmoment=   0.0000E+00
 nd#     613  xforce=   0.0000E+00   yforce=   0.0000E+00  zforce=  -1.0571E+02   energy=   2.7594E-03   setid =     613 xmoment=   0.0000E+00 ymoment=   0.0000E+00 zmoment=   0.0000E+00
 nd#     629  xforce=   0.0000E+00   yforce=   0.0000E+00  zforce=  -4.7316E+01   energy=   1.3943E-03   setid =     629 xmoment=   0.0000E+00 ymoment=   0.0000E+00 zmoment=   0.0000E+00
 nd#     660  xforce=   0.0000E+00   yforce=   0.0000E+00  zforce=  -5.4951E+01   energy=   1.1131E-03   setid =     660 xmoment=   0.0000E+00 ymoment=   0.0000E+00 zmoment=   0.0000E+00
 nd#     661  xforce=   0.0000E+00   yforce=   0.0000E+00  zforce=  -1.7354E+01   energy=   6.6526E-04   setid =     661 xmoment=   0.0000E+00 ymoment=   0.0000E+00 zmoment=   0.0000E+00
 nd#     692  xforce=   0.0000E+00   yforce=   0.0000E+00  zforce=  -8.5541E+01   energy=   2.4539E-03   setid =     692 xmoment=   0.0000E+00 ymoment=   0.0000E+00 zmoment=   0.0000E+00
 nd#     693  xforce=   0.0000E+00   yforce=   0.0000E+00  zforce=  -8.1585E+01   energy=   2.3289E-03   setid =     693 xmoment=   0.0000E+00 ymoment=   0.0000E+00 zmoment=   0.0000E+00
 nd#     724  xforce=   0.0000E+00   yforce=   0.0000E+00  zforce=  -6.6913E+01   energy=   1.2111E-03   setid =     724 xmoment=   0.0000E+00 ymoment=   0.0000E+00 zmoment=   0.0000E+00
 nd#     725  xforce=   0.0000E+00   yforce=   0.0000E+00  zforce=  -1.1025E+02   energy=   1.9881E-03   setid =     725 xmoment=   0.0000E+00 ymoment=   0.0000E+00 zmoment=   0.0000E+00
 nd#     771  xforce=   0.0000E+00   yforce=   0.0000E+00  zforce=  -5.0778E+00   energy=   7.0875E-04   setid =     771 xmoment=   0.0000E+00 ymoment=   0.0000E+00 zmoment=   0.0000E+00
 nd#     772  xforce=   0.0000E+00   yforce=   0.0000E+00  zforce=  -4.2218E+01   energy=   9.5772E-04   setid =     772 xmoment=   0.0000E+00 ymoment=   0.0000E+00 zmoment=   0.0000E+00
 nd#     773  xforce=   0.0000E+00   yforce=   0.0000E+00  zforce=  -4.3159E+01   energy=   1.0688E-03   setid =     773 xmoment=   0.0000E+00 ymoment=   0.0000E+00 zmoment=   0.0000E+00
 nd#     804  xforce=   0.0000E+00   yforce=   0.0000E+00  zforce=  -7.3755E+01   energy=   1.5661E-03   setid =     804 xmoment=   0.0000E+00 ymoment=   0.0000E+00 zmoment=   0.0000E+00
 nd#     805  xforce=   0.0000E+00   yforce=   0.0000E+00  zforce=  -8.3379E+01   energy=   1.9264E-03   setid =     805 xmoment=   0.0000E+00 ymoment=   0.0000E+00 zmoment=   0.0000E+00
 nd#     821  xforce=   0.0000E+00   yforce=   0.0000E+00  zforce=  -1.0083E+02   energy=   1.8216E-03   setid =     821 xmoment=   0.0000E+00 ymoment=   0.0000E+00 zmoment=   0.0000E+00
 nd#     852  xforce=   0.0000E+00   yforce=   0.0000E+00  zforce=   7.3355E+01   energy=  -6.6314E-04   setid =     852 xmoment=   0.0000E+00 ymoment=   0.0000E+00 zmoment=   0.0000E+00
 nd#     853  xforce=   0.0000E+00   yforce=   0.0000E+00  zforce=   1.0552E+01   energy=   4.7617E-04   setid =     853 xmoment=   0.0000E+00 ymoment=   0.0000E+00 zmoment=   0.0000E+00
 nd#     869  xforce=   0.0000E+00   yforce=   0.0000E+00  zforce=  -6.7184E+01   energy=   1.3849E-03   setid =     869 xmoment=   0.0000E+00 ymoment=   0.0000E+00 zmoment=   0.0000E+00
 nd#     885  xforce=   0.0000E+00   yforce=   0.0000E+00  zforce=  -6.0658E+01   energy=   1.2121E-03   setid =     885 xmoment=   0.0000E+00 ymoment=   0.0000E+00 zmoment=   0.0000E+00
 nd#    1082  xforce=   0.0000E+00   yforce=   0.0000E+00  zforce=   1.2859E+01   energy=   2.7175E-04   setid =    1082 xmoment=   0.0000E+00 ymoment=   0.0000E+00 zmoment=   0.0000E+00
 nd#    1083  xforce=   0.0000E+00   yforce=   0.0000E+00  zforce=  -4.3175E+01   energy=   2.3428E-03   setid =    1083 xmoment=   0.0000E+00 ymoment=   0.0000E+00 zmoment=   0.0000E+00
 nd#    1084  xforce=   0.0000E+00   yforce=   0.0000E+00  zforce=  -5.9660E+01   energy=   2.3576E-03   setid =    1084 xmoment=   0.0000E+00 ymoment=   0.0000E+00 zmoment=   0.0000E+00
 nd#    1085  xforce=   0.0000E+00   yforce=   0.0000E+00  zforce=  -6.9135E+01   energy=   2.2922E-03   setid =    1085 xmoment=   0.0000E+00 ymoment=   0.0000E+00 zmoment=   0.0000E+00
 nd#    1086  xforce=   0.0000E+00   yforce=   0.0000E+00  zforce=  -7.7360E+01   energy=   2.2759E-03   setid =    1086 xmoment=   0.0000E+00 ymoment=   0.0000E+00 zmoment=   0.0000E+00
 nd#    1087  xforce=   0.0000E+00   yforce=   0.0000E+00  zforce=  -8.5046E+01   energy=   2.2418E-03   setid =    1087 xmoment=   0.0000E+00 ymoment=   0.0000E+00 zmoment=   0.0000E+00
 nd#    1649  xforce=   0.0000E+00   yforce=   0.0000E+00  zforce=  -1.1422E+02   energy=   3.4486E-03   setid =    1649 xmoment=   0.0000E+00 ymoment=   0.0000E+00 zmoment=   0.0000E+00
 nd#    1651  xforce=   0.0000E+00   yforce=   0.0000E+00  zforce=  -1.3606E+02   energy=   3.7990E-03   setid =    1651 xmoment=   0.0000E+00 ymoment=   0.0000E+00 zmoment=   0.0000E+00
 nd#    1653  xforce=   0.0000E+00   yforce=   0.0000E+00  zforce=  -1.2642E+02   energy=   3.6809E-03   setid =    1653 xmoment=   0.0000E+00 ymoment=   0.0000E+00 zmoment=   0.0000E+00
 nd#    1655  xforce=   0.0000E+00   yforce=   0.0000E+00  zforce=  -1.3896E+02   energy=   3.7835E-03   setid =    1655 xmoment=   0.0000E+00 ymoment=   0.0000E+00 zmoment=   0.0000E+00
 nd#    1657  xforce=   0.0000E+00   yforce=   0.0000E+00  zforce=  -1.1899E+02   energy=   3.5850E-03   setid =    1657 xmoment=   0.0000E+00 ymoment=   0.0000E+00 zmoment=   0.0000E+00
 nd#    1659  xforce=   0.0000E+00   yforce=   0.0000E+00  zforce=  -6.1805E+01   energy=   1.8391E-03   setid =    1659 xmoment=   0.0000E+00 ymoment=   0.0000E+00 zmoment=   0.0000E+00
 nd#    1733  xforce=   0.0000E+00   yforce=   0.0000E+00  zforce=  -1.3782E+02   energy=   4.8829E-03   setid =    1733 xmoment=   0.0000E+00 ymoment=   0.0000E+00 zmoment=   0.0000E+00
 nd#    1734  xforce=   0.0000E+00   yforce=   0.0000E+00  zforce=  -1.2033E+02   energy=   5.0987E-03   setid =    1734 xmoment=   0.0000E+00 ymoment=   0.0000E+00 zmoment=   0.0000E+00
 nd#    1735  xforce=   0.0000E+00   yforce=   0.0000E+00  zforce=  -1.6686E+02   energy=   5.3232E-03   setid =    1735 xmoment=   0.0000E+00 ymoment=   0.0000E+00 zmoment=   0.0000E+00
 nd#    1736  xforce=   0.0000E+00   yforce=   0.0000E+00  zforce=  -1.5373E+02   energy=   5.6624E-03   setid =    1736 xmoment=   0.0000E+00 ymoment=   0.0000E+00 zmoment=   0.0000E+00
 nd#    1737  xforce=   0.0000E+00   yforce=   0.0000E+00  zforce=  -1.7041E+02   energy=   5.4696E-03   setid =    1737 xmoment=   0.0000E+00 ymoment=   0.0000E+00 zmoment=   0.0000E+00
 nd#    1738  xforce=   0.0000E+00   yforce=   0.0000E+00  zforce=  -1.6418E+02   energy=   5.8893E-03   setid =    1738 xmoment=   0.0000E+00 ymoment=   0.0000E+00 zmoment=   0.0000E+00
 nd#    1739  xforce=   0.0000E+00   yforce=   0.0000E+00  zforce=  -1.8623E+02   energy=   5.7083E-03   setid =    1739 xmoment=   0.0000E+00 ymoment=   0.0000E+00 zmoment=   0.0000E+00
 nd#    1740  xforce=   0.0000E+00   yforce=   0.0000E+00  zforce=  -1.6501E+02   energy=   5.8096E-03   setid =    1740 xmoment=   0.0000E+00 ymoment=   0.0000E+00 zmoment=   0.0000E+00
 nd#    1741  xforce=   0.0000E+00   yforce=   0.0000E+00  zforce=  -1.5515E+02   energy=   5.2382E-03   setid =    1741 xmoment=   0.0000E+00 ymoment=   0.0000E+00 zmoment=   0.0000E+00
 nd#    1742  xforce=   0.0000E+00   yforce=   0.0000E+00  zforce=  -1.0413E+02   energy=   4.8571E-03   setid =    1742 xmoment=   0.0000E+00 ymoment=   0.0000E+00 zmoment=   0.0000E+00
 nd#    1743  xforce=   0.0000E+00   yforce=   0.0000E+00  zforce=  -6.4528E+01   energy=   2.4240E-03   setid =    1743 xmoment=   0.0000E+00 ymoment=   0.0000E+00 zmoment=   0.0000E+00
 nd#    1744  xforce=   0.0000E+00   yforce=   0.0000E+00  zforce=  -2.6199E+01   energy=   2.0118E-03   setid =    1744 xmoment=   0.0000E+00 ymoment=   0.0000E+00 zmoment=   0.0000E+00
 nd#    1751  xforce=   0.0000E+00   yforce=   0.0000E+00  zforce=  -1.3398E+02   energy=   4.0877E-03   setid =    1751 xmoment=   0.0000E+00 ymoment=   0.0000E+00 zmoment=   0.0000E+00
 nd#    1752  xforce=   0.0000E+00   yforce=   0.0000E+00  zforce=  -1.3844E+02   energy=   4.4991E-03   setid =    1752 xmoment=   0.0000E+00 ymoment=   0.0000E+00 zmoment=   0.0000E+00
 nd#    1753  xforce=   0.0000E+00   yforce=   0.0000E+00  zforce=  -1.5592E+02   energy=   4.4672E-03   setid =    1753 xmoment=   0.0000E+00 ymoment=   0.0000E+00 zmoment=   0.0000E+00
 nd#    1754  xforce=   0.0000E+00   yforce=   0.0000E+00  zforce=  -1.6272E+02   energy=   4.8917E-03   setid =    1754 xmoment=   0.0000E+00 ymoment=   0.0000E+00 zmoment=   0.0000E+00
 nd#    1755  xforce=   0.0000E+00   yforce=   0.0000E+00  zforce=  -1.5292E+02   energy=   4.4454E-03   setid =    1755 xmoment=   0.0000E+00 ymoment=   0.0000E+00 zmoment=   0.0000E+00
 nd#    1756  xforce=   0.0000E+00   yforce=   0.0000E+00  zforce=  -1.6468E+02   energy=   4.9746E-03   setid =    1756 xmoment=   0.0000E+00 ymoment=   0.0000E+00 zmoment=   0.0000E+00
 nd#    1757  xforce=   0.0000E+00   yforce=   0.0000E+00  zforce=  -1.6769E+02   energy=   4.6658E-03   setid =    1757 xmoment=   0.0000E+00 ymoment=   0.0000E+00 zmoment=   0.0000E+00
 nd#    1758  xforce=   0.0000E+00   yforce=   0.0000E+00  zforce=  -1.8110E+02   energy=   5.2321E-03   setid =    1758 xmoment=   0.0000E+00 ymoment=   0.0000E+00 zmoment=   0.0000E+00
 nd#    1759  xforce=   0.0000E+00   yforce=   0.0000E+00  zforce=  -1.4257E+02   energy=   4.2838E-03   setid =    1759 xmoment=   0.0000E+00 ymoment=   0.0000E+00 zmoment=   0.0000E+00
 nd#    1760  xforce=   0.0000E+00   yforce=   0.0000E+00  zforce=  -1.6248E+02   energy=   4.8977E-03   setid =    1760 xmoment=   0.0000E+00 ymoment=   0.0000E+00 zmoment=   0.0000E+00
 nd#    1761  xforce=   0.0000E+00   yforce=   0.0000E+00  zforce=  -6.6025E+01   energy=   2.0654E-03   setid =    1761 xmoment=   0.0000E+00 ymoment=   0.0000E+00 zmoment=   0.0000E+00
 nd#    1762  xforce=   0.0000E+00   yforce=   0.0000E+00  zforce=  -7.0555E+01   energy=   2.2905E-03   setid =    1762 xmoment=   0.0000E+00 ymoment=   0.0000E+00 zmoment=   0.0000E+00
 nd#    1769  xforce=   0.0000E+00   yforce=   0.0000E+00  zforce=   2.6203E+01   energy=   4.6527E-04   setid =    1769 xmoment=   0.0000E+00 ymoment=   0.0000E+00 zmoment=   0.0000E+00
 nd#    1770  xforce=   0.0000E+00   yforce=   0.0000E+00  zforce=   4.4607E+01   energy=   1.5504E-04   setid =    1770 xmoment=   0.0000E+00 ymoment=   0.0000E+00 zmoment=   0.0000E+00
 nd#    1771  xforce=   0.0000E+00   yforce=   0.0000E+00  zforce=   6.6109E+01   energy=  -2.3615E-04   setid =    1771 xmoment=   0.0000E+00 ymoment=   0.0000E+00 zmoment=   0.0000E+00
 nd#    1772  xforce=   0.0000E+00   yforce=   0.0000E+00  zforce=   7.4454E+01   energy=  -4.6847E-04   setid =    1772 xmoment=   0.0000E+00 ymoment=   0.0000E+00 zmoment=   0.0000E+00
 nd#    1773  xforce=   0.0000E+00   yforce=   0.0000E+00  zforce=   1.0268E+02   energy=  -8.0395E-04   setid =    1773 xmoment=   0.0000E+00 ymoment=   0.0000E+00 zmoment=   0.0000E+00
 nd#    1774  xforce=   0.0000E+00   yforce=   0.0000E+00  zforce=   5.9700E+01   energy=  -5.1060E-04   setid =    1774 xmoment=   0.0000E+00 ymoment=   0.0000E+00 zmoment=   0.0000E+00
              xtotal=   0.0000E+00   ytotal=   0.0000E+00  ztotal=  -5.4772E+03   etotal=   1.8368E-01

 n o d a l   f o r c e/e n e r g y    o u t p u t  t=   1.31532E+01

 velocity boundary condition forces/rigid body moments 

 nd#     354  xforce=   0.0000E+00   yforce=   0.0000E+00  zforce=  -5.5353E+01   energy=   2.1635E-03   setid =     354 xmoment=   0.0000E+00 ymoment=   0.0000E+00 zmoment=   0.0000E+00
 nd#     355  xforce=   0.0000E+00   yforce=   0.0000E+00  zforce=  -6.2695E+01   energy=   2.7704E-03   setid =     355 xmoment=   0.0000E+00 ymoment=   0.0000E+00 zmoment=   0.0000E+00
 nd#     356  xforce=   0.0000E+00   yforce=   0.0000E+00  zforce=  -4.0531E+01   energy=   1.6258E-03   setid =     356 xmoment=   0.0000E+00 ymoment=   0.0000E+00 zmoment=   0.0000E+00
 nd#     357  xforce=   0.0000E+00   yforce=   0.0000E+00  zforce=  -5.2634E+01   energy=   1.7008E-03   setid =     357 xmoment=   0.0000E+00 ymoment=   0.0000E+00 zmoment=   0.0000E+00
 nd#     403  xforce=   0.0000E+00   yforce=   0.0000E+00  zforce=  -2.0474E+01   energy=   1.0008E-03   setid =     403 xmoment=   0.0000E+00 ymoment=   0.0000E+00 zmoment=   0.0000E+00
 nd#     404  xforce=   0.0000E+00   yforce=   0.0000E+00  zforce=  -5.8054E+01   energy=   2.0543E-03   setid =     404 xmoment=   0.0000E+00 ymoment=   0.0000E+00 zmoment=   0.0000E+00
 nd#     405  xforce=   0.0000E+00   yforce=   0.0000E+00  zforce=  -2.6177E+01   energy=   1.2575E-03   setid =     405 xmoment=   0.0000E+00 ymoment=   0.0000E+00 zmoment=   0.0000E+00
 nd#     466  xforce=   0.0000E+00   yforce=   0.0000E+00  zforce=  -3.2378E+01   energy=   9.6365E-04   setid =     466 xmoment=   0.0000E+00 ymoment=   0.0000E+00 zmoment=   0.0000E+00
 nd#     467  xforce=   0.0000E+00   yforce=   0.0000E+00  zforce=   1.4504E+01   energy=   1.4292E-04   setid =     467 xmoment=   0.0000E+00 ymoment=   0.0000E+00 zmoment=   0.0000E+00
 nd#     468  xforce=   0.0000E+00   yforce=   0.0000E+00  zforce=  -3.8645E+01   energy=   1.5413E-03   setid =     468 xmoment=   0.0000E+00 ymoment=   0.0000E+00 zmoment=   0.0000E+00
 nd#     469  xforce=   0.0000E+00   yforce=   0.0000E+00  zforce=  -3.1198E+01   energy=   1.2129E-03   setid =     469 xmoment=   0.0000E+00 ymoment=   0.0000E+00 zmoment=   0.0000E+00
 nd#     530  xforce=   0.0000E+00   yforce=   0.0000E+00  zforce=  -8.1300E+00   energy=   7.5741E-04   setid =     530 xmoment=   0.0000E+00 ymoment=   0.0000E+00 zmoment=   0.0000E+00
 nd#     531  xforce=   0.0000E+00   yforce=   0.0000E+00  zforce=  -3.2791E+01   energy=   1.3767E-03   setid =     531 xmoment=   0.0000E+00 ymoment=   0.0000E+00 zmoment=   0.0000E+00
 nd#     532  xforce=   0.0000E+00   yforce=   0.0000E+00  zforce=   2.2640E+01   energy=  -1.2174E-05   setid =     532 xmoment=   0.0000E+00 ymoment=   0.0000E+00 zmoment=   0.0000E+00
 nd#     533  xforce=   0.0000E+00   yforce=   0.0000E+00  zforce=   3.7297E+01   energy=  -4.6815E-04   setid =     533 xmoment=   0.0000E+00 ymoment=   0.0000E+00 zmoment=   0.0000E+00
 nd#     549  xforce=   0.0000E+00   yforce=   0.0000E+00  zforce=   1.5410E+00   energy=   3.7731E-04   setid =     549 xmoment=   0.0000E+00 ymoment=   0.0000E+00 zmoment=   0.0000E+00
 nd#     610  xforce=   0.0000E+00   yforce=   0.0000E+00  zforce=  -7.2316E+01   energy=   2.5269E-03   setid =     610 xmoment=   0.0000E+00 ymoment=   0.0000E+00 zmoment=   0.0000E+00
 nd#     611  xforce=   0.0000E+00   yforce=   0.0000E+00  zforce=  -5.3922E+01   energy=   1.8488E-03   setid =     611 xmoment=   0.0000E+00 ymoment=   0.0000E+00 zmoment=   0.0000E+00
 nd#     612  xforce=   0.0000E+00   yforce=   0.0000E+00  zforce=  -1.0270E+02   energy=   3.5417E-03   setid =     612 xmoment=   0.0000E+00 ymoment=   0.0000E+00 zmoment=   0.0000E+00
 nd#     613  xforce=   0.0000E+00   yforce=   0.0000E+00  zforce=  -1.1134E+02   energy=   4.0157E-03   setid =     613 xmoment=   0.0000E+00 ymoment=   0.0000E+00 zmoment=   0.0000E+00
 nd#     629  xforce=   0.0000E+00   yforce=   0.0000E+00  zforce=  -5.9110E+01   energy=   2.0103E-03   setid =     629 xmoment=   0.0000E+00 ymoment=   0.0000E+00 zmoment=   0.0000E+00
 nd#     660  xforce=   0.0000E+00   yforce=   0.0000E+00  zforce=  -6.2113E+01   energy=   1.7907E-03   setid =     660 xmoment=   0.0000E+00 ymoment=   0.0000E+00 zmoment=   0.0000E+00
 nd#     661  xforce=   0.0000E+00   yforce=   0.0000E+00  zforce=  -2.5071E+01   energy=   9.1083E-04   setid =     661 xmoment=   0.0000E+00 ymoment=   0.0000E+00 zmoment=   0.0000E+00
 nd#     692  xforce=   0.0000E+00   yforce=   0.0000E+00  zforce=  -9.9961E+01   energy=   3.5277E-03   setid =     692 xmoment=   0.0000E+00 ymoment=   0.0000E+00 zmoment=   0.0000E+00
 nd#     693  xforce=   0.0000E+00   yforce=   0.0000E+00  zforce=  -9.0948E+01   energy=   3.3275E-03   setid =     693 xmoment=   0.0000E+00 ymoment=   0.0000E+00 zmoment=   0.0000E+00
[...]
 nd#    1737  xforce=   0.0000E+00   yforce=   0.0000E+00  zforce=  -2.0416E+02   energy=   1.0145E-01   setid =    1737 xmoment=   0.0000E+00 ymoment=   0.0000E+00 zmoment=   0.0000E+00
 nd#    1738  xforce=   0.0000E+00   yforce=   0.0000E+00  zforce=  -1.8305E+02   energy=   9.6323E-02   setid =    1738 xmoment=   0.0000E+00 ymoment=   0.0000E+00 zmoment=   0.0000E+00
 nd#    1739  xforce=   0.0000E+00   yforce=   0.0000E+00  zforce=  -2.0342E+02   energy=   1.0561E-01   setid =    1739 xmoment=   0.0000E+00 ymoment=   0.0000E+00 zmoment=   0.0000E+00
 nd#    1740  xforce=   0.0000E+00   yforce=   0.0000E+00  zforce=  -1.5959E+02   energy=   8.9224E-02   setid =    1740 xmoment=   0.0000E+00 ymoment=   0.0000E+00 zmoment=   0.0000E+00
 nd#    1741  xforce=   0.0000E+00   yforce=   0.0000E+00  zforce=  -1.3773E+02   energy=   7.9441E-02   setid =    1741 xmoment=   0.0000E+00 ymoment=   0.0000E+00 zmoment=   0.0000E+00
 nd#    1742  xforce=   0.0000E+00   yforce=   0.0000E+00  zforce=  -6.4642E+01   energy=   4.6852E-02   setid =    1742 xmoment=   0.0000E+00 ymoment=   0.0000E+00 zmoment=   0.0000E+00
 nd#    1743  xforce=   0.0000E+00   yforce=   0.0000E+00  zforce=  -5.2842E+01   energy=   3.2624E-02   setid =    1743 xmoment=   0.0000E+00 ymoment=   0.0000E+00 zmoment=   0.0000E+00
 nd#    1744  xforce=   0.0000E+00   yforce=   0.0000E+00  zforce=  -4.1582E+00   energy=   1.0254E-02   setid =    1744 xmoment=   0.0000E+00 ymoment=   0.0000E+00 zmoment=   0.0000E+00
 nd#    1751  xforce=   0.0000E+00   yforce=   0.0000E+00  zforce=  -1.5138E+02   energy=   7.8975E-02   setid =    1751 xmoment=   0.0000E+00 ymoment=   0.0000E+00 zmoment=   0.0000E+00
 nd#    1752  xforce=   0.0000E+00   yforce=   0.0000E+00  zforce=  -1.4866E+02   energy=   7.8942E-02   setid =    1752 xmoment=   0.0000E+00 ymoment=   0.0000E+00 zmoment=   0.0000E+00
 nd#    1753  xforce=   0.0000E+00   yforce=   0.0000E+00  zforce=  -2.1042E+02   energy=   1.0035E-01   setid =    1753 xmoment=   0.0000E+00 ymoment=   0.0000E+00 zmoment=   0.0000E+00
 nd#    1754  xforce=   0.0000E+00   yforce=   0.0000E+00  zforce=  -2.1498E+02   energy=   1.0371E-01   setid =    1754 xmoment=   0.0000E+00 ymoment=   0.0000E+00 zmoment=   0.0000E+00
 nd#    1755  xforce=   0.0000E+00   yforce=   0.0000E+00  zforce=  -1.9942E+02   energy=   9.6088E-02   setid =    1755 xmoment=   0.0000E+00 ymoment=   0.0000E+00 zmoment=   0.0000E+00
 nd#    1756  xforce=   0.0000E+00   yforce=   0.0000E+00  zforce=  -2.0935E+02   energy=   1.0220E-01   setid =    1756 xmoment=   0.0000E+00 ymoment=   0.0000E+00 zmoment=   0.0000E+00
 nd#    1757  xforce=   0.0000E+00   yforce=   0.0000E+00  zforce=  -1.8706E+02   energy=   9.4261E-02   setid =    1757 xmoment=   0.0000E+00 ymoment=   0.0000E+00 zmoment=   0.0000E+00
 nd#    1758  xforce=   0.0000E+00   yforce=   0.0000E+00  zforce=  -2.0692E+02   energy=   1.0436E-01   setid =    1758 xmoment=   0.0000E+00 ymoment=   0.0000E+00 zmoment=   0.0000E+00
 nd#    1759  xforce=   0.0000E+00   yforce=   0.0000E+00  zforce=  -1.4231E+02   energy=   7.5855E-02   setid =    1759 xmoment=   0.0000E+00 ymoment=   0.0000E+00 zmoment=   0.0000E+00
 nd#    1760  xforce=   0.0000E+00   yforce=   0.0000E+00  zforce=  -1.5461E+02   energy=   8.2877E-02   setid =    1760 xmoment=   0.0000E+00 ymoment=   0.0000E+00 zmoment=   0.0000E+00
 nd#    1761  xforce=   0.0000E+00   yforce=   0.0000E+00  zforce=  -6.5156E+01   energy=   3.5272E-02   setid =    1761 xmoment=   0.0000E+00 ymoment=   0.0000E+00 zmoment=   0.0000E+00
 nd#    1762  xforce=   0.0000E+00   yforce=   0.0000E+00  zforce=  -6.4702E+01   energy=   3.5989E-02   setid =    1762 xmoment=   0.0000E+00 ymoment=   0.0000E+00 zmoment=   0.0000E+00
 nd#    1769  xforce=   0.0000E+00   yforce=   0.0000E+00  zforce=   4.5357E+01   energy=  -2.0304E-02   setid =    1769 xmoment=   0.0000E+00 ymoment=   0.0000E+00 zmoment=   0.0000E+00
 nd#    1770  xforce=   0.0000E+00   yforce=   0.0000E+00  zforce=   5.8165E+01   energy=  -2.8008E-02   setid =    1770 xmoment=   0.0000E+00 ymoment=   0.0000E+00 zmoment=   0.0000E+00
 nd#    1771  xforce=   0.0000E+00   yforce=   0.0000E+00  zforce=   7.1372E+01   energy=  -3.5703E-02   setid =    1771 xmoment=   0.0000E+00 ymoment=   0.0000E+00 zmoment=   0.0000E+00
 nd#    1772  xforce=   0.0000E+00   yforce=   0.0000E+00  zforce=   8.0821E+01   energy=  -4.1536E-02   setid =    1772 xmoment=   0.0000E+00 ymoment=   0.0000E+00 zmoment=   0.0000E+00
 nd#    1773  xforce=   0.0000E+00   yforce=   0.0000E+00  zforce=   9.5491E+01   energy=  -5.2066E-02   setid =    1773 xmoment=   0.0000E+00 ymoment=   0.0000E+00 zmoment=   0.0000E+00
 nd#    1774  xforce=   0.0000E+00   yforce=   0.0000E+00  zforce=   5.3805E+01   energy=  -2.9443E-02   setid =    1774 xmoment=   0.0000E+00 ymoment=   0.0000E+00 zmoment=   0.0000E+00
              xtotal=   0.0000E+00   ytotal=   0.0000E+00  ztotal=  -6.3534E+03   etotal=   3.2599E+00

 n o d a l   f o r c e/e n e r g y    o u t p u t  t=   1.00000E+02

 velocity boundary condition forces/rigid body moments 

 nd#     354  xforce=   0.0000E+00   yforce=   0.0000E+00  zforce=  -6.5860E+01   energy=   3.5896E-02   setid =     354 xmoment=   0.0000E+00 ymoment=   0.0000E+00 zmoment=   0.0000E+00
 nd#     355  xforce=   0.0000E+00   yforce=   0.0000E+00  zforce=  -6.6755E+01   energy=   3.7641E-02   setid =     355 xmoment=   0.0000E+00 ymoment=   0.0000E+00 zmoment=   0.0000E+00
 nd#     356  xforce=   0.0000E+00   yforce=   0.0000E+00  zforce=  -5.6336E+01   energy=   2.5540E-02   setid =     356 xmoment=   0.0000E+00 ymoment=   0.0000E+00 zmoment=   0.0000E+00
 nd#     357  xforce=   0.0000E+00   yforce=   0.0000E+00  zforce=  -8.2305E+01   energy=   3.5480E-02   setid =     357 xmoment=   0.0000E+00 ymoment=   0.0000E+00 zmoment=   0.0000E+00
 nd#     403  xforce=   0.0000E+00   yforce=   0.0000E+00  zforce=  -4.7679E+01   energy=   2.3926E-02   setid =     403 xmoment=   0.0000E+00 ymoment=   0.0000E+00 zmoment=   0.0000E+00
 nd#     404  xforce=   0.0000E+00   yforce=   0.0000E+00  zforce=  -9.3742E+01   energy=   4.2973E-02   setid =     404 xmoment=   0.0000E+00 ymoment=   0.0000E+00 zmoment=   0.0000E+00
 nd#     405  xforce=   0.0000E+00   yforce=   0.0000E+00  zforce=  -1.3194E+01   energy=   1.7454E-02   setid =     405 xmoment=   0.0000E+00 ymoment=   0.0000E+00 zmoment=   0.0000E+00
 nd#     466  xforce=   0.0000E+00   yforce=   0.0000E+00  zforce=  -5.9090E+01   energy=   2.4544E-02   setid =     466 xmoment=   0.0000E+00 ymoment=   0.0000E+00 zmoment=   0.0000E+00
 nd#     467  xforce=   0.0000E+00   yforce=   0.0000E+00  zforce=   2.0008E+01   energy=   4.5632E-03   setid =     467 xmoment=   0.0000E+00 ymoment=   0.0000E+00 zmoment=   0.0000E+00
 nd#     468  xforce=   0.0000E+00   yforce=   0.0000E+00  zforce=  -4.1059E+01   energy=   2.6988E-02   setid =     468 xmoment=   0.0000E+00 ymoment=   0.0000E+00 zmoment=   0.0000E+00
 nd#     469  xforce=   0.0000E+00   yforce=   0.0000E+00  zforce=  -5.9520E+01   energy=   2.5167E-02   setid =     469 xmoment=   0.0000E+00 ymoment=   0.0000E+00 zmoment=   0.0000E+00
 nd#     530  xforce=   0.0000E+00   yforce=   0.0000E+00  zforce=   2.5103E+01   energy=   2.4053E-03   setid =     530 xmoment=   0.0000E+00 ymoment=   0.0000E+00 zmoment=   0.0000E+00
 nd#     531  xforce=   0.0000E+00   yforce=   0.0000E+00  zforce=   1.2113E+01   energy=   1.3534E-02   setid =     531 xmoment=   0.0000E+00 ymoment=   0.0000E+00 zmoment=   0.0000E+00
 nd#     532  xforce=   0.0000E+00   yforce=   0.0000E+00  zforce=   8.7972E+00   energy=  -7.8485E-03   setid =     532 xmoment=   0.0000E+00 ymoment=   0.0000E+00 zmoment=   0.0000E+00
 nd#     533  xforce=   0.0000E+00   yforce=   0.0000E+00  zforce=   1.6722E+01   energy=  -1.5197E-02   setid =     533 xmoment=   0.0000E+00 ymoment=   0.0000E+00 zmoment=   0.0000E+00
 nd#     549  xforce=   0.0000E+00   yforce=   0.0000E+00  zforce=   1.7636E+01   energy=  -3.7322E-03   setid =     549 xmoment=   0.0000E+00 ymoment=   0.0000E+00 zmoment=   0.0000E+00
 nd#     610  xforce=   0.0000E+00   yforce=   0.0000E+00  zforce=  -1.1191E+02   energy=   5.2588E-02   setid =     610 xmoment=   0.0000E+00 ymoment=   0.0000E+00 zmoment=   0.0000E+00
 nd#     611  xforce=   0.0000E+00   yforce=   0.0000E+00  zforce=  -9.8983E+01   energy=   4.1521E-02   setid =     611 xmoment=   0.0000E+00 ymoment=   0.0000E+00 zmoment=   0.0000E+00
 nd#     612  xforce=   0.0000E+00   yforce=   0.0000E+00  zforce=  -1.2376E+02   energy=   6.2318E-02   setid =     612 xmoment=   0.0000E+00 ymoment=   0.0000E+00 zmoment=   0.0000E+00
 nd#     613  xforce=   0.0000E+00   yforce=   0.0000E+00  zforce=  -1.4503E+02   energy=   7.4078E-02   setid =     613 xmoment=   0.0000E+00 ymoment=   0.0000E+00 zmoment=   0.0000E+00
 nd#     629  xforce=   0.0000E+00   yforce=   0.0000E+00  zforce=  -1.0234E+02   energy=   4.3135E-02   setid =     629 xmoment=   0.0000E+00 ymoment=   0.0000E+00 zmoment=   0.0000E+00
 nd#     660  xforce=   0.0000E+00   yforce=   0.0000E+00  zforce=  -1.2453E+02   energy=   4.9293E-02   setid =     660 xmoment=   0.0000E+00 ymoment=   0.0000E+00 zmoment=   0.0000E+00
 nd#     661  xforce=   0.0000E+00   yforce=   0.0000E+00  zforce=  -1.0820E+02   energy=   3.3159E-02   setid =     661 xmoment=   0.0000E+00 ymoment=   0.0000E+00 zmoment=   0.0000E+00
 nd#     692  xforce=   0.0000E+00   yforce=   0.0000E+00  zforce=  -1.3342E+02   energy=   6.5302E-02   setid =     692 xmoment=   0.0000E+00 ymoment=   0.0000E+00 zmoment=   0.0000E+00
 nd#     693  xforce=   0.0000E+00   yforce=   0.0000E+00  zforce=  -1.1335E+02   energy=   5.7190E-02   setid =     693 xmoment=   0.0000E+00 ymoment=   0.0000E+00 zmoment=   0.0000E+00
 nd#     724  xforce=   0.0000E+00   yforce=   0.0000E+00  zforce=  -9.6604E+01   energy=   4.1299E-02   setid =     724 xmoment=   0.0000E+00 ymoment=   0.0000E+00 zmoment=   0.0000E+00
 nd#     725  xforce=   0.0000E+00   yforce=   0.0000E+00  zforce=  -5.0937E+01   energy=   4.1143E-02   setid =     725 xmoment=   0.0000E+00 ymoment=   0.0000E+00 zmoment=   0.0000E+00
 nd#     771  xforce=   0.0000E+00   yforce=   0.0000E+00  zforce=   9.2387E+01   energy=  -2.2269E-02   setid =     771 xmoment=   0.0000E+00 ymoment=   0.0000E+00 zmoment=   0.0000E+00
 nd#     772  xforce=   0.0000E+00   yforce=   0.0000E+00  zforce=  -9.5845E+01   energy=   3.7489E-02   setid =     772 xmoment=   0.0000E+00 ymoment=   0.0000E+00 zmoment=   0.0000E+00
 nd#     773  xforce=   0.0000E+00   yforce=   0.0000E+00  zforce=  -6.0506E+01   energy=   2.4460E-02   setid =     773 xmoment=   0.0000E+00 ymoment=   0.0000E+00 zmoment=   0.0000E+00
 nd#     804  xforce=   0.0000E+00   yforce=   0.0000E+00  zforce=  -7.7014E+01   energy=   3.8770E-02   setid =     804 xmoment=   0.0000E+00 ymoment=   0.0000E+00 zmoment=   0.0000E+00
 nd#     805  xforce=   0.0000E+00   yforce=   0.0000E+00  zforce=  -7.7777E+01   energy=   4.1164E-02   setid =     805 xmoment=   0.0000E+00 ymoment=   0.0000E+00 zmoment=   0.0000E+00
 nd#     821  xforce=   0.0000E+00   yforce=   0.0000E+00  zforce=  -6.7550E+01   energy=   4.2046E-02   setid =     821 xmoment=   0.0000E+00 ymoment=   0.0000E+00 zmoment=   0.0000E+00
 nd#     852  xforce=   0.0000E+00   yforce=   0.0000E+00  zforce=   4.7009E+01   energy=  -2.3604E-02   setid =     852 xmoment=   0.0000E+00 ymoment=   0.0000E+00 zmoment=   0.0000E+00
 nd#     853  xforce=   0.0000E+00   yforce=   0.0000E+00  zforce=  -1.0462E+01   energy=   2.9266E-03   setid =     853 xmoment=   0.0000E+00 ymoment=   0.0000E+00 zmoment=   0.0000E+00
 nd#     869  xforce=   0.0000E+00   yforce=   0.0000E+00  zforce=  -5.0628E+01   energy=   3.0425E-02   setid =     869 xmoment=   0.0000E+00 ymoment=   0.0000E+00 zmoment=   0.0000E+00
 nd#     885  xforce=   0.0000E+00   yforce=   0.0000E+00  zforce=  -5.6310E+01   energy=   3.1868E-02   setid =     885 xmoment=   0.0000E+00 ymoment=   0.0000E+00 zmoment=   0.0000E+00
 nd#    1082  xforce=   0.0000E+00   yforce=   0.0000E+00  zforce=   3.1801E+01   energy=  -1.3571E-02   setid =    1082 xmoment=   0.0000E+00 ymoment=   0.0000E+00 zmoment=   0.0000E+00
 nd#    1083  xforce=   0.0000E+00   yforce=   0.0000E+00  zforce=  -2.6282E+01   energy=   1.8605E-02   setid =    1083 xmoment=   0.0000E+00 ymoment=   0.0000E+00 zmoment=   0.0000E+00
 nd#    1084  xforce=   0.0000E+00   yforce=   0.0000E+00  zforce=  -4.7838E+01   energy=   2.8227E-02   setid =    1084 xmoment=   0.0000E+00 ymoment=   0.0000E+00 zmoment=   0.0000E+00
 nd#    1085  xforce=   0.0000E+00   yforce=   0.0000E+00  zforce=  -6.6319E+01   energy=   3.6238E-02   setid =    1085 xmoment=   0.0000E+00 ymoment=   0.0000E+00 zmoment=   0.0000E+00
 nd#    1086  xforce=   0.0000E+00   yforce=   0.0000E+00  zforce=  -7.7926E+01   energy=   4.1117E-02   setid =    1086 xmoment=   0.0000E+00 ymoment=   0.0000E+00 zmoment=   0.0000E+00
 nd#    1087  xforce=   0.0000E+00   yforce=   0.0000E+00  zforce=  -7.9601E+01   energy=   4.2418E-02   setid =    1087 xmoment=   0.0000E+00 ymoment=   0.0000E+00 zmoment=   0.0000E+00
 nd#    1649  xforce=   0.0000E+00   yforce=   0.0000E+00  zforce=  -1.3793E+02   energy=   7.2410E-02   setid =    1649 xmoment=   0.0000E+00 ymoment=   0.0000E+00 zmoment=   0.0000E+00
 nd#    1651  xforce=   0.0000E+00   yforce=   0.0000E+00  zforce=  -1.7966E+02   energy=   9.1255E-02   setid =    1651 xmoment=   0.0000E+00 ymoment=   0.0000E+00 zmoment=   0.0000E+00
 nd#    1653  xforce=   0.0000E+00   yforce=   0.0000E+00  zforce=  -1.7312E+02   energy=   8.6434E-02   setid =    1653 xmoment=   0.0000E+00 ymoment=   0.0000E+00 zmoment=   0.0000E+00
 nd#    1655  xforce=   0.0000E+00   yforce=   0.0000E+00  zforce=  -1.5918E+02   energy=   8.3239E-02   setid =    1655 xmoment=   0.0000E+00 ymoment=   0.0000E+00 zmoment=   0.0000E+00
 nd#    1657  xforce=   0.0000E+00   yforce=   0.0000E+00  zforce=  -1.2507E+02   energy=   6.8481E-02   setid =    1657 xmoment=   0.0000E+00 ymoment=   0.0000E+00 zmoment=   0.0000E+00
 nd#    1659  xforce=   0.0000E+00   yforce=   0.0000E+00  zforce=  -6.9786E+01   energy=   3.6052E-02   setid =    1659 xmoment=   0.0000E+00 ymoment=   0.0000E+00 zmoment=   0.0000E+00
 nd#    1733  xforce=   0.0000E+00   yforce=   0.0000E+00  zforce=  -1.3660E+02   energy=   7.4591E-02   setid =    1733 xmoment=   0.0000E+00 ymoment=   0.0000E+00 zmoment=   0.0000E+00
 nd#    1734  xforce=   0.0000E+00   yforce=   0.0000E+00  zforce=  -1.1263E+02   energy=   6.3522E-02   setid =    1734 xmoment=   0.0000E+00 ymoment=   0.0000E+00 zmoment=   0.0000E+00
 nd#    1735  xforce=   0.0000E+00   yforce=   0.0000E+00  zforce=  -2.0229E+02   energy=   1.0242E-01   setid =    1735 xmoment=   0.0000E+00 ymoment=   0.0000E+00 zmoment=   0.0000E+00
 nd#    1736  xforce=   0.0000E+00   yforce=   0.0000E+00  zforce=  -1.6942E+02   energy=   9.0033E-02   setid =    1736 xmoment=   0.0000E+00 ymoment=   0.0000E+00 zmoment=   0.0000E+00
 nd#    1737  xforce=   0.0000E+00   yforce=   0.0000E+00  zforce=  -2.0621E+02   energy=   1.0463E-01   setid =    1737 xmoment=   0.0000E+00 ymoment=   0.0000E+00 zmoment=   0.0000E+00
 nd#    1738  xforce=   0.0000E+00   yforce=   0.0000E+00  zforce=  -1.8597E+02   energy=   9.9186E-02   setid =    1738 xmoment=   0.0000E+00 ymoment=   0.0000E+00 zmoment=   0.0000E+00
 nd#    1739  xforce=   0.0000E+00   yforce=   0.0000E+00  zforce=  -2.0753E+02   energy=   1.0880E-01   setid =    1739 xmoment=   0.0000E+00 ymoment=   0.0000E+00 zmoment=   0.0000E+00
 nd#    1740  xforce=   0.0000E+00   yforce=   0.0000E+00  zforce=  -1.6306E+02   energy=   9.1727E-02   setid =    1740 xmoment=   0.0000E+00 ymoment=   0.0000E+00 zmoment=   0.0000E+00
 nd#    1741  xforce=   0.0000E+00   yforce=   0.0000E+00  zforce=  -1.3690E+02   energy=   8.1572E-02   setid =    1741 xmoment=   0.0000E+00 ymoment=   0.0000E+00 zmoment=   0.0000E+00
 nd#    1742  xforce=   0.0000E+00   yforce=   0.0000E+00  zforce=  -6.3292E+01   energy=   4.7844E-02   setid =    1742 xmoment=   0.0000E+00 ymoment=   0.0000E+00 zmoment=   0.0000E+00
 nd#    1743  xforce=   0.0000E+00   yforce=   0.0000E+00  zforce=  -5.4796E+01   energy=   3.3459E-02   setid =    1743 xmoment=   0.0000E+00 ymoment=   0.0000E+00 zmoment=   0.0000E+00
 nd#    1744  xforce=   0.0000E+00   yforce=   0.0000E+00  zforce=  -6.5802E+00   energy=   1.0337E-02   setid =    1744 xmoment=   0.0000E+00 ymoment=   0.0000E+00 zmoment=   0.0000E+00
 nd#    1751  xforce=   0.0000E+00   yforce=   0.0000E+00  zforce=  -1.5538E+02   energy=   8.1355E-02   setid =    1751 xmoment=   0.0000E+00 ymoment=   0.0000E+00 zmoment=   0.0000E+00
 nd#    1752  xforce=   0.0000E+00   yforce=   0.0000E+00  zforce=  -1.5300E+02   energy=   8.1282E-02   setid =    1752 xmoment=   0.0000E+00 ymoment=   0.0000E+00 zmoment=   0.0000E+00
 nd#    1753  xforce=   0.0000E+00   yforce=   0.0000E+00  zforce=  -2.0697E+02   energy=   1.0359E-01   setid =    1753 xmoment=   0.0000E+00 ymoment=   0.0000E+00 zmoment=   0.0000E+00
 nd#    1754  xforce=   0.0000E+00   yforce=   0.0000E+00  zforce=  -2.1553E+02   energy=   1.0705E-01   setid =    1754 xmoment=   0.0000E+00 ymoment=   0.0000E+00 zmoment=   0.0000E+00
 nd#    1755  xforce=   0.0000E+00   yforce=   0.0000E+00  zforce=  -1.9828E+02   energy=   9.9173E-02   setid =    1755 xmoment=   0.0000E+00 ymoment=   0.0000E+00 zmoment=   0.0000E+00
 nd#    1756  xforce=   0.0000E+00   yforce=   0.0000E+00  zforce=  -2.1070E+02   energy=   1.0546E-01   setid =    1756 xmoment=   0.0000E+00 ymoment=   0.0000E+00 zmoment=   0.0000E+00
 nd#    1757  xforce=   0.0000E+00   yforce=   0.0000E+00  zforce=  -1.8819E+02   energy=   9.7172E-02   setid =    1757 xmoment=   0.0000E+00 ymoment=   0.0000E+00 zmoment=   0.0000E+00
 nd#    1758  xforce=   0.0000E+00   yforce=   0.0000E+00  zforce=  -2.0980E+02   energy=   1.0759E-01   setid =    1758 xmoment=   0.0000E+00 ymoment=   0.0000E+00 zmoment=   0.0000E+00
 nd#    1759  xforce=   0.0000E+00   yforce=   0.0000E+00  zforce=  -1.4190E+02   energy=   7.8059E-02   setid =    1759 xmoment=   0.0000E+00 ymoment=   0.0000E+00 zmoment=   0.0000E+00
 nd#    1760  xforce=   0.0000E+00   yforce=   0.0000E+00  zforce=  -1.5253E+02   energy=   8.5260E-02   setid =    1760 xmoment=   0.0000E+00 ymoment=   0.0000E+00 zmoment=   0.0000E+00
 nd#    1761  xforce=   0.0000E+00   yforce=   0.0000E+00  zforce=  -6.6343E+01   energy=   3.6292E-02   setid =    1761 xmoment=   0.0000E+00 ymoment=   0.0000E+00 zmoment=   0.0000E+00
 nd#    1762  xforce=   0.0000E+00   yforce=   0.0000E+00  zforce=  -6.5276E+01   energy=   3.6997E-02   setid =    1762 xmoment=   0.0000E+00 ymoment=   0.0000E+00 zmoment=   0.0000E+00
 nd#    1769  xforce=   0.0000E+00   yforce=   0.0000E+00  zforce=   4.3767E+01   energy=  -2.0996E-02   setid =    1769 xmoment=   0.0000E+00 ymoment=   0.0000E+00 zmoment=   0.0000E+00
 nd#    1770  xforce=   0.0000E+00   yforce=   0.0000E+00  zforce=   5.7685E+01   energy=  -2.8907E-02   setid =    1770 xmoment=   0.0000E+00 ymoment=   0.0000E+00 zmoment=   0.0000E+00
 nd#    1771  xforce=   0.0000E+00   yforce=   0.0000E+00  zforce=   7.0978E+01   energy=  -3.6808E-02   setid =    1771 xmoment=   0.0000E+00 ymoment=   0.0000E+00 zmoment=   0.0000E+00
 nd#    1772  xforce=   0.0000E+00   yforce=   0.0000E+00  zforce=   8.2192E+01   energy=  -4.2801E-02   setid =    1772 xmoment=   0.0000E+00 ymoment=   0.0000E+00 zmoment=   0.0000E+00
 nd#    1773  xforce=   0.0000E+00   yforce=   0.0000E+00  zforce=   9.5758E+01   energy=  -5.3549E-02   setid =    1773 xmoment=   0.0000E+00 ymoment=   0.0000E+00 zmoment=   0.0000E+00
 nd#    1774  xforce=   0.0000E+00   yforce=   0.0000E+00  zforce=   5.1997E+01   energy=  -3.0264E-02   setid =    1774 xmoment=   0.0000E+00 ymoment=   0.0000E+00 zmoment=   0.0000E+00
              xtotal=   0.0000E+00   ytotal=   0.0000E+00  ztotal=  -6.3686E+03   etotal=   3.3586E+00
