 LS-DYNA keyword deck by LS-PrePost                                      
                    ls-dyna smp d R14 R14.1.1s_1_ef50e1 date 06/16/2024



 e l e m e n t   s t r e s s   c a l c u l a t i o n s   f o r   t i m e  s t e p        1   ( at time 0.00000E+00 )

 element  materl
     ipt  stress       sig-xx      sig-yy      sig-zz      sig-xy      sig-yz      sig-zx                       yield
           state                                                                                  effsg      function
      45-      1
       1          -1.9509E-06 -1.9509E-06 -1.9509E-06  0.0000E+00  0.0000E+00  0.0000E+00    0.0000E+00    0.0000E+00
      47-      1
       1          -1.9509E-06 -1.9509E-06 -1.9509E-06  0.0000E+00  0.0000E+00  0.0000E+00    0.0000E+00    0.0000E+00
      53-      1
       1          -3.9019E-06 -3.9019E-06 -3.9019E-06  0.0000E+00  0.0000E+00  0.0000E+00    0.0000E+00    0.0000E+00
      61-      1
       1           0.0000E+00  0.0000E+00  0.0000E+00  0.0000E+00  0.0000E+00  0.0000E+00    0.0000E+00    0.0000E+00
      67-      1
       1          -3.9019E-06 -3.9019E-06 -3.9019E-06  0.0000E+00  0.0000E+00  0.0000E+00    0.0000E+00    0.0000E+00
      79-      1
       1           0.0000E+00  0.0000E+00  0.0000E+00  0.0000E+00  0.0000E+00  0.0000E+00    0.0000E+00    0.0000E+00
      81-      1
       1          -1.9509E-06 -1.9509E-06 -1.9509E-06  0.0000E+00  0.0000E+00  0.0000E+00    0.0000E+00    0.0000E+00



 e l e m e n t   s t r a i n   c a l c u l a t i o n s   f o r   t i m e  s t e p        1   ( at time  0.00000E+00 )

 element  strain       eps-xx      eps-yy      eps-zz      eps-xy      eps-yz      eps-zx                            yield
 num/ipt   state
      45-      1
      1            0.0000E+00  0.0000E+00  0.0000E+00  0.0000E+00  0.0000E+00  0.0000E+00
      47-      1
      1            0.0000E+00  0.0000E+00  0.0000E+00  0.0000E+00  0.0000E+00  0.0000E+00
      53-      1
      1            0.0000E+00  0.0000E+00  0.0000E+00  0.0000E+00  0.0000E+00  0.0000E+00
      61-      1
      1            0.0000E+00  0.0000E+00  0.0000E+00  0.0000E+00  0.0000E+00  0.0000E+00
      67-      1
      1            0.0000E+00  0.0000E+00  0.0000E+00  0.0000E+00  0.0000E+00  0.0000E+00
      79-      1
      1            0.0000E+00  0.0000E+00  0.0000E+00  0.0000E+00  0.0000E+00  0.0000E+00
      81-      1
      1            0.0000E+00  0.0000E+00  0.0000E+00  0.0000E+00  0.0000E+00  0.0000E+00



 e l e m e n t   s t r e s s   c a l c u l a t i o n s   f o r   t i m e  s t e p        6   ( at time 2.50000E+00 )

 element  materl
     ipt  stress       sig-xx      sig-yy      sig-zz      sig-xy      sig-yz      sig-zx                       yield
           state                                                                                  effsg      function
      45-      1
       1          -2.4122E+07 -4.2056E+07 -1.5864E+08  1.0124E+07 -8.5538E+06 -1.8183E+07    1.3238E+08    0.0000E+00
      47-      1
       1          -3.8609E+07 -3.0687E+07 -1.6003E+08  1.3010E+07 -1.6669E+07 -1.1928E+07    1.3243E+08    0.0000E+00
      53-      1
       1          -3.1852E+07 -3.6790E+07 -1.6056E+08  1.3743E+07 -1.3474E+07 -1.5708E+07    1.3344E+08    0.0000E+00
      61-      1
       1          -1.9411E+07 -4.5436E+07 -1.5834E+08  3.8174E+06 -2.9673E+06 -1.9854E+07    1.3273E+08    0.0000E+00
      67-      1
       1          -4.2844E+07 -2.5412E+07 -1.5707E+08  9.4652E+06 -1.8455E+07 -7.0284E+06    1.2954E+08    0.0000E+00
      79-      1
       1          -3.6131E+07 -3.5995E+07 -7.9974E+07  1.5298E+05  4.2983E+04  1.2602E+03    4.3913E+07    0.0000E+00
      81-      1
       1          -4.4519E+07 -2.0665E+07 -1.5560E+08  3.7564E+06 -1.9840E+07 -2.2856E+06    1.2960E+08    0.0000E+00



 e l e m e n t   s t r a i n   c a l c u l a t i o n s   f o r   t i m e  s t e p        6   ( at time  2.50000E+00 )

 element  strain       eps-xx      eps-yy      eps-zz      eps-xy      eps-yz      eps-zx                            yield
 num/ipt   state
      45-      1
      1            6.1400E-04  2.7160E-04 -1.9534E-03  1.9325E-04 -1.6319E-04 -3.4678E-04
      47-      1
      1            3.5908E-04  5.1018E-04 -1.9582E-03  2.4831E-04 -3.1799E-04 -2.2747E-04
      53-      1
      1            4.8745E-04  3.9306E-04 -1.9690E-03  2.6231E-04 -2.5706E-04 -2.9957E-04
      61-      1
      1            6.9609E-04  1.9931E-04 -1.9556E-03  7.2861E-05 -5.6614E-05 -3.7864E-04
      67-      1
      1            2.5910E-04  5.9180E-04 -1.9209E-03  1.8068E-04 -3.5204E-04 -1.3404E-04
      79-      1
      1            3.7585E-05  4.0185E-05 -7.9913E-04  2.9194E-06  8.2475E-07  2.8547E-08
      81-      1
      1            2.0537E-04  6.6071E-04 -1.9147E-03  7.1713E-05 -3.7844E-04 -4.3587E-05



 e l e m e n t   s t r e s s   c a l c u l a t i o n s   f o r   t i m e  s t e p       10   ( at time 6.46223E+00 )

 element  materl
     ipt  stress       sig-xx      sig-yy      sig-zz      sig-xy      sig-yz      sig-zx                       yield
           state                                                                                  effsg      function
      45-      1
       1          -7.9601E+07 -1.2090E+08 -3.3695E+08  2.3645E+07 -1.6262E+07 -3.5085E+07    2.5193E+08    6.2595E-04
      47-      1
       1          -1.1306E+08 -9.5272E+07 -3.3927E+08  3.0288E+07 -3.0160E+07 -2.2403E+07    2.5000E+08    6.3664E-04
      53-      1
       1          -9.7993E+07 -1.1046E+08 -3.4004E+08  3.1617E+07 -2.4586E+07 -2.9356E+07    2.5124E+08    6.4456E-04
      61-      1
       1          -6.8047E+07 -1.2716E+08 -3.3172E+08  9.0196E+06 -5.6989E+06 -3.8388E+07    2.4938E+08    6.5286E-04
      67-      1
       1          -1.2043E+08 -7.9019E+07 -3.3739E+08  2.2783E+07 -3.5159E+07 -1.3722E+07    2.5219E+08    5.7901E-04
      79-      1
       1          -9.5658E+07 -9.4734E+07 -2.1053E+08  6.5110E+05  1.1372E+05 -4.4525E+04    1.1534E+08    0.0000E+00
      81-      1
       1          -1.2190E+08 -6.5455E+07 -3.2891E+08  9.2549E+06 -3.8324E+07 -4.4513E+06    2.4989E+08    5.9750E-04



 e l e m e n t   s t r a i n   c a l c u l a t i o n s   f o r   t i m e  s t e p       10   ( at time  6.46223E+00 )

 element  strain       eps-xx      eps-yy      eps-zz      eps-xy      eps-yz      eps-zx                            yield
 num/ipt   state
      45-      1
      1            2.0379E-03  8.6751E-04 -5.4609E-03  6.7425E-04 -4.9943E-04 -1.0446E-03
      47-      1
      1            1.1777E-03  1.6779E-03 -5.4577E-03  8.7937E-04 -9.5847E-04 -6.9289E-04
      53-      1
      1            1.6209E-03  1.2682E-03 -5.4959E-03  9.1642E-04 -7.8052E-04 -8.9748E-04
      61-      1
      1            2.3388E-03  6.3079E-04 -5.4761E-03  2.6076E-04 -1.7284E-04 -1.1454E-03
      67-      1
      1            8.2742E-04  1.9681E-03 -5.3470E-03  6.4092E-04 -1.0672E-03 -4.1666E-04
      79-      1
      1            9.1331E-05  1.0896E-04 -2.1009E-03  1.2424E-05  2.1697E-06 -8.4924E-07
      81-      1
      1            6.4241E-04  2.2258E-03 -5.3234E-03  2.6313E-04 -1.1492E-03 -1.3701E-04



 e l e m e n t   s t r e s s   c a l c u l a t i o n s   f o r   t i m e  s t e p      172   ( at time 9.37702E+00 )

 element  materl
     ipt  stress       sig-xx      sig-yy      sig-zz      sig-xy      sig-yz      sig-zx                       yield
           state                                                                                  effsg      function
      45-      1
       1          -1.6078E+08 -1.9512E+08 -3.3509E+08  1.6019E+07 -1.5306E+07 -1.9615E+07    1.6794E+08    1.2256E-02
      47-      1
       1          -1.0976E+08 -1.0226E+08 -2.9111E+08  3.0542E+07 -2.0752E+07 -2.7891E+07    2.0182E+08    9.5350E-03
      53-      1
       1          -1.4417E+08 -1.4618E+08 -2.9352E+08  2.6139E+07 -1.6968E+07 -1.6853E+07    1.6054E+08    1.1566E-02
      61-      1
       1          -5.8805E+07 -7.7043E+07 -2.2088E+08  1.6508E+07 -3.1772E+06 -2.8110E+07    1.6390E+08    2.7593E-02
      67-      1
       1          -9.7156E+07 -5.2195E+07 -3.0648E+08  2.0176E+07 -4.0544E+07 -2.6140E+07    2.5190E+08    7.5911E-03
      79-      1
       1          -1.4577E+08 -1.5513E+08 -3.0035E+08  2.4577E+07 -1.3629E+07 -2.8135E+06    1.5789E+08    7.1694E-04
      81-      1
       1          -6.0559E+07 -2.6651E+07 -2.1832E+08  3.9861E+06 -3.6968E+07 -2.2896E+06    1.8855E+08    1.6812E-02



 e l e m e n t   s t r a i n   c a l c u l a t i o n s   f o r   t i m e  s t e p      172   ( at time  9.37702E+00 )

 element  strain       eps-xx      eps-yy      eps-zz      eps-xy      eps-yz      eps-zx                            yield
 num/ipt   state
      45-      1
      1            5.7298E-03  2.3265E-03 -1.1357E-02  1.4591E-03 -1.7146E-03 -2.3057E-03
      47-      1
      1            3.9158E-03  4.2649E-03 -1.0585E-02  2.3607E-03 -1.9519E-03 -2.1453E-03
      53-      1
      1            3.8530E-03  3.6798E-03 -1.0313E-02  2.3781E-03 -1.9551E-03 -1.8703E-03
      61-      1
      1            8.4280E-03  4.8453E-03 -1.5050E-02  1.9751E-03  2.8093E-04 -3.8936E-03
      67-      1
      1            3.1012E-03  6.0435E-03 -1.1340E-02  1.4333E-03 -2.8883E-03 -1.7783E-03
      79-      1
      1            5.2699E-04  2.8183E-04 -3.6507E-03  6.8290E-04 -4.0944E-04 -2.2686E-04
      81-      1
      1            4.0777E-03  7.8497E-03 -1.3472E-02  6.8471E-04 -4.8713E-03 -4.5735E-04



 e l e m e n t   s t r e s s   c a l c u l a t i o n s   f o r   t i m e  s t e p      178   ( at time 1.08379E+01 )

 element  materl
     ipt  stress       sig-xx      sig-yy      sig-zz      sig-xy      sig-yz      sig-zx                       yield
           state                                                                                  effsg      function
      45-      1
       1          -9.9873E+07 -1.4343E+08 -3.5537E+08  2.0046E+07 -2.0783E+07 -2.4931E+07    2.4579E+08    1.6121E-02
      47-      1
       1          -9.4434E+07 -7.7502E+07 -3.0219E+08  3.0068E+07 -2.5882E+07 -2.4462E+07    2.3126E+08    1.4300E-02
      53-      1
       1          -1.1491E+08 -1.1036E+08 -3.2625E+08  3.1881E+07 -1.9942E+07 -2.3668E+07    2.2709E+08    1.5791E-02
      61-      1
       1          -6.3294E+07 -1.0866E+08 -2.9431E+08  1.0896E+07 -7.2257E+06 -1.8785E+07    2.1568E+08    3.1347E-02
      67-      1
       1          -7.5211E+07 -3.5251E+07 -3.0307E+08  2.1017E+07 -4.0041E+07 -2.1966E+07    2.6496E+08    1.2118E-02
      79-      1
       1          -1.6397E+08 -1.7533E+08 -3.5951E+08  2.0376E+07 -1.1461E+07 -2.6756E+06    1.9443E+08    1.5064E-03
      81-      1
       1          -3.9134E+07  7.2236E+06 -2.5243E+08  7.0105E+06 -4.6554E+07 -4.9394E+06    2.5348E+08    2.0688E-02



 e l e m e n t   s t r a i n   c a l c u l a t i o n s   f o r   t i m e  s t e p      178   ( at time  1.08379E+01 )

 element  strain       eps-xx      eps-yy      eps-zz      eps-xy      eps-yz      eps-zx                            yield
 num/ipt   state
      45-      1
      1            8.5476E-03  3.9998E-03 -1.5427E-02  1.9270E-03 -2.1572E-03 -2.8886E-03
      47-      1
      1            5.7067E-03  6.6720E-03 -1.4659E-02  3.1265E-03 -2.6870E-03 -2.6858E-03
      53-      1
      1            5.8193E-03  5.8585E-03 -1.4318E-02  3.2071E-03 -2.4070E-03 -2.5110E-03
      61-      1
      1            1.1450E-02  6.0769E-03 -1.9259E-02  2.0108E-03  2.0866E-04 -4.8938E-03
      67-      1
      1            4.8627E-03  8.6820E-03 -1.5553E-02  1.9724E-03 -3.8605E-03 -2.2345E-03
      79-      1
      1            9.8415E-04  6.3822E-04 -4.9264E-03  7.0312E-04 -3.9340E-04 -2.5552E-04
      81-      1
      1            5.5337E-03  1.0497E-02 -1.7487E-02  8.9302E-04 -5.9917E-03 -6.1403E-04



 e l e m e n t   s t r e s s   c a l c u l a t i o n s   f o r   t i m e  s t e p      186   ( at time 1.31532E+01 )

 element  materl
     ipt  stress       sig-xx      sig-yy      sig-zz      sig-xy      sig-yz      sig-zx                       yield
           state                                                                                  effsg      function
      45-      1
       1          -1.0646E+08 -1.3474E+08 -3.5894E+08  1.7533E+07 -1.8835E+07 -2.2164E+07    2.4671E+08    2.3741E-02
      47-      1
       1          -6.0317E+07 -4.7391E+07 -2.9025E+08  2.9693E+07 -2.4561E+07 -2.1308E+07    2.4864E+08    2.1027E-02
      53-      1
       1          -9.3729E+07 -8.9996E+07 -3.1317E+08  2.9858E+07 -1.8934E+07 -2.0751E+07    2.3244E+08    2.3212E-02
      61-      1
       1          -5.9493E+07 -9.3720E+07 -2.9486E+08  2.8559E+06 -6.0963E+06 -1.3440E+07    2.2179E+08    3.9653E-02
      67-      1
       1          -5.3432E+07 -1.5990E+07 -2.9607E+08  1.7865E+07 -3.7376E+07 -1.9719E+07    2.7509E+08    1.9010E-02
      79-      1
       1          -1.9765E+08 -2.0298E+08 -4.2061E+08  1.7615E+07 -1.1558E+07 -5.0260E+06    2.2352E+08    4.4938E-03
      81-      1
       1          -3.0138E+06  3.7232E+07 -2.3632E+08  6.0679E+06 -4.5621E+07 -4.7141E+06    2.6807E+08    2.8840E-02



 e l e m e n t   s t r a i n   c a l c u l a t i o n s   f o r   t i m e  s t e p      186   ( at time  1.31532E+01 )

 element  strain       eps-xx      eps-yy      eps-zz      eps-xy      eps-yz      eps-zx                            yield
 num/ipt   state
      45-      1
      1            1.2192E-02  6.7534E-03 -2.1862E-02  2.5629E-03 -2.7480E-03 -3.6605E-03
      47-      1
      1            8.5904E-03  9.9088E-03 -2.0443E-02  4.2143E-03 -3.3028E-03 -3.2500E-03
      53-      1
      1            8.8130E-03  8.9258E-03 -2.0144E-02  4.3503E-03 -2.8418E-03 -3.1135E-03
      61-      1
      1            1.6490E-02  9.0293E-03 -2.6885E-02  1.7017E-03  4.4617E-04 -6.3589E-03
      67-      1
      1            7.5604E-03  1.2692E-02 -2.2065E-02  2.5826E-03 -5.1561E-03 -2.8949E-03
      79-      1
      1            2.2223E-03  1.9011E-03 -8.0113E-03  9.6606E-04 -5.9578E-04 -4.1828E-04
      81-      1
      1            8.5295E-03  1.5074E-02 -2.4714E-02  1.1551E-03 -7.8824E-03 -8.0529E-04



 e l e m e n t   s t r e s s   c a l c u l a t i o n s   f o r   t i m e  s t e p      194   ( at time 1.54685E+01 )

 element  materl
     ipt  stress       sig-xx      sig-yy      sig-zz      sig-xy      sig-yz      sig-zx                       yield
           state                                                                                  effsg      function
      45-      1
       1          -1.0441E+08 -1.3394E+08 -3.7915E+08  1.5416E+07 -1.6473E+07 -2.3629E+07    2.6729E+08    2.9765E-02
      47-      1
       1          -5.8307E+07 -4.1476E+07 -3.0296E+08  2.7798E+07 -2.3996E+07 -2.0858E+07    2.6383E+08    2.6841E-02
      53-      1
       1          -9.0535E+07 -8.4362E+07 -3.3567E+08  2.9274E+07 -1.8811E+07 -2.0905E+07    2.5805E+08    2.8896E-02
      61-      1
       1          -5.0406E+07 -8.9895E+07 -3.0117E+08 -6.4410E+04 -4.2378E+06 -2.0976E+07    2.3646E+08    4.6544E-02
      67-      1
       1          -5.4974E+07 -1.8740E+07 -3.0511E+08  1.6561E+07 -3.5667E+07 -1.8981E+07    2.8047E+08    2.4987E-02
      79-      1
       1          -2.2485E+08 -2.2942E+08 -4.6545E+08  1.4268E+07 -1.0374E+07 -5.9314E+06    2.4052E+08    7.4849E-03
      81-      1
       1          -2.0392E+06  3.6455E+07 -2.4804E+08  5.1038E+06 -4.6414E+07 -4.0992E+06    2.7939E+08    3.5566E-02



 e l e m e n t   s t r a i n   c a l c u l a t i o n s   f o r   t i m e  s t e p      194   ( at time  1.54685E+01 )

 element  strain       eps-xx      eps-yy      eps-zz      eps-xy      eps-yz      eps-zx                            yield
 num/ipt   state
      45-      1
      1            1.5498E-02  9.0671E-03 -2.7587E-02  2.9931E-03 -3.0924E-03 -4.3873E-03
      47-      1
      1            1.0964E-02  1.2846E-02 -2.5796E-02  5.0374E-03 -3.9255E-03 -3.8212E-03
      53-      1
      1            1.1304E-02  1.1611E-02 -2.5405E-02  5.2049E-03 -3.2697E-03 -3.6926E-03
      61-      1
      1            2.1084E-02  1.1467E-02 -3.3804E-02  1.4413E-03  6.2720E-04 -8.0008E-03
      67-      1
      1            9.8321E-03  1.6061E-02 -2.7794E-02  3.0903E-03 -6.2103E-03 -3.4509E-03
      79-      1
      1            3.5258E-03  3.1328E-03 -1.1017E-02  1.1434E-03 -7.2986E-04 -5.5258E-04
      81-      1
      1            1.0974E-02  1.8825E-02 -3.0994E-02  1.3234E-03 -9.4366E-03 -9.2151E-04



 e l e m e n t   s t r e s s   c a l c u l a t i o n s   f o r   t i m e  s t e p      202   ( at time 1.77838E+01 )

 element  materl
     ipt  stress       sig-xx      sig-yy      sig-zz      sig-xy      sig-yz      sig-zx                       yield
           state                                                                                  effsg      function
      45-      1
       1          -1.0549E+08 -1.2928E+08 -3.9236E+08  1.2736E+07 -1.4508E+07 -2.3381E+07    2.8070E+08    3.6025E-02
      47-      1
       1          -4.7506E+07 -3.1566E+07 -3.0870E+08  2.3652E+07 -2.2616E+07 -1.8446E+07    2.7726E+08    3.2875E-02
      53-      1
       1          -8.2869E+07 -7.7693E+07 -3.4856E+08  2.5100E+07 -1.7064E+07 -1.9850E+07    2.7558E+08    3.4910E-02
      61-      1
       1          -6.0776E+07 -9.7984E+07 -3.2661E+08 -3.7574E+06 -3.4210E+06 -2.6746E+07    2.5374E+08    5.2505E-02
      67-      1
       1          -4.9752E+07 -1.9263E+07 -3.0952E+08  1.4744E+07 -3.3082E+07 -1.7414E+07    2.8492E+08    3.1240E-02
      79-      1
       1          -2.5371E+08 -2.5118E+08 -5.0803E+08  1.0346E+07 -8.8005E+06 -7.0858E+06    2.5697E+08    1.1145E-02
      81-      1
       1           2.1409E+06  3.7790E+07 -2.5693E+08  4.7173E+06 -4.5466E+07 -3.8300E+06    2.8972E+08    4.2188E-02



 e l e m e n t   s t r a i n   c a l c u l a t i o n s   f o r   t i m e  s t e p      202   ( at time  1.77838E+01 )

 element  strain       eps-xx      eps-yy      eps-zz      eps-xy      eps-yz      eps-zx                            yield
 num/ipt   state
      45-      1
      1            1.8854E-02  1.1731E-02 -3.3678E-02  3.3415E-03 -3.4346E-03 -5.0876E-03
      47-      1
      1            1.3645E-02  1.5987E-02 -3.1573E-02  5.7124E-03 -4.5155E-03 -4.3047E-03
      53-      1
      1            1.4133E-02  1.4550E-02 -3.1191E-02  5.9060E-03 -3.6548E-03 -4.2512E-03
      61-      1
      1            2.5066E-02  1.3909E-02 -4.0508E-02  1.1371E-03  6.6688E-04 -9.1218E-03
      67-      1
      1            1.2399E-02  1.9500E-02 -3.3824E-02  3.5461E-03 -7.1799E-03 -3.9546E-03
      79-      1
      1            5.0996E-03  4.8816E-03 -1.4789E-02  1.2807E-03 -8.5582E-04 -7.2207E-04
      81-      1
      1            1.3558E-02  2.2573E-02 -3.7373E-02  1.4775E-03 -1.0862E-02 -1.0264E-03



 e l e m e n t   s t r e s s   c a l c u l a t i o n s   f o r   t i m e  s t e p      211   ( at time 2.00991E+01 )

 element  materl
     ipt  stress       sig-xx      sig-yy      sig-zz      sig-xy      sig-yz      sig-zx                       yield
           state                                                                                  effsg      function
      45-      1
       1          -1.0373E+08 -1.2760E+08 -4.0069E+08  1.1899E+07 -1.2180E+07 -2.4966E+07    2.9052E+08    4.2717E-02
      47-      1
       1          -4.4677E+07 -2.8826E+07 -3.1670E+08  2.2675E+07 -2.1520E+07 -1.7744E+07    2.8711E+08    3.9165E-02
      53-      1
       1          -8.2416E+07 -7.5962E+07 -3.6093E+08  2.3822E+07 -1.5955E+07 -2.0872E+07    2.8842E+08    4.1220E-02
      61-      1
       1          -5.7351E+07 -9.3312E+07 -3.2891E+08 -4.9567E+06 -2.4197E+06 -3.0571E+07    2.6109E+08    5.9021E-02
      67-      1
       1          -5.2413E+07 -2.2402E+07 -3.1796E+08  1.4598E+07 -3.0783E+07 -1.5102E+07    2.8905E+08    3.7727E-02
      79-      1
       1          -2.7884E+08 -2.7553E+08 -5.4284E+08  8.0424E+06 -8.2819E+06 -7.6408E+06    2.6675E+08    1.5129E-02
      81-      1
       1           3.0232E+06  3.7924E+07 -2.6473E+08  4.4643E+06 -4.1968E+07 -2.7125E+06    2.9601E+08    4.9082E-02



 e l e m e n t   s t r a i n   c a l c u l a t i o n s   f o r   t i m e  s t e p      211   ( at time  2.00991E+01 )

 element  strain       eps-xx      eps-yy      eps-zz      eps-xy      eps-yz      eps-zx                            yield
 num/ipt   state
      45-      1
      1            2.2541E-02  1.4572E-02 -4.0262E-02  3.7293E-03 -3.7267E-03 -5.9007E-03
      47-      1
      1            1.6443E-02  1.9285E-02 -3.7707E-02  6.4360E-03 -5.1105E-03 -4.8099E-03
      53-      1
      1            1.7090E-02  1.7731E-02 -3.7406E-02  6.6534E-03 -4.0715E-03 -4.8931E-03
      61-      1
      1            2.9430E-02  1.6676E-02 -4.7715E-02  8.4971E-04  7.2158E-04 -1.0328E-02
      67-      1
      1            1.5012E-02  2.3101E-02 -4.0135E-02  4.0424E-03 -8.0802E-03 -4.3714E-03
      79-      1
      1            6.8866E-03  6.7459E-03 -1.8849E-02  1.4149E-03 -1.0057E-03 -8.9811E-04
      81-      1
      1            1.6274E-02  2.6516E-02 -4.4098E-02  1.6294E-03 -1.2131E-02 -1.0732E-03



 e l e m e n t   s t r e s s   c a l c u l a t i o n s   f o r   t i m e  s t e p      219   ( at time 2.24144E+01 )

 element  materl
     ipt  stress       sig-xx      sig-yy      sig-zz      sig-xy      sig-yz      sig-zx                       yield
           state                                                                                  effsg      function
      45-      1
       1          -8.2163E+07 -1.1071E+08 -3.8590E+08  9.0156E+06 -1.2434E+07 -2.2246E+07    2.9427E+08    4.9620E-02
      47-      1
       1          -3.6398E+07 -2.0684E+07 -3.1329E+08  2.0980E+07 -2.1408E+07 -1.6552E+07    2.9118E+08    4.5861E-02
      53-      1
       1          -7.7550E+07 -7.0793E+07 -3.6118E+08  2.0659E+07 -1.5626E+07 -2.1525E+07    2.9293E+08    4.8041E-02
      61-      1
       1          -5.3245E+07 -8.8320E+07 -3.2776E+08 -1.4570E+05 -3.6961E+06 -3.0491E+07    2.6417E+08    6.5543E-02
      67-      1
       1          -4.6671E+07 -1.9217E+07 -3.1708E+08  1.4285E+07 -2.9187E+07 -1.4259E+07    2.9168E+08    4.4352E-02
      79-      1
       1          -2.9364E+08 -2.8684E+08 -5.6433E+08  5.9824E+06 -7.5053E+06 -7.7035E+06    2.7498E+08    1.9175E-02
      81-      1
       1           5.1421E+06  3.9922E+07 -2.6744E+08  4.7920E+06 -3.9364E+07 -2.5386E+06    2.9955E+08    5.5690E-02



 e l e m e n t   s t r a i n   c a l c u l a t i o n s   f o r   t i m e  s t e p      219   ( at time  2.24144E+01 )

 element  strain       eps-xx      eps-yy      eps-zz      eps-xy      eps-yz      eps-zx                            yield
 num/ipt   state
      45-      1
      1            2.6543E-02  1.7432E-02 -4.6903E-02  3.9792E-03 -4.0791E-03 -6.5795E-03
      47-      1
      1            1.9434E-02  2.2795E-02 -4.4147E-02  7.1250E-03 -5.7650E-03 -5.3102E-03
      53-      1
      1            2.0289E-02  2.1149E-02 -4.4009E-02  7.3042E-03 -4.5385E-03 -5.6154E-03
      61-      1
      1            3.3760E-02  1.9450E-02 -5.4929E-02  8.9582E-04  6.2035E-04 -1.1361E-02
      67-      1
      1            1.7772E-02  2.6736E-02 -4.6513E-02  4.5245E-03 -8.9577E-03 -4.8071E-03
      79-      1
      1            8.7242E-03  8.7901E-03 -2.2968E-02  1.5100E-03 -1.1364E-03 -1.0616E-03
      81-      1
      1            1.8891E-02  3.0298E-02 -5.0522E-02  1.7919E-03 -1.3281E-02 -1.1347E-03



 e l e m e n t   s t r e s s   c a l c u l a t i o n s   f o r   t i m e  s t e p      228   ( at time 2.47297E+01 )

 element  materl
     ipt  stress       sig-xx      sig-yy      sig-zz      sig-xy      sig-yz      sig-zx                       yield
           state                                                                                  effsg      function
      45-      1
       1          -7.6060E+07 -1.0576E+08 -3.8506E+08  9.1024E+06 -1.0638E+07 -2.2075E+07    2.9873E+08    5.6717E-02
      47-      1
       1          -3.5763E+07 -2.0297E+07 -3.1842E+08  2.0886E+07 -2.0427E+07 -1.6108E+07    2.9639E+08    5.2677E-02
      53-      1
       1          -8.0979E+07 -7.3746E+07 -3.6972E+08  1.9758E+07 -1.4884E+07 -2.2750E+07    2.9816E+08    5.5134E-02
      61-      1
       1          -3.4592E+07 -6.8268E+07 -3.1081E+08  1.2479E+06 -1.1280E+06 -2.7608E+07    2.6537E+08    7.2030E-02
      67-      1
       1          -5.0237E+07 -2.2544E+07 -3.2418E+08  1.4033E+07 -2.6753E+07 -1.2002E+07    2.9422E+08    5.1208E-02
      79-      1
       1          -3.0791E+08 -3.0505E+08 -5.8677E+08  4.3326E+06 -7.0150E+06 -7.7967E+06    2.8099E+08    2.3502E-02
      81-      1
       1           3.5786E+06  3.9130E+07 -2.7214E+08  4.7710E+06 -3.5678E+07 -1.9478E+06    3.0163E+08    6.2806E-02



 e l e m e n t   s t r a i n   c a l c u l a t i o n s   f o r   t i m e  s t e p      228   ( at time  2.47297E+01 )

 element  strain       eps-xx      eps-yy      eps-zz      eps-xy      eps-yz      eps-zx                            yield
 num/ipt   state
      45-      1
      1            3.0584E-02  2.0345E-02 -5.3835E-02  4.2954E-03 -4.3898E-03 -7.3025E-03
      47-      1
      1            2.2476E-02  2.6365E-02 -5.0810E-02  7.8446E-03 -6.3632E-03 -5.8060E-03
      53-      1
      1            2.3590E-02  2.4707E-02 -5.0975E-02  7.9910E-03 -4.9737E-03 -6.3836E-03
      61-      1
      1            3.8088E-02  2.2340E-02 -6.2012E-02  9.4907E-04  6.6118E-04 -1.2110E-02
      67-      1
      1            2.0569E-02  3.0493E-02 -5.3166E-02  5.0143E-03 -9.7357E-03 -5.1401E-03
      79-      1
      1            1.0806E-02  1.0857E-02 -2.7389E-02  1.5827E-03 -1.2709E-03 -1.2349E-03
      81-      1
      1            2.1675E-02  3.4373E-02 -5.7448E-02  1.9588E-03 -1.4341E-02 -1.1669E-03



 e l e m e n t   s t r e s s   c a l c u l a t i o n s   f o r   t i m e  s t e p      236   ( at time 2.70450E+01 )

 element  materl
     ipt  stress       sig-xx      sig-yy      sig-zz      sig-xy      sig-yz      sig-zx                       yield
           state                                                                                  effsg      function
      45-      1
       1          -1.0883E+07 -4.9626E+07 -3.2487E+08  1.4355E+07 -1.3706E+07 -2.9086E+07    3.0273E+08    6.4599E-02
      47-      1
       1          -3.0045E+07 -1.5830E+07 -3.1649E+08  2.6149E+07 -2.1765E+07 -1.6214E+07    3.0098E+08    5.8911E-02
      53-      1
       1          -7.6991E+07 -7.4785E+07 -3.7030E+08  2.4612E+07 -1.6564E+07 -2.4612E+07    3.0189E+08    6.1992E-02
      61-      1
       1          -2.8374E+07 -6.8416E+07 -3.1074E+08  2.0308E+06 -5.2930E+05 -3.0431E+07    2.6985E+08    7.8998E-02
      67-      1
       1          -4.7552E+07 -1.6056E+07 -3.2475E+08  1.7439E+07 -2.8472E+07 -1.1277E+07    3.0047E+08    5.7646E-02
      79-      1
       1          -3.1390E+08 -3.0690E+08 -5.9396E+08  3.7742E+06 -6.6972E+06 -7.1574E+06    2.8421E+08    2.7214E-02
      81-      1
       1           6.9104E+06  4.7551E+07 -2.6993E+08  5.6049E+06 -3.6862E+07 -1.3473E+06    3.0614E+08    6.9698E-02



 e l e m e n t   s t r a i n   c a l c u l a t i o n s   f o r   t i m e  s t e p      236   ( at time  2.70450E+01 )

 element  strain       eps-xx      eps-yy      eps-zz      eps-xy      eps-yz      eps-zx                            yield
 num/ipt   state
      45-      1
      1            3.5474E-02  2.3585E-02 -6.1148E-02  4.9537E-03 -4.9345E-03 -8.5061E-03
      47-      1
      1            2.5311E-02  2.9607E-02 -5.6857E-02  8.7581E-03 -7.0187E-03 -6.2778E-03
      53-      1
      1            2.6908E-02  2.8015E-02 -5.7622E-02  8.9228E-03 -5.4675E-03 -7.2258E-03
      61-      1
      1            4.2845E-02  2.5171E-02 -6.9673E-02  1.0215E-03  6.0888E-04 -1.3276E-02
      67-      1
      1            2.3184E-02  3.4166E-02 -5.9443E-02  5.6480E-03 -1.0633E-02 -5.4591E-03
      79-      1
      1            1.2522E-02  1.2785E-02 -3.1114E-02  1.6489E-03 -1.3840E-03 -1.3572E-03
      81-      1
      1            2.4299E-02  3.8475E-02 -6.4142E-02  2.1659E-03 -1.5512E-02 -1.1790E-03



 e l e m e n t   s t r e s s   c a l c u l a t i o n s   f o r   t i m e  s t e p      245   ( at time 2.93602E+01 )

 element  materl
     ipt  stress       sig-xx      sig-yy      sig-zz      sig-xy      sig-yz      sig-zx                       yield
           state                                                                                  effsg      function
      45-      1
       1          -5.8253E+07 -8.3587E+07 -3.3112E+08  1.0668E+07 -1.2634E+07 -2.6701E+07    2.6673E+08    7.1541E-02
      47-      1
       1          -5.6981E+07 -4.8197E+07 -3.1158E+08  2.1424E+07 -2.4031E+07 -1.4553E+07    2.6624E+08    6.4865E-02
      53-      1
       1          -6.7539E+07 -6.2299E+07 -3.6224E+08  2.3791E+07 -1.6006E+07 -2.7777E+07    3.0529E+08    6.9079E-02
      61-      1
       1          -3.3233E+07 -6.4342E+07 -3.1491E+08  1.6065E+06  7.5416E+05 -2.5499E+07    2.7112E+08    8.6056E-02
      67-      1
       1          -8.3259E+07 -6.3861E+07 -3.3199E+08  1.6515E+07 -2.6542E+07 -9.0802E+06    2.6504E+08    6.3820E-02
      79-      1
       1          -3.2344E+08 -3.1847E+08 -6.0776E+08  3.4575E+06 -7.0452E+06 -7.3054E+06    2.8744E+08    3.1846E-02
      81-      1
       1           7.8471E+06  4.1788E+07 -2.7637E+08  5.2451E+06 -3.4668E+07 -2.8069E+05    3.0865E+08    7.6992E-02



 e l e m e n t   s t r a i n   c a l c u l a t i o n s   f o r   t i m e  s t e p      245   ( at time  2.93602E+01 )

 element  strain       eps-xx      eps-yy      eps-zz      eps-xy      eps-yz      eps-zx                            yield
 num/ipt   state
      45-      1
      1            3.9948E-02  2.7045E-02 -6.8654E-02  5.4835E-03 -5.3906E-03 -9.6717E-03
      47-      1
      1            2.8301E-02  3.3454E-02 -6.3382E-02  9.4494E-03 -7.7828E-03 -6.7846E-03
      53-      1
      1            3.0274E-02  3.1599E-02 -6.4465E-02  9.7315E-03 -5.9406E-03 -8.1845E-03
      61-      1
      1            4.7448E-02  2.8403E-02 -7.7465E-02  1.0381E-03  6.4777E-04 -1.4189E-02
      67-      1
      1            2.6180E-02  3.8089E-02 -6.6262E-02  6.1554E-03 -1.1471E-02 -5.7836E-03
      79-      1
      1            1.4729E-02  1.5068E-02 -3.5784E-02  1.7303E-03 -1.5440E-03 -1.5282E-03
      81-      1
      1            2.7285E-02  4.2576E-02 -7.1321E-02  2.3509E-03 -1.6524E-02 -1.1375E-03



 e l e m e n t   s t r e s s   c a l c u l a t i o n s   f o r   t i m e  s t e p      254   ( at time 3.16755E+01 )

 element  materl
     ipt  stress       sig-xx      sig-yy      sig-zz      sig-xy      sig-yz      sig-zx                       yield
           state                                                                                  effsg      function
      45-      1
       1          -1.0318E+08 -1.2790E+08 -3.3723E+08  7.4110E+06 -1.0850E+07 -2.9203E+07    2.2953E+08    7.7164E-02
      47-      1
       1          -1.1402E+07 -6.0118E+06 -2.6232E+08  2.5927E+07 -3.3372E+07 -2.1867E+07    2.6671E+08    7.1697E-02
      53-      1
       1          -5.1504E+07 -4.6551E+07 -3.3999E+08  3.1842E+07 -2.0583E+07 -3.0623E+07    3.0299E+08    7.6238E-02
      61-      1
       1          -3.3185E+07 -6.2647E+07 -3.1666E+08  1.5430E+06  4.2543E+06 -2.7892E+07    2.7435E+08    9.2994E-02
      67-      1
       1          -9.5548E+07 -7.1192E+07 -3.4499E+08  1.6254E+07 -2.9253E+07 -9.8395E+06    2.6933E+08    6.9920E-02
      79-      1
       1          -3.2093E+08 -3.2576E+08 -6.1222E+08  3.4878E+06 -6.7230E+06 -6.7997E+06    2.8944E+08    3.5958E-02
      81-      1
       1           7.3269E+06  4.5078E+07 -2.7870E+08  6.1688E+06 -3.4923E+07  4.8813E+05    3.1274E+08    8.4253E-02



 e l e m e n t   s t r a i n   c a l c u l a t i o n s   f o r   t i m e  s t e p      254   ( at time  3.16755E+01 )

 element  strain       eps-xx      eps-yy      eps-zz      eps-xy      eps-yz      eps-zx                            yield
 num/ipt   state
      45-      1
      1            4.4416E-02  3.0456E-02 -7.5705E-02  6.2816E-03 -5.7785E-03 -1.0950E-02
      47-      1
      1            3.1858E-02  3.7942E-02 -7.0307E-02  1.0747E-02 -9.0712E-03 -7.7127E-03
      53-      1
      1            3.3594E-02  3.5055E-02 -7.1019E-02  1.0993E-02 -6.6684E-03 -9.1814E-03
      61-      1
      1            5.1939E-02  3.1590E-02 -8.5095E-02  1.1124E-03  7.8592E-04 -1.5316E-02
      67-      1
      1            2.8971E-02  4.2070E-02 -7.3108E-02  6.7517E-03 -1.2393E-02 -6.1970E-03
      79-      1
      1            1.6895E-02  1.6942E-02 -3.9879E-02  1.8075E-03 -1.6687E-03 -1.6554E-03
      81-      1
      1            3.0127E-02  4.6845E-02 -7.8467E-02  2.5920E-03 -1.7587E-02 -1.0678E-03



 e l e m e n t   s t r e s s   c a l c u l a t i o n s   f o r   t i m e  s t e p      262   ( at time 3.39908E+01 )

 element  materl
     ipt  stress       sig-xx      sig-yy      sig-zz      sig-xy      sig-yz      sig-zx                       yield
           state                                                                                  effsg      function
      45-      1
       1          -1.0799E+08 -1.3016E+08 -3.4166E+08  6.8600E+06 -1.4775E+07 -3.0941E+07    2.3148E+08    8.2615E-02
      47-      1
       1          -4.5638E+06 -2.0273E+06 -2.6261E+08  2.4870E+07 -2.9435E+07 -1.9761E+07    2.6995E+08    7.7794E-02
      53-      1
       1          -9.2066E+07 -9.0734E+07 -3.4792E+08  2.2020E+07 -2.4088E+07 -3.0673E+07    2.6799E+08    8.2775E-02
      61-      1
       1          -3.3761E+07 -6.5584E+07 -3.1981E+08  1.3046E+06  4.2537E+06 -2.9601E+07    2.7644E+08    9.9586E-02
      67-      1
       1          -1.0069E+08 -7.7670E+07 -3.5341E+08  1.7101E+07 -2.6887E+07 -8.5196E+06    2.7107E+08    7.5705E-02
      79-      1
       1          -3.1926E+08 -3.2582E+08 -6.1441E+08  3.4751E+06 -6.6353E+06 -6.6047E+06    2.9244E+08    3.9883E-02
      81-      1
       1           5.0922E+06  4.5595E+07 -2.8274E+08  6.3528E+06 -3.2260E+07  9.4297E+05    3.1526E+08    9.1185E-02



 e l e m e n t   s t r a i n   c a l c u l a t i o n s   f o r   t i m e  s t e p      262   ( at time  3.39908E+01 )

 element  strain       eps-xx      eps-yy      eps-zz      eps-xy      eps-yz      eps-zx                            yield
 num/ipt   state
      45-      1
      1            4.8456E-02  3.3795E-02 -8.2790E-02  7.0720E-03 -6.3374E-03 -1.2063E-02
      47-      1
      1            3.5020E-02  4.1589E-02 -7.6959E-02  1.1651E-02 -9.9065E-03 -8.3951E-03
      53-      1
      1            3.7151E-02  3.8791E-02 -7.8064E-02  1.1959E-02 -7.3122E-03 -1.0226E-02
      61-      1
      1            5.6264E-02  3.4512E-02 -9.2370E-02  1.1950E-03  8.4119E-04 -1.6330E-02
      67-      1
      1            3.1677E-02  4.5726E-02 -7.9534E-02  7.3097E-03 -1.3178E-02 -6.4942E-03
      79-      1
      1            1.8932E-02  1.8812E-02 -4.3800E-02  1.8795E-03 -1.7895E-03 -1.7769E-03
      81-      1
      1            3.2807E-02  5.0922E-02 -8.5287E-02  2.8094E-03 -1.8536E-02 -1.0098E-03



 e l e m e n t   s t r e s s   c a l c u l a t i o n s   f o r   t i m e  s t e p      271   ( at time 3.63061E+01 )

 element  materl
     ipt  stress       sig-xx      sig-yy      sig-zz      sig-xy      sig-yz      sig-zx                       yield
           state                                                                                  effsg      function
      45-      1
       1          -1.1707E+08 -1.3673E+08 -3.4997E+08  5.0971E+06 -1.7072E+07 -3.0480E+07    2.3192E+08    8.8596E-02
      47-      1
       1          -6.0179E+07 -5.2518E+07 -2.7705E+08  2.0733E+07 -3.2935E+07 -1.8977E+07    2.3319E+08    8.4125E-02
      53-      1
       1          -5.8226E+07 -5.3135E+07 -3.1055E+08  2.3046E+07 -2.6706E+07 -3.6280E+07    2.6956E+08    9.0712E-02
      61-      1
       1          -3.3710E+07 -6.1565E+07 -3.1778E+08 -2.3004E+05  7.1968E+06 -3.0299E+07    2.7653E+08    1.0677E-01
      67-      1
       1          -6.3115E+07 -4.1812E+07 -3.1310E+08  2.0756E+07 -3.4947E+07 -1.4103E+07    2.7170E+08    8.3222E-02
      79-      1
       1          -3.1360E+08 -3.4017E+08 -6.2177E+08  2.6256E+06 -5.6188E+06 -5.4824E+06    2.9613E+08    4.5086E-02
      81-      1
       1          -4.0419E+07 -1.8332E+06 -2.9257E+08  3.4062E+06 -2.9720E+07 -1.4170E+06    2.7837E+08    9.8051E-02



 e l e m e n t   s t r a i n   c a l c u l a t i o n s   f o r   t i m e  s t e p      271   ( at time  3.63061E+01 )

 element  strain       eps-xx      eps-yy      eps-zz      eps-xy      eps-yz      eps-zx                            yield
 num/ipt   state
      45-      1
      1            5.2731E-02  3.7581E-02 -9.0634E-02  7.9477E-03 -6.9872E-03 -1.3233E-02
      47-      1
      1            3.8630E-02  4.6376E-02 -8.4848E-02  1.2803E-02 -1.1002E-02 -9.2543E-03
      53-      1
      1            4.1478E-02  4.3596E-02 -8.6250E-02  1.3438E-02 -8.1350E-03 -1.1699E-02
      61-      1
      1            6.0807E-02  3.7871E-02 -1.0027E-01  1.2322E-03  1.0081E-03 -1.7290E-02
      67-      1
      1            3.5367E-02  5.0900E-02 -8.7414E-02  8.4427E-03 -1.4551E-02 -7.2041E-03
      79-      1
      1            2.2035E-02  2.0834E-02 -4.9020E-02  1.9354E-03 -1.9002E-03 -1.8760E-03
      81-      1
      1            3.5724E-02  5.5738E-02 -9.3021E-02  2.9638E-03 -1.9538E-02 -1.0162E-03



 e l e m e n t   s t r e s s   c a l c u l a t i o n s   f o r   t i m e  s t e p      280   ( at time 3.86214E+01 )

 element  materl
     ipt  stress       sig-xx      sig-yy      sig-zz      sig-xy      sig-yz      sig-zx                       yield
           state                                                                                  effsg      function
      45-      1
       1          -1.2215E+08 -1.4107E+08 -3.5812E+08  7.3571E+06 -1.6696E+07 -2.9348E+07    2.3486E+08    9.4479E-02
      47-      1
       1          -6.8884E+07 -6.4584E+07 -2.9230E+08  2.1141E+07 -2.9370E+07 -1.5791E+07    2.3573E+08    8.9989E-02
      53-      1
       1          -6.0260E+07 -5.4715E+07 -3.1931E+08  2.2877E+07 -2.4720E+07 -3.0516E+07    2.7345E+08    9.7728E-02
      61-      1
       1          -2.9862E+07 -6.0528E+07 -3.1769E+08 -8.1761E+05  5.0062E+06 -3.1107E+07    2.7917E+08    1.1407E-01
      67-      1
       1          -6.4711E+07 -4.4007E+07 -3.1989E+08  2.0269E+07 -2.9276E+07 -1.2329E+07    2.7402E+08    8.9741E-02
      79-      1
       1          -3.0083E+08 -3.2654E+08 -6.1160E+08  2.7089E+06 -4.5675E+06 -1.7842E+06    2.9890E+08    4.9484E-02
      81-      1
       1          -4.6058E+07 -7.9303E+06 -2.9920E+08  3.8696E+06 -2.8595E+07 -1.4396E+06    2.7873E+08    1.0456E-01



 e l e m e n t   s t r a i n   c a l c u l a t i o n s   f o r   t i m e  s t e p      280   ( at time  3.86214E+01 )

 element  strain       eps-xx      eps-yy      eps-zz      eps-xy      eps-yz      eps-zx                            yield
 num/ipt   state
      45-      1
      1            5.6790E-02  4.1232E-02 -9.8315E-02  8.7669E-03 -7.5022E-03 -1.4294E-02
      47-      1
      1            4.2100E-02  5.0584E-02 -9.2334E-02  1.3819E-02 -1.1837E-02 -9.8334E-03
      53-      1
      1            4.5125E-02  4.7694E-02 -9.3918E-02  1.4571E-02 -8.7673E-03 -1.2659E-02
      61-      1
      1            6.5534E-02  4.1163E-02 -1.0828E-01  1.2606E-03  9.5779E-04 -1.8321E-02
      67-      1
      1            3.8466E-02  5.5059E-02 -9.4622E-02  9.2301E-03 -1.5406E-02 -7.6622E-03
      79-      1
      1            2.4564E-02  2.2814E-02 -5.3370E-02  1.9976E-03 -1.9684E-03 -1.8287E-03
      81-      1
      1            3.8516E-02  6.0154E-02 -1.0031E-01  3.1487E-03 -2.0375E-02 -9.6917E-04



 e l e m e n t   s t r e s s   c a l c u l a t i o n s   f o r   t i m e  s t e p      289   ( at time 4.09367E+01 )

 element  materl
     ipt  stress       sig-xx      sig-yy      sig-zz      sig-xy      sig-yz      sig-zx                       yield
           state                                                                                  effsg      function
      45-      1
       1          -1.2579E+08 -1.4037E+08 -3.6250E+08  9.5017E+06 -1.5859E+07 -2.8887E+07    2.3732E+08    1.0023E-01
      47-      1
       1          -7.0746E+07 -6.7879E+07 -2.9714E+08  2.1333E+07 -2.6996E+07 -1.5638E+07    2.3706E+08    9.5624E-02
      53-      1
       1          -6.3224E+07 -5.4802E+07 -3.2411E+08  2.4395E+07 -2.4441E+07 -2.6408E+07    2.7568E+08    1.0445E-01
      61-      1
       1          -2.3452E+07 -5.1967E+07 -3.1365E+08 -3.1131E+06  4.2023E+06 -3.2918E+07    2.8299E+08    1.2148E-01
      67-      1
       1          -6.4511E+07 -4.3790E+07 -3.2247E+08  1.9032E+07 -2.8189E+07 -1.3653E+07    2.7631E+08    9.6148E-02
      79-      1
       1          -2.7313E+08 -3.0508E+08 -5.8810E+08  1.4301E+06 -9.9156E+05 -7.4597E+05    3.0028E+08    5.3854E-02
      81-      1
       1          -4.7887E+07 -1.3194E+07 -3.0623E+08  3.2209E+06 -2.8203E+07 -2.3409E+06    2.8168E+08    1.1107E-01



 e l e m e n t   s t r a i n   c a l c u l a t i o n s   f o r   t i m e  s t e p      289   ( at time  4.09367E+01 )

 element  strain       eps-xx      eps-yy      eps-zz      eps-xy      eps-yz      eps-zx                            yield
 num/ipt   state
      45-      1
      1            6.0544E-02  4.5046E-02 -1.0575E-01  9.6882E-03 -8.0162E-03 -1.5414E-02
      47-      1
      1            4.5386E-02  5.4696E-02 -9.9411E-02  1.4769E-02 -1.2594E-02 -1.0465E-02
      53-      1
      1            4.8487E-02  5.1744E-02 -1.0119E-01  1.5757E-02 -9.4422E-03 -1.3515E-02
      61-      1
      1            7.0296E-02  4.4649E-02 -1.1642E-01  1.2070E-03  9.1641E-04 -1.9590E-02
      67-      1
      1            4.1522E-02  5.9175E-02 -1.0166E-01  9.9135E-03 -1.6286E-02 -8.1732E-03
      79-      1
      1            2.7247E-02  2.4685E-02 -5.7595E-02  2.0040E-03 -1.9266E-03 -1.8298E-03
      81-      1
      1            4.1445E-02  6.4506E-02 -1.0766E-01  3.2900E-03 -2.1247E-02 -9.4996E-04



 e l e m e n t   s t r e s s   c a l c u l a t i o n s   f o r   t i m e  s t e p      298   ( at time 4.32520E+01 )

 element  materl
     ipt  stress       sig-xx      sig-yy      sig-zz      sig-xy      sig-yz      sig-zx                       yield
           state                                                                                  effsg      function
      45-      1
       1          -1.7095E+08 -1.8686E+08 -3.7100E+08  5.4679E+06 -8.2487E+06 -2.5683E+07    1.9840E+08    1.0539E-01
      47-      1
       1          -1.2566E+08 -1.2203E+08 -3.1128E+08  1.5033E+07 -2.8172E+07 -1.6426E+07    1.9751E+08    1.0087E-01
      53-      1
       1          -1.0023E+08 -9.3619E+07 -3.2283E+08  1.8349E+07 -2.2858E+07 -2.6223E+07    2.3602E+08    1.1071E-01
      61-      1
       1          -6.5846E+07 -8.8185E+07 -3.1392E+08  5.0342E+05  1.5176E+06 -2.9515E+07    2.4314E+08    1.2798E-01
      67-      1
       1          -1.1482E+08 -1.0348E+08 -3.3835E+08  1.3619E+07 -2.4426E+07 -1.2240E+07    2.3542E+08    1.0200E-01
      79-      1
       1          -2.6071E+08 -2.9071E+08 -5.7561E+08  2.7678E+06 -4.7335E+06 -2.6890E+06    3.0122E+08    5.8008E-02
      81-      1
       1          -6.0008E+07 -2.5975E+07 -3.2012E+08 -1.9726E+04 -2.9049E+07 -6.3217E+05    2.8320E+08    1.1785E-01



 e l e m e n t   s t r a i n   c a l c u l a t i o n s   f o r   t i m e  s t e p      298   ( at time  4.32520E+01 )

 element  strain       eps-xx      eps-yy      eps-zz      eps-xy      eps-yz      eps-zx                            yield
 num/ipt   state
      45-      1
      1            6.4925E-02  4.8741E-02 -1.1358E-01  1.0448E-02 -8.4103E-03 -1.6582E-02
      47-      1
      1            4.9414E-02  5.9798E-02 -1.0733E-01  1.6307E-02 -1.3896E-02 -1.1416E-02
      53-      1
      1            5.2545E-02  5.5971E-02 -1.0903E-01  1.6856E-02 -1.0224E-02 -1.4544E-02
      61-      1
      1            7.5209E-02  4.8118E-02 -1.2453E-01  1.3280E-03  7.5661E-04 -2.0693E-02
      67-      1
      1            4.5331E-02  6.3858E-02 -1.0924E-01  1.1116E-02 -1.7510E-02 -8.9547E-03
      79-      1
      1            2.9646E-02  2.6507E-02 -6.1644E-02  2.0861E-03 -2.1143E-03 -1.9569E-03
      81-      1
      1            4.4450E-02  6.9019E-02 -1.1537E-01  3.2818E-03 -2.2119E-02 -8.3068E-04



 e l e m e n t   s t r e s s   c a l c u l a t i o n s   f o r   t i m e  s t e p      307   ( at time 4.55673E+01 )

 element  materl
     ipt  stress       sig-xx      sig-yy      sig-zz      sig-xy      sig-yz      sig-zx                       yield
           state                                                                                  effsg      function
      45-      1
       1          -1.7645E+08 -1.9648E+08 -3.8092E+08  6.5639E+06 -1.0001E+07 -2.5560E+07    2.0125E+08    1.1018E-01
      47-      1
       1          -2.0017E+08 -1.9822E+08 -3.4728E+08  8.7393E+06 -2.7153E+07 -1.6924E+07    1.5885E+08    1.0488E-01
      53-      1
       1          -1.6828E+08 -1.6661E+08 -3.5475E+08  1.4781E+07 -2.9524E+07 -2.5166E+07    2.0064E+08    1.1582E-01
      61-      1
       1          -6.5809E+07 -9.3380E+07 -3.1993E+08  3.5556E+05  7.8547E+05 -3.0218E+07    2.4713E+08    1.3406E-01
      67-      1
       1          -1.2890E+08 -1.1023E+08 -3.5030E+08  1.3377E+07 -2.7616E+07 -1.4167E+07    2.3859E+08    1.0760E-01
      79-      1
       1          -2.6024E+08 -2.8152E+08 -5.7424E+08  1.8005E+06 -2.2157E+06 -2.4228E+06    3.0399E+08    6.2516E-02
      81-      1
       1          -6.4545E+07 -3.1412E+07 -3.2611E+08 -2.3797E+06 -3.2758E+07 -2.6790E+06    2.8537E+08    1.2477E-01



 e l e m e n t   s t r a i n   c a l c u l a t i o n s   f o r   t i m e  s t e p      307   ( at time  4.55673E+01 )

 element  strain       eps-xx      eps-yy      eps-zz      eps-xy      eps-yz      eps-zx                            yield
 num/ipt   state
      45-      1
      1            6.8995E-02  5.2027E-02 -1.2095E-01  1.1183E-02 -8.8900E-03 -1.7669E-02
      47-      1
      1            5.4064E-02  6.4247E-02 -1.1509E-01  1.7995E-02 -1.5238E-02 -1.2685E-02
      53-      1
      1            5.6958E-02  6.0384E-02 -1.1683E-01  1.8587E-02 -1.1383E-02 -1.5817E-02
      61-      1
      1            7.9899E-02  5.1192E-02 -1.3224E-01  1.4162E-03  6.9255E-04 -2.1827E-02
      67-      1
      1            4.8263E-02  6.8218E-02 -1.1655E-01  1.1813E-02 -1.8568E-02 -9.5849E-03
      79-      1
      1            3.2065E-02  2.8625E-02 -6.6144E-02  2.1083E-03 -2.1057E-03 -2.0151E-03
      81-      1
      1            4.7540E-02  7.3659E-02 -1.2321E-01  3.2065E-03 -2.3157E-02 -7.9443E-04



 e l e m e n t   s t r e s s   c a l c u l a t i o n s   f o r   t i m e  s t e p      316   ( at time 4.78826E+01 )

 element  materl
     ipt  stress       sig-xx      sig-yy      sig-zz      sig-xy      sig-yz      sig-zx                       yield
           state                                                                                  effsg      function
      45-      1
       1          -2.1912E+08 -2.3878E+08 -3.8435E+08  4.5066E+06 -1.3959E+07 -2.4340E+07    1.6390E+08    1.1418E-01
      47-      1
       1          -2.1770E+08 -2.1642E+08 -3.6929E+08  8.5858E+06 -2.2985E+07 -1.5837E+07    1.6041E+08    1.0857E-01
      53-      1
       1          -1.7155E+08 -1.7409E+08 -3.6532E+08  1.4675E+07 -2.5230E+07 -2.1288E+07    2.0242E+08    1.2057E-01
      61-      1
       1          -6.9149E+07 -9.8720E+07 -3.2526E+08  3.1157E+06 -2.1469E+05 -3.0006E+07    2.4825E+08    1.4011E-01
      67-      1
       1          -1.3632E+08 -1.1725E+08 -3.5887E+08  1.1432E+07 -2.6968E+07 -1.6112E+07    2.3977E+08    1.1319E-01
      79-      1
       1          -2.6600E+08 -2.8228E+08 -5.7907E+08  1.9732E+06 -2.0601E+06 -2.5190E+06    3.0533E+08    6.7100E-02
      81-      1
       1          -1.6028E+07  2.6500E+07 -2.7001E+08 -5.7705E+05 -3.9344E+07 -3.8517E+06    2.8602E+08    1.3252E-01



 e l e m e n t   s t r a i n   c a l c u l a t i o n s   f o r   t i m e  s t e p      316   ( at time  4.78826E+01 )

 element  strain       eps-xx      eps-yy      eps-zz      eps-xy      eps-yz      eps-zx                            yield
 num/ipt   state
      45-      1
      1            7.3342E-02  5.5463E-02 -1.2834E-01  1.1816E-02 -9.3103E-03 -1.8747E-02
      47-      1
      1            5.7883E-02  6.8064E-02 -1.2228E-01  1.9106E-02 -1.6429E-02 -1.3705E-02
      53-      1
      1            6.0730E-02  6.4131E-02 -1.2403E-01  1.9706E-02 -1.2275E-02 -1.6771E-02
      61-      1
      1            8.4535E-02  5.4250E-02 -1.3990E-01  1.6517E-03  4.8407E-04 -2.2801E-02
      67-      1
      1            5.1492E-02  7.2234E-02 -1.2373E-01  1.2537E-02 -1.9653E-02 -1.0279E-02
      79-      1
      1            3.4455E-02  3.0747E-02 -7.0724E-02  2.1559E-03 -2.1551E-03 -2.0859E-03
      81-      1
      1            5.0867E-02  7.9201E-02 -1.3144E-01  3.3097E-03 -2.4555E-02 -7.2050E-04



 e l e m e n t   s t r e s s   c a l c u l a t i o n s   f o r   t i m e  s t e p      325   ( at time 5.01979E+01 )

 element  materl
     ipt  stress       sig-xx      sig-yy      sig-zz      sig-xy      sig-yz      sig-zx                       yield
           state                                                                                  effsg      function
      45-      1
       1          -2.2682E+08 -2.4817E+08 -3.9398E+08  4.7554E+06 -1.3683E+07 -2.4091E+07    1.6492E+08    1.1831E-01
      47-      1
       1          -2.3239E+08 -2.3105E+08 -3.8592E+08  9.6802E+06 -2.2327E+07 -1.6120E+07    1.6228E+08    1.1248E-01
      53-      1
       1          -1.8152E+08 -1.8576E+08 -3.7636E+08  1.5245E+07 -2.5848E+07 -2.4509E+07    2.0411E+08    1.2556E-01
      61-      1
       1          -7.6310E+07 -1.0652E+08 -3.3594E+08  4.9658E+06 -1.4762E+06 -2.9083E+07    2.5118E+08    1.4664E-01
      67-      1
       1          -1.7729E+08 -1.6018E+08 -3.6291E+08  1.0307E+07 -2.9011E+07 -1.3780E+07    2.0331E+08    1.1837E-01
      79-      1
       1          -2.6603E+08 -2.8535E+08 -5.8240E+08  2.2307E+06 -2.3674E+06 -1.9866E+06    3.0724E+08    7.1569E-02
      81-      1
       1          -6.4466E+07 -2.9994E+07 -2.8399E+08  5.8780E+06 -3.8422E+07 -4.7702E+06    2.4809E+08    1.3924E-01



 e l e m e n t   s t r a i n   c a l c u l a t i o n s   f o r   t i m e  s t e p      325   ( at time  5.01979E+01 )

 element  strain       eps-xx      eps-yy      eps-zz      eps-xy      eps-yz      eps-zx                            yield
 num/ipt   state
      45-      1
      1            7.7766E-02  5.8865E-02 -1.3605E-01  1.2650E-02 -9.7082E-03 -1.9793E-02
      47-      1
      1            6.1671E-02  7.2303E-02 -1.2988E-01  2.0252E-02 -1.7659E-02 -1.4678E-02
      53-      1
      1            6.4711E-02  6.8077E-02 -1.3164E-01  2.0955E-02 -1.3227E-02 -1.7800E-02
      61-      1
      1            8.9383E-02  5.7566E-02 -1.4823E-01  2.0094E-03  3.3529E-04 -2.3944E-02
      67-      1
      1            5.4716E-02  7.7307E-02 -1.3150E-01  1.3123E-02 -2.1076E-02 -1.0825E-02
      79-      1
      1            3.6901E-02  3.2718E-02 -7.5187E-02  2.2093E-03 -2.2136E-03 -2.1275E-03
      81-      1
      1            5.4073E-02  8.4861E-02 -1.3986E-01  3.5182E-03 -2.5912E-02 -7.6698E-04



 e l e m e n t   s t r e s s   c a l c u l a t i o n s   f o r   t i m e  s t e p      334   ( at time 5.25132E+01 )

 element  materl
     ipt  stress       sig-xx      sig-yy      sig-zz      sig-xy      sig-yz      sig-zx                       yield
           state                                                                                  effsg      function
      45-      1
       1          -2.2382E+08 -2.4116E+08 -3.9181E+08  5.5737E+06 -1.1021E+07 -2.2345E+07    1.6602E+08    1.2214E-01
      47-      1
       1          -2.4223E+08 -2.4078E+08 -3.9719E+08  9.8515E+06 -2.0869E+07 -1.6280E+07    1.6320E+08    1.1619E-01
      53-      1
       1          -1.8573E+08 -1.9408E+08 -3.8482E+08  1.4828E+07 -2.5078E+07 -2.4537E+07    2.0591E+08    1.3015E-01
      61-      1
       1          -8.2092E+07 -1.0805E+08 -3.4136E+08  3.9205E+06 -1.6240E+06 -2.8238E+07    2.5221E+08    1.5254E-01
      67-      1
       1          -1.6901E+08 -1.5779E+08 -3.6121E+08  1.1381E+07 -2.4511E+07 -1.1984E+07    2.0456E+08    1.2316E-01
      79-      1
       1          -2.6653E+08 -2.8743E+08 -5.8527E+08  2.1151E+06 -1.8099E+06 -1.9095E+06    3.0887E+08    7.6285E-02
      81-      1
       1          -6.7672E+07 -3.8112E+07 -2.9393E+08  3.3891E+06 -3.5441E+07 -4.2404E+06    2.5023E+08    1.4534E-01



 e l e m e n t   s t r a i n   c a l c u l a t i o n s   f o r   t i m e  s t e p      334   ( at time  5.25132E+01 )

 element  strain       eps-xx      eps-yy      eps-zz      eps-xy      eps-yz      eps-zx                            yield
 num/ipt   state
      45-      1
      1            8.1773E-02  6.2298E-02 -1.4321E-01  1.3370E-02 -9.9362E-03 -2.0629E-02
      47-      1
      1            6.5308E-02  7.6304E-02 -1.3708E-01  2.1146E-02 -1.8818E-02 -1.5445E-02
      53-      1
      1            6.8526E-02  7.1652E-02 -1.3874E-01  2.1987E-02 -1.4017E-02 -1.8561E-02
      61-      1
      1            9.3794E-02  6.0779E-02 -1.5579E-01  2.2059E-03  2.0574E-04 -2.4815E-02
      67-      1
      1            5.8064E-02  8.1428E-02 -1.3875E-01  1.3712E-02 -2.2237E-02 -1.1264E-02
      79-      1
      1            3.9482E-02  3.4794E-02 -7.9886E-02  2.2553E-03 -2.2523E-03 -2.1764E-03
      81-      1
      1            5.7259E-02  8.9637E-02 -1.4771E-01  3.5380E-03 -2.7005E-02 -7.4381E-04



 e l e m e n t   s t r e s s   c a l c u l a t i o n s   f o r   t i m e  s t e p      343   ( at time 5.48285E+01 )

 element  materl
     ipt  stress       sig-xx      sig-yy      sig-zz      sig-xy      sig-yz      sig-zx                       yield
           state                                                                                  effsg      function
      45-      1
       1          -1.9961E+08 -2.3023E+08 -3.7359E+08  5.8208E+06 -8.1975E+06 -2.1064E+07    1.6587E+08    1.2695E-01
      47-      1
       1          -2.4280E+08 -2.3917E+08 -3.9877E+08  1.1348E+07 -1.8407E+07 -1.4886E+07    1.6423E+08    1.2012E-01
      53-      1
       1          -2.0284E+08 -2.1371E+08 -4.0472E+08  1.5418E+07 -2.3225E+07 -2.4173E+07    2.0679E+08    1.3493E-01
      61-      1
       1          -5.2576E+07 -7.3407E+07 -3.1157E+08  9.5368E+06 -6.8845E+06 -2.6820E+07    2.5434E+08    1.5997E-01
      67-      1
       1          -1.7056E+08 -1.5964E+08 -3.6443E+08  1.3544E+07 -2.4086E+07 -1.1087E+07    2.0611E+08    1.2820E-01
      79-      1
       1          -2.6630E+08 -2.8693E+08 -5.8686E+08  1.7423E+06 -1.5426E+06 -1.8168E+06    3.1081E+08    8.1237E-02
      81-      1
       1          -7.6707E+07 -4.7028E+07 -3.0613E+08  3.1319E+06 -3.4314E+07 -3.2671E+06    2.5282E+08    1.5168E-01



 e l e m e n t   s t r a i n   c a l c u l a t i o n s   f o r   t i m e  s t e p      343   ( at time  5.48285E+01 )

 element  strain       eps-xx      eps-yy      eps-zz      eps-xy      eps-yz      eps-zx                            yield
 num/ipt   state
      45-      1
      1            8.7429E-02  6.5869E-02 -1.5163E-01  1.4615E-02 -1.0100E-02 -2.1839E-02
      47-      1
      1            6.8960E-02  8.0496E-02 -1.4462E-01  2.2206E-02 -1.9959E-02 -1.6132E-02
      53-      1
      1            7.2332E-02  7.5465E-02 -1.4622E-01  2.3147E-02 -1.4730E-02 -1.9252E-02
      61-      1
      1            9.9301E-02  6.5028E-02 -1.6489E-01  2.9569E-03 -4.4589E-04 -2.6129E-02
      67-      1
      1            6.1561E-02  8.5731E-02 -1.4641E-01  1.4512E-02 -2.3451E-02 -1.1711E-02
      79-      1
      1            4.2180E-02  3.7009E-02 -8.4820E-02  2.2897E-03 -2.2882E-03 -2.2239E-03
      81-      1
      1            6.0492E-02  9.4619E-02 -1.5586E-01  3.6363E-03 -2.8173E-02 -7.3427E-04



 e l e m e n t   s t r e s s   c a l c u l a t i o n s   f o r   t i m e  s t e p      353   ( at time 5.71438E+01 )

 element  materl
     ipt  stress       sig-xx      sig-yy      sig-zz      sig-xy      sig-yz      sig-zx                       yield
           state                                                                                  effsg      function
      45-      1
       1          -1.8140E+08 -2.0631E+08 -3.5588E+08  5.7356E+06 -6.2375E+06 -1.8356E+07    1.6717E+08    1.3090E-01
      47-      1
       1          -2.5567E+08 -2.5473E+08 -4.1331E+08  8.9231E+06 -1.8887E+07 -1.8664E+07    1.6539E+08    1.2399E-01
      53-      1
       1          -2.0376E+08 -2.1769E+08 -4.0860E+08  1.3407E+07 -2.2685E+07 -2.5477E+07    2.0816E+08    1.3960E-01
      61-      1
       1          -6.0540E+07 -7.2340E+07 -3.1844E+08  7.4262E+06 -7.5368E+06 -2.5352E+07    2.5666E+08    1.6582E-01
      67-      1
       1          -1.7725E+08 -1.6905E+08 -3.7402E+08  1.1085E+07 -2.5077E+07 -1.0624E+07    2.0734E+08    1.3315E-01
      79-      1
       1          -2.6129E+08 -2.8805E+08 -5.8642E+08  1.2213E+06 -1.0237E+06 -1.7998E+06    3.1263E+08    8.6771E-02
      81-      1
       1          -1.1900E+08 -9.1960E+07 -3.0740E+08 -1.0295E+06 -3.4300E+07 -2.2656E+06    2.1182E+08    1.5724E-01



 e l e m e n t   s t r a i n   c a l c u l a t i o n s   f o r   t i m e  s t e p      353   ( at time  5.71438E+01 )

 element  strain       eps-xx      eps-yy      eps-zz      eps-xy      eps-yz      eps-zx                            yield
 num/ipt   state
      45-      1
      1            9.1331E-02  6.9396E-02 -1.5872E-01  1.5402E-02 -1.0328E-02 -2.2711E-02
      47-      1
      1            7.2677E-02  8.4560E-02 -1.5223E-01  2.2980E-02 -2.0961E-02 -1.6923E-02
      53-      1
      1            7.6226E-02  7.9049E-02 -1.5350E-01  2.3973E-02 -1.5496E-02 -1.9868E-02
      61-      1
      1            1.0323E-01  6.8563E-02 -1.7224E-01  3.3451E-03 -8.9003E-04 -2.7225E-02
      67-      1
      1            6.4998E-02  8.9982E-02 -1.5400E-01  1.5065E-02 -2.4643E-02 -1.2103E-02
      79-      1
      1            4.5334E-02  3.9342E-02 -9.0310E-02  2.3122E-03 -2.3104E-03 -2.2697E-03
      81-      1
      1            6.3826E-02  1.0005E-01 -1.6422E-01  3.5081E-03 -2.9471E-02 -6.4876E-04



 e l e m e n t   s t r e s s   c a l c u l a t i o n s   f o r   t i m e  s t e p      363   ( at time 5.94591E+01 )

 element  materl
     ipt  stress       sig-xx      sig-yy      sig-zz      sig-xy      sig-yz      sig-zx                       yield
           state                                                                                  effsg      function
      45-      1
       1          -1.9508E+08 -2.2203E+08 -3.6889E+08  3.1538E+06 -3.6951E+06 -2.3130E+07    1.6711E+08    1.3494E-01
      47-      1
       1          -2.6386E+08 -2.6527E+08 -4.1937E+08  1.0367E+07 -2.5045E+07 -2.1717E+07    1.6609E+08    1.2802E-01
      53-      1
       1          -1.9931E+08 -2.0406E+08 -3.9646E+08  1.0054E+07 -3.2080E+07 -2.8511E+07    2.0925E+08    1.4458E-01
      61-      1
       1          -6.5306E+07 -8.4156E+07 -3.2714E+08  5.9974E+06 -8.6023E+06 -2.3232E+07    2.5676E+08    1.7173E-01
      67-      1
       1          -1.7902E+08 -1.7371E+08 -3.7810E+08  1.0998E+07 -2.4407E+07 -9.8406E+06    2.0775E+08    1.3816E-01
      79-      1
       1          -2.5145E+08 -2.8718E+08 -5.8138E+08  1.4575E+06 -1.4476E+06 -2.4344E+05    3.1361E+08    9.2047E-02
      81-      1
       1          -1.1600E+08 -9.3326E+07 -3.0959E+08  2.3828E+05 -3.1252E+07 -1.0871E+06    2.1287E+08    1.6255E-01



 e l e m e n t   s t r a i n   c a l c u l a t i o n s   f o r   t i m e  s t e p      363   ( at time  5.94591E+01 )

 element  strain       eps-xx      eps-yy      eps-zz      eps-xy      eps-yz      eps-zx                            yield
 num/ipt   state
      45-      1
      1            9.5647E-02  7.2463E-02 -1.6605E-01  1.6037E-02 -1.0497E-02 -2.3848E-02
      47-      1
      1            7.7050E-02  8.8573E-02 -1.5998E-01  2.4566E-02 -2.2109E-02 -1.7779E-02
      53-      1
      1            8.0808E-02  8.3504E-02 -1.6105E-01  2.5098E-02 -1.6620E-02 -2.0621E-02
      61-      1
      1            1.0752E-01  7.1754E-02 -1.7960E-01  3.6467E-03 -1.2554E-03 -2.8286E-02
      67-      1
      1            6.8521E-02  9.4172E-02 -1.6161E-01  1.5539E-02 -2.5733E-02 -1.2493E-02
      79-      1
      1            4.8480E-02  4.1426E-02 -9.5485E-02  2.3534E-03 -2.3410E-03 -2.2537E-03
      81-      1
      1            6.7323E-02  1.0492E-01 -1.7239E-01  3.4580E-03 -3.0457E-02 -5.3717E-04



 e l e m e n t   s t r e s s   c a l c u l a t i o n s   f o r   t i m e  s t e p      373   ( at time 6.17744E+01 )

 element  materl
     ipt  stress       sig-xx      sig-yy      sig-zz      sig-xy      sig-yz      sig-zx                       yield
           state                                                                                  effsg      function
      45-      1
       1          -1.4097E+08 -1.6991E+08 -3.1569E+08  9.2051E+06 -3.2257E+06 -2.1345E+07    1.6722E+08    1.3966E-01
      47-      1
       1          -2.6822E+08 -2.7576E+08 -4.2836E+08  7.1363E+06 -1.5714E+07 -2.4653E+07    1.6496E+08    1.3296E-01
      53-      1
       1          -1.9028E+08 -1.9051E+08 -3.8737E+08  1.2684E+07 -3.0491E+07 -2.3143E+07    2.0899E+08    1.5026E-01
      61-      1
       1          -9.8344E+07 -1.0467E+08 -3.1029E+08  2.0033E+06 -1.1026E+07 -2.0599E+07    2.1276E+08    1.7810E-01
      67-      1
       1          -2.1935E+08 -2.1762E+08 -3.8032E+08  2.6077E+06 -1.7895E+07 -8.6458E+06    1.6553E+08    1.4243E-01
      79-      1
       1          -2.4834E+08 -2.7718E+08 -5.7676E+08  2.3678E+06 -1.6956E+06 -6.7666E+05    3.1503E+08    9.8520E-02
      81-      1
       1          -1.2266E+08 -1.0390E+08 -3.1843E+08  1.3810E+06 -3.2073E+07 -4.1628E+05    2.1317E+08    1.6811E-01



 e l e m e n t   s t r a i n   c a l c u l a t i o n s   f o r   t i m e  s t e p      373   ( at time  6.17744E+01 )

 element  strain       eps-xx      eps-yy      eps-zz      eps-xy      eps-yz      eps-zx                            yield
 num/ipt   state
      45-      1
      1            1.0105E-01  7.5928E-02 -1.7409E-01  1.6739E-02 -1.0580E-02 -2.4885E-02
      47-      1
      1            8.3605E-02  9.3490E-02 -1.6924E-01  2.6437E-02 -2.3260E-02 -1.9114E-02
      53-      1
      1            8.5846E-02  8.9009E-02 -1.6971E-01  2.7014E-02 -1.8104E-02 -2.1228E-02
      61-      1
      1            1.1318E-01  7.6345E-02 -1.8852E-01  3.7936E-03 -1.8171E-03 -2.9573E-02
      67-      1
      1            7.2718E-02  9.8892E-02 -1.6990E-01  1.5880E-02 -2.6957E-02 -1.2827E-02
      79-      1
      1            5.2064E-02  4.4265E-02 -1.0185E-01  2.4424E-03 -2.3932E-03 -2.2771E-03
      81-      1
      1            7.1060E-02  1.0998E-01 -1.8095E-01  3.3183E-03 -3.1379E-02 -4.4994E-04



 e l e m e n t   s t r e s s   c a l c u l a t i o n s   f o r   t i m e  s t e p      383   ( at time 6.40897E+01 )

 element  materl
     ipt  stress       sig-xx      sig-yy      sig-zz      sig-xy      sig-yz      sig-zx                       yield
           state                                                                                  effsg      function
      45-      1
       1          -1.2751E+08 -1.5924E+08 -3.0357E+08  7.3277E+06 -5.5832E+06 -1.6012E+07    1.6566E+08    1.4386E-01
      47-      1
       1          -2.5351E+08 -2.5822E+08 -4.1308E+08  9.3218E+06 -1.4557E+07 -2.6536E+07    1.6656E+08    1.3825E-01
      53-      1
       1          -1.4491E+08 -1.4625E+08 -3.4958E+08  7.8770E+06 -2.3453E+07 -1.4993E+07    2.1006E+08    1.5672E-01
      61-      1
       1          -1.0146E+08 -1.1499E+08 -3.1588E+08 -4.5567E+04 -1.0882E+07 -1.9483E+07    2.1155E+08    1.8289E-01
      67-      1
       1          -1.9531E+08 -2.0415E+08 -3.6123E+08  3.5413E+06 -2.3253E+07 -1.3098E+07    1.6827E+08    1.4703E-01
      79-      1
       1          -2.0461E+08 -2.3604E+08 -5.3427E+08 -3.5900E+06 -6.1591E+05 -9.0456E+05    3.1519E+08    1.0607E-01
      81-      1
       1          -1.2349E+08 -1.1310E+08 -3.2210E+08 -3.5208E+05 -3.5204E+07 -1.3701E+06    2.1294E+08    1.7422E-01



 e l e m e n t   s t r a i n   c a l c u l a t i o n s   f o r   t i m e  s t e p      383   ( at time  6.40897E+01 )

 element  strain       eps-xx      eps-yy      eps-zz      eps-xy      eps-yz      eps-zx                            yield
 num/ipt   state
      45-      1
      1            1.0540E-01  7.9053E-02 -1.8151E-01  1.7266E-02 -1.1391E-02 -2.5585E-02
      47-      1
      1            9.0377E-02  9.9483E-02 -1.7894E-01  2.9102E-02 -2.4577E-02 -2.0332E-02
      53-      1
      1            9.0935E-02  9.5775E-02 -1.7925E-01  2.8561E-02 -1.9636E-02 -2.1849E-02
      61-      1
      1            1.1753E-01  7.9396E-02 -1.9562E-01  3.6492E-03 -2.1607E-03 -3.0096E-02
      67-      1
      1            7.7735E-02  1.0346E-01 -1.7882E-01  1.6271E-02 -2.7999E-02 -1.3147E-02
      79-      1
      1            5.6510E-02  4.7553E-02 -1.0903E-01  2.2081E-03 -2.3991E-03 -2.2609E-03
      81-      1
      1            7.5490E-02  1.1514E-01 -1.9033E-01  3.0942E-03 -3.2385E-02 -3.7875E-04



 e l e m e n t   s t r e s s   c a l c u l a t i o n s   f o r   t i m e  s t e p      393   ( at time 6.64050E+01 )

 element  materl
     ipt  stress       sig-xx      sig-yy      sig-zz      sig-xy      sig-yz      sig-zx                       yield
           state                                                                                  effsg      function
      45-      1
       1          -1.2543E+08 -1.5757E+08 -3.0218E+08  7.2756E+06 -7.9672E+06 -1.8839E+07    1.6735E+08    1.4881E-01
      47-      1
       1          -1.5736E+08 -1.7355E+08 -3.1109E+08  1.3125E+07 -2.7804E+07 -3.0862E+07    1.6462E+08    1.4408E-01
      53-      1
       1          -4.9424E+07 -4.2287E+07 -2.3743E+08  2.0481E+07 -2.9060E+07 -2.7205E+07    2.0677E+08    1.6311E-01
      61-      1
       1          -8.3933E+07 -1.0872E+08 -2.9984E+08  2.5595E+06 -1.2849E+07 -3.0337E+07    2.1250E+08    1.9010E-01
      67-      1
       1          -1.8242E+08 -1.8598E+08 -3.4330E+08  6.2977E+06 -2.8208E+07 -1.7391E+07    1.6952E+08    1.5207E-01
      79-      1
       1          -1.8052E+08 -2.0563E+08 -5.0733E+08 -1.6456E+06 -1.2384E+06 -1.6641E+06    3.1503E+08    1.1264E-01
      81-      1
       1          -1.2238E+08 -1.1793E+08 -3.2771E+08  9.2874E+05 -3.2249E+07 -2.4274E+05    2.1498E+08    1.8034E-01



 e l e m e n t   s t r a i n   c a l c u l a t i o n s   f o r   t i m e  s t e p      393   ( at time  6.64050E+01 )

 element  strain       eps-xx      eps-yy      eps-zz      eps-xy      eps-yz      eps-zx                            yield
 num/ipt   state
      45-      1
      1            1.1035E-01  8.2533E-02 -1.8998E-01  1.8146E-02 -1.2031E-02 -2.6872E-02
      47-      1
      1            9.7859E-02  1.0538E-01 -1.8814E-01  3.1119E-02 -2.6707E-02 -2.1558E-02
      53-      1
      1            9.6486E-02  1.0159E-01 -1.8757E-01  3.1037E-02 -2.1354E-02 -2.3286E-02
      61-      1
      1            1.2415E-01  8.3388E-02 -2.0532E-01  3.9851E-03 -2.5284E-03 -3.1741E-02
      67-      1
      1            8.3008E-02  1.0963E-01 -1.8840E-01  1.8041E-02 -2.9455E-02 -1.3580E-02
      79-      1
      1            6.0135E-02  5.0537E-02 -1.1528E-01  2.1985E-03 -2.4901E-03 -2.3220E-03
      81-      1
      1            8.0051E-02  1.2018E-01 -1.9989E-01  3.2229E-03 -3.3331E-02 -2.2805E-04



 e l e m e n t   s t r e s s   c a l c u l a t i o n s   f o r   t i m e  s t e p      403   ( at time 6.87203E+01 )

 element  materl
     ipt  stress       sig-xx      sig-yy      sig-zz      sig-xy      sig-yz      sig-zx                       yield
           state                                                                                  effsg      function
      45-      1
       1          -1.1958E+08 -1.4289E+08 -2.9565E+08  9.0847E+06 -3.8906E+06 -1.6960E+07    1.6910E+08    1.5318E-01
      47-      1
       1          -6.9447E+07 -8.9545E+07 -1.8680E+08  1.5463E+07 -1.8913E+07 -2.9051E+07    1.2704E+08    1.4953E-01
      53-      1
       1          -1.2044E+08 -1.1147E+08 -2.3096E+08  1.3565E+07 -2.3319E+07 -1.8073E+07    1.2825E+08    1.6746E-01
      61-      1
       1          -8.1882E+07 -1.0342E+08 -3.0360E+08  1.5806E+06 -1.0045E+07 -2.1754E+07    2.1582E+08    1.9590E-01
      67-      1
       1          -1.4689E+08 -1.6116E+08 -3.0219E+08  1.0243E+07 -3.3880E+07 -2.3776E+07    1.6601E+08    1.5717E-01
      79-      1
       1          -1.6393E+08 -1.7312E+08 -4.8589E+08 -1.3010E+06 -8.3524E+05 -1.4038E+06    3.1749E+08    1.1957E-01
      81-      1
       1          -1.3222E+08 -1.3366E+08 -3.3839E+08  3.0636E+06 -3.3036E+07  1.7628E+06    2.1337E+08    1.8604E-01



 e l e m e n t   s t r a i n   c a l c u l a t i o n s   f o r   t i m e  s t e p      403   ( at time  6.87203E+01 )

 element  strain       eps-xx      eps-yy      eps-zz      eps-xy      eps-yz      eps-zx                            yield
 num/ipt   state
      45-      1
      1            1.1468E-01  8.6043E-02 -1.9781E-01  1.8794E-02 -1.2438E-02 -2.7807E-02
      47-      1
      1            1.0563E-01  1.1337E-01 -1.9805E-01  3.4670E-02 -2.9091E-02 -2.3830E-02
      53-      1
      1            1.0166E-01  1.0796E-01 -1.9681E-01  3.3550E-02 -2.3658E-02 -2.4623E-02
      61-      1
      1            1.2933E-01  8.7139E-02 -2.1375E-01  4.0513E-03 -2.6980E-03 -3.2527E-02
      67-      1
      1            8.9509E-02  1.1481E-01 -1.9709E-01  2.0213E-02 -3.1147E-02 -1.4488E-02
      79-      1
      1            6.3623E-02  5.4036E-02 -1.2197E-01  2.1661E-03 -2.5366E-03 -2.3492E-03
      81-      1
      1            8.4175E-02  1.2445E-01 -2.0841E-01  3.2610E-03 -3.4288E-02 -1.6353E-04



 e l e m e n t   s t r e s s   c a l c u l a t i o n s   f o r   t i m e  s t e p      413   ( at time 7.10356E+01 )

 element  materl
     ipt  stress       sig-xx      sig-yy      sig-zz      sig-xy      sig-yz      sig-zx                       yield
           state                                                                                  effsg      function
      45-      1
       1          -9.3183E+07 -1.1721E+08 -2.6648E+08  1.6484E+06 -1.8927E+06 -2.4670E+07    1.6820E+08    1.5897E-01
      47-      1
       1          -9.5412E+07 -1.1415E+08 -1.7605E+08  1.0819E+07 -1.2762E+07 -2.3672E+07    8.8678E+07    1.5300E-01
      53-      1
       1          -1.2520E+08 -1.1657E+08 -2.3636E+08  1.0125E+07 -2.6303E+07 -1.7053E+07    1.2902E+08    1.7146E-01
      61-      1
       1          -8.3316E+07 -1.0523E+08 -3.0205E+08  9.5018E+06 -1.3429E+07 -2.3211E+07    2.1438E+08    2.0292E-01
      67-      1
       1          -1.1854E+08 -1.3612E+08 -2.3535E+08  1.3328E+07 -2.5738E+07 -2.2255E+07    1.2612E+08    1.6131E-01
      79-      1
       1          -1.2170E+08 -1.0655E+08 -4.3246E+08  1.5212E+05 -5.1463E+05 -9.9692E+05    3.1862E+08    1.2770E-01
      81-      1
       1          -1.2803E+08 -1.4546E+08 -3.3806E+08  5.6394E+06 -3.5685E+07 -2.2663E+06    2.1139E+08    1.9215E-01



 e l e m e n t   s t r a i n   c a l c u l a t i o n s   f o r   t i m e  s t e p      413   ( at time  7.10356E+01 )

 element  strain       eps-xx      eps-yy      eps-zz      eps-xy      eps-yz      eps-zx                            yield
 num/ipt   state
      45-      1
      1            1.2125E-01  9.0452E-02 -2.0738E-01  1.9008E-02 -1.2514E-02 -2.9640E-02
      47-      1
      1            1.1133E-01  1.2062E-01 -2.0805E-01  3.6867E-02 -3.1093E-02 -2.5215E-02
      53-      1
      1            1.0559E-01  1.1377E-01 -2.0561E-01  3.5361E-02 -2.5720E-02 -2.5623E-02
      61-      1
      1            1.3618E-01  9.1210E-02 -2.2366E-01  4.8316E-03 -3.6551E-03 -3.3564E-02
      67-      1
      1            9.5635E-02  1.1973E-01 -2.0576E-01  2.2767E-02 -3.2593E-02 -1.5333E-02
      79-      1
      1            6.7297E-02  5.8732E-02 -1.2961E-01  2.2014E-03 -2.5155E-03 -2.3178E-03
      81-      1
      1            8.9036E-02  1.2840E-01 -2.1715E-01  3.4875E-03 -3.5445E-02 -1.8063E-04



 e l e m e n t   s t r e s s   c a l c u l a t i o n s   f o r   t i m e  s t e p      424   ( at time 7.33509E+01 )

 element  materl
     ipt  stress       sig-xx      sig-yy      sig-zz      sig-xy      sig-yz      sig-zx                       yield
           state                                                                                  effsg      function
      45-      1
       1          -5.4298E+07 -9.2656E+07 -2.3521E+08  2.6038E+06 -3.3860E+06 -2.6793E+07    1.7167E+08    1.6565E-01
      47-      1
       1          -8.6047E+07 -9.7783E+07 -1.6289E+08  9.7991E+06 -1.6189E+07 -2.4254E+07    8.9326E+07    1.5620E-01
      53-      1
       1          -1.4710E+08 -1.2542E+08 -2.5383E+08  7.6452E+06 -2.4307E+07 -1.5868E+07    1.2991E+08    1.7550E-01
      61-      1
       1          -6.8911E+07 -8.9882E+07 -2.8943E+08  1.0885E+07 -1.2268E+07 -2.7203E+07    2.1788E+08    2.1144E-01
      67-      1
       1          -1.2542E+08 -1.4954E+08 -2.0125E+08  1.4071E+07 -2.1625E+07 -2.1220E+07    8.8601E+07    1.6442E-01
      79-      1
       1          -7.8455E+07 -5.9117E+07 -3.8920E+08 -3.5522E+05  1.8085E+06 -5.2540E+05    3.2086E+08    1.3550E-01
      81-      1
       1          -1.2219E+08 -1.4426E+08 -3.3363E+08  9.0006E+06 -3.8426E+07 -3.5885E+06    2.1270E+08    1.9852E-01



 e l e m e n t   s t r a i n   c a l c u l a t i o n s   f o r   t i m e  s t e p      424   ( at time  7.33509E+01 )

 element  strain       eps-xx      eps-yy      eps-zz      eps-xy      eps-yz      eps-zx                            yield
 num/ipt   state
      45-      1
      1            1.3019E-01  9.4448E-02 -2.1811E-01  1.9727E-02 -1.2599E-02 -3.1948E-02
      47-      1
      1            1.1723E-01  1.2680E-01 -2.1760E-01  3.9368E-02 -3.2582E-02 -2.6618E-02
      53-      1
      1            1.1027E-01  1.1928E-01 -2.1505E-01  3.6703E-02 -2.6911E-02 -2.6514E-02
      61-      1
      1            1.4427E-01  9.6408E-02 -2.3567E-01  5.7949E-03 -4.5530E-03 -3.5040E-02
      67-      1
      1            1.0264E-01  1.2412E-01 -2.1458E-01  2.5341E-02 -3.3837E-02 -1.5869E-02
      79-      1
      1            7.0904E-02  6.3099E-02 -1.3699E-01  2.1856E-03 -2.4559E-03 -2.2439E-03
      81-      1
      1            9.3926E-02  1.3264E-01 -2.2648E-01  3.8475E-03 -3.6339E-02 -2.3948E-04



 e l e m e n t   s t r e s s   c a l c u l a t i o n s   f o r   t i m e  s t e p      434   ( at time 7.56662E+01 )

 element  materl
     ipt  stress       sig-xx      sig-yy      sig-zz      sig-xy      sig-yz      sig-zx                       yield
           state                                                                                  effsg      function
      45-      1
       1          -8.5115E+07 -1.2201E+08 -2.2174E+08  3.4963E+06 -1.2533E+06 -2.1430E+07    1.2808E+08    1.7054E-01
      47-      1
       1          -8.4193E+07 -9.7173E+07 -1.6446E+08  6.9520E+06 -1.4059E+07 -2.4238E+07    8.9833E+07    1.5911E-01
      53-      1
       1          -1.5220E+08 -1.3275E+08 -2.5826E+08  4.7715E+06 -2.3853E+07 -1.6581E+07    1.2763E+08    1.7907E-01
      61-      1
       1          -8.2742E+07 -8.7440E+07 -2.5308E+08  9.7092E+06 -1.4743E+07 -2.4799E+07    1.7611E+08    2.1712E-01
      67-      1
       1          -1.2774E+08 -1.4778E+08 -2.0499E+08  1.1908E+07 -2.1267E+07 -2.1219E+07    8.9183E+07    1.6714E-01
      79-      1
       1          -5.0726E+07 -2.0108E+07 -3.5775E+08 -1.3699E+04  1.4589E+06 -9.4302E+05    3.2344E+08    1.4239E-01
      81-      1
       1          -1.1229E+08 -1.3048E+08 -3.2387E+08  1.0853E+07 -3.8733E+07 -4.1519E+06    2.1483E+08    2.0348E-01



 e l e m e n t   s t r a i n   c a l c u l a t i o n s   f o r   t i m e  s t e p      434   ( at time  7.56662E+01 )

 element  strain       eps-xx      eps-yy      eps-zz      eps-xy      eps-yz      eps-zx                            yield
 num/ipt   state
      45-      1
      1            1.3773E-01  9.7918E-02 -2.2764E-01  2.0302E-02 -1.2283E-02 -3.3617E-02
      47-      1
      1            1.2270E-01  1.3237E-01 -2.2700E-01  4.1054E-02 -3.3828E-02 -2.7571E-02
      53-      1
      1            1.1422E-01  1.2407E-01 -2.2331E-01  3.7769E-02 -2.8209E-02 -2.7083E-02
      61-      1
      1            1.5206E-01  1.0148E-01 -2.4607E-01  6.8776E-03 -5.8108E-03 -3.6543E-02
      67-      1
      1            1.0886E-01  1.2872E-01 -2.2325E-01  2.7550E-02 -3.4963E-02 -1.6651E-02
      79-      1
      1            7.3814E-02  6.7173E-02 -1.4354E-01  2.1941E-03 -2.4379E-03 -2.2593E-03
      81-      1
      1            9.7607E-02  1.3625E-01 -2.3372E-01  4.2082E-03 -3.6997E-02 -4.7636E-04



 e l e m e n t   s t r e s s   c a l c u l a t i o n s   f o r   t i m e  s t e p      444   ( at time 7.79815E+01 )

 element  materl
     ipt  stress       sig-xx      sig-yy      sig-zz      sig-xy      sig-yz      sig-zx                       yield
           state                                                                                  effsg      function
      45-      1
       1          -8.0211E+07 -1.0768E+08 -2.1227E+08 -1.0771E+06 -5.9709E+06 -2.4112E+07    1.2815E+08    1.7613E-01
      47-      1
       1          -8.9227E+07 -9.8783E+07 -1.6994E+08  7.5563E+06 -1.4932E+07 -2.2577E+07    9.0577E+07    1.6202E-01
      53-      1
       1          -1.1187E+08 -1.0987E+08 -2.2983E+08  1.0491E+07 -1.9079E+07 -1.5959E+07    1.2783E+08    1.8352E-01
      61-      1
       1          -9.0992E+07 -1.0039E+08 -2.6186E+08  1.0873E+07 -1.4990E+07 -2.5482E+07    1.7508E+08    2.2227E-01
      67-      1
       1          -1.0013E+08 -1.1512E+08 -1.7976E+08  1.0628E+07 -2.0347E+07 -1.8217E+07    8.9156E+07    1.6981E-01
      79-      1
       1          -1.5812E+07  8.6602E+06 -3.2725E+08 -1.8110E+05  9.1012E+05 -1.8045E+06    3.2439E+08    1.4930E-01
      81-      1
       1          -9.7898E+07 -1.1854E+08 -3.1111E+08  1.3518E+07 -3.5462E+07 -5.6688E+06    2.1425E+08    2.0924E-01



 e l e m e n t   s t r a i n   c a l c u l a t i o n s   f o r   t i m e  s t e p      444   ( at time  7.79815E+01 )

 element  strain       eps-xx      eps-yy      eps-zz      eps-xy      eps-yz      eps-zx                            yield
 num/ipt   state
      45-      1
      1            1.4665E-01  1.0233E-01 -2.3874E-01  2.0134E-02 -1.2547E-02 -3.5982E-02
      47-      1
      1            1.2866E-01  1.3801E-01 -2.3665E-01  4.3015E-02 -3.5135E-02 -2.8606E-02
      53-      1
      1            1.2004E-01  1.2910E-01 -2.3232E-01  3.9887E-02 -2.9547E-02 -2.8506E-02
      61-      1
      1            1.5887E-01  1.0538E-01 -2.5644E-01  7.2959E-03 -7.1050E-03 -3.7315E-02
      67-      1
      1            1.1476E-01  1.3313E-01 -2.3153E-01  2.9904E-02 -3.6089E-02 -1.7316E-02
      79-      1
      1            7.6985E-02  7.0981E-02 -1.5011E-01  2.1892E-03 -2.4703E-03 -2.3040E-03
      81-      1
      1            1.0210E-01  1.4007E-01 -2.4200E-01  4.6949E-03 -3.7949E-02 -5.1648E-04



 e l e m e n t   s t r e s s   c a l c u l a t i o n s   f o r   t i m e  s t e p      454   ( at time 8.02968E+01 )

 element  materl
     ipt  stress       sig-xx      sig-yy      sig-zz      sig-xy      sig-yz      sig-zx                       yield
           state                                                                                  effsg      function
      45-      1
       1          -8.2839E+07 -1.1361E+08 -2.1570E+08 -4.6558E+05 -5.6308E+06 -2.4491E+07    1.2809E+08    1.8087E-01
      47-      1
       1          -7.7808E+07 -8.3829E+07 -1.5814E+08  6.4873E+06 -1.3840E+07 -2.3035E+07    9.1095E+07    1.6489E-01
      53-      1
       1          -1.0424E+08 -9.9511E+07 -2.2083E+08  1.1248E+07 -2.0631E+07 -1.7589E+07    1.2943E+08    1.8726E-01
      61-      1
       1          -9.6423E+07 -1.0553E+08 -2.6821E+08  1.1326E+07 -1.4129E+07 -2.6787E+07    1.7653E+08    2.2725E-01
      67-      1
       1          -9.3221E+07 -1.0605E+08 -1.7334E+08  7.8349E+06 -1.9825E+07 -1.9571E+07    8.9819E+07    1.7237E-01
      79-      1
       1           2.5002E+07  4.9913E+07 -2.8786E+08 -1.9341E+06  9.3761E+05 -9.5211E+05    3.2606E+08    1.5620E-01
      81-      1
       1          -1.4393E+08 -1.6338E+08 -3.1287E+08  1.1046E+07 -2.9228E+07 -8.0545E+06    1.6957E+08    2.1371E-01



 e l e m e n t   s t r a i n   c a l c u l a t i o n s   f o r   t i m e  s t e p      454   ( at time  8.02968E+01 )

 element  strain       eps-xx      eps-yy      eps-zz      eps-xy      eps-yz      eps-zx                            yield
 num/ipt   state
      45-      1
      1            1.5339E-01  1.0607E-01 -2.4801E-01  2.0499E-02 -1.2691E-02 -3.7909E-02
      47-      1
      1            1.3435E-01  1.4342E-01 -2.4560E-01  4.4844E-02 -3.6563E-02 -2.9772E-02
      53-      1
      1            1.2469E-01  1.3372E-01 -2.4043E-01  4.1473E-02 -3.0944E-02 -2.9519E-02
      61-      1
      1            1.6512E-01  1.0922E-01 -2.6567E-01  8.3069E-03 -8.2308E-03 -3.8844E-02
      67-      1
      1            1.2047E-01  1.3735E-01 -2.4006E-01  3.1787E-02 -3.7061E-02 -1.7989E-02
      79-      1
      1            8.0123E-02  7.4894E-02 -1.5662E-01  2.1007E-03 -2.5114E-03 -2.3297E-03
      81-      1
      1            1.0605E-01  1.4359E-01 -2.4945E-01  5.1151E-03 -3.8747E-02 -6.9579E-04



 e l e m e n t   s t r e s s   c a l c u l a t i o n s   f o r   t i m e  s t e p      464   ( at time 8.26121E+01 )

 element  materl
     ipt  stress       sig-xx      sig-yy      sig-zz      sig-xy      sig-yz      sig-zx                       yield
           state                                                                                  effsg      function
      45-      1
       1          -8.4711E+07 -1.1800E+08 -2.1779E+08 -2.5551E+06 -9.0164E+06 -2.5775E+07    1.2901E+08    1.8609E-01
      47-      1
       1          -7.0577E+07 -7.4922E+07 -1.4851E+08  7.3609E+06 -1.3962E+07 -2.4999E+07    9.1520E+07    1.6756E-01
      53-      1
       1          -1.0499E+08 -9.8281E+07 -2.1986E+08  1.0014E+07 -2.2544E+07 -1.9666E+07    1.3037E+08    1.9119E-01
      61-      1
       1          -2.7251E+07 -5.6076E+07 -2.1170E+08  1.9588E+06 -8.2150E+06 -3.0992E+07    1.8064E+08    2.3506E-01
      67-      1
       1          -9.2101E+07 -9.7198E+07 -1.6693E+08  7.3320E+06 -2.4312E+07 -1.8373E+07    9.0501E+07    1.7514E-01
      79-      1
       1           1.5651E+08  1.7638E+08 -1.5839E+08 -3.4995E+06  1.8748E+06 -3.3527E+06    3.2542E+08    1.6639E-01
      81-      1
       1          -7.4328E+07 -9.8759E+07 -2.4574E+08  1.7691E+07 -3.3243E+07 -7.4838E+06    1.7382E+08    2.2000E-01



 e l e m e n t   s t r a i n   c a l c u l a t i o n s   f o r   t i m e  s t e p      464   ( at time  8.26121E+01 )

 element  strain       eps-xx      eps-yy      eps-zz      eps-xy      eps-yz      eps-zx                            yield
 num/ipt   state
      45-      1
      1            1.6086E-01  1.1002E-01 -2.5842E-01  2.1099E-02 -1.2714E-02 -3.9675E-02
      47-      1
      1            1.3958E-01  1.4887E-01 -2.5478E-01  4.6922E-02 -3.6946E-02 -3.0385E-02
      53-      1
      1            1.2916E-01  1.3889E-01 -2.4944E-01  4.2980E-02 -3.2030E-02 -3.0185E-02
      61-      1
      1            1.7521E-01  1.1493E-01 -2.7933E-01  8.7792E-03 -8.3229E-03 -4.0558E-02
      67-      1
      1            1.2641E-01  1.4353E-01 -2.4951E-01  3.4278E-02 -3.7965E-02 -1.8026E-02
      79-      1
      1            8.5203E-02  8.0756E-02 -1.6578E-01  1.9198E-03 -2.3706E-03 -2.3213E-03
      81-      1
      1            1.1225E-01  1.4908E-01 -2.5954E-01  6.6093E-03 -3.9947E-02 -8.1539E-04



 e l e m e n t   s t r e s s   c a l c u l a t i o n s   f o r   t i m e  s t e p      474   ( at time 8.49274E+01 )

 element  materl
     ipt  stress       sig-xx      sig-yy      sig-zz      sig-xy      sig-yz      sig-zx                       yield
           state                                                                                  effsg      function
      45-      1
       1          -9.7581E+07 -1.1952E+08 -2.2533E+08  2.5095E+06 -1.2009E+07 -2.5960E+07    1.2834E+08    1.9180E-01
      47-      1
       1          -7.0247E+07 -7.4618E+07 -1.4612E+08  7.9970E+06 -1.6901E+07 -2.5744E+07    9.2097E+07    1.7035E-01
      53-      1
       1          -8.1761E+07 -8.8610E+07 -2.0382E+08  7.4065E+06 -2.1688E+07 -2.3492E+07    1.3168E+08    1.9658E-01
      61-      1
       1          -2.9617E+07 -5.5207E+07 -2.1027E+08 -7.0666E+05 -1.0964E+07 -3.5221E+07    1.8097E+08    2.4185E-01
      67-      1
       1          -8.3162E+07 -9.2844E+07 -1.5709E+08  5.8736E+06 -2.6170E+07 -2.0614E+07    9.0973E+07    1.7831E-01
      79-      1
       1           1.0690E+08  1.3602E+08 -8.1137E+07  2.4645E+06 -9.3603E+06 -4.2266E+06    2.0498E+08    1.7233E-01
      81-      1
       1          -8.0536E+07 -9.9313E+07 -2.0269E+08  1.8389E+07 -2.7167E+07 -1.3239E+07    1.2936E+08    2.2580E-01



 e l e m e n t   s t r a i n   c a l c u l a t i o n s   f o r   t i m e  s t e p      474   ( at time  8.49274E+01 )

 element  strain       eps-xx      eps-yy      eps-zz      eps-xy      eps-yz      eps-zx                            yield
 num/ipt   state
      45-      1
      1            1.6883E-01  1.1537E-01 -2.7041E-01  2.2492E-02 -1.3316E-02 -4.1499E-02
      47-      1
      1            1.4337E-01  1.5490E-01 -2.6449E-01  4.8660E-02 -3.7328E-02 -3.0924E-02
      53-      1
      1            1.3584E-01  1.4529E-01 -2.6076E-01  4.4671E-02 -3.3156E-02 -3.1738E-02
      61-      1
      1            1.8360E-01  1.1964E-01 -2.9198E-01  8.8617E-03 -9.0315E-03 -4.1826E-02
      67-      1
      1            1.3276E-01  1.5035E-01 -2.6009E-01  3.5727E-02 -3.8719E-02 -1.7855E-02
      79-      1
      1            8.9298E-02  8.7322E-02 -1.7405E-01  2.0176E-03 -2.4442E-03 -2.5741E-03
      81-      1
      1            1.1915E-01  1.5798E-01 -2.7139E-01  8.6531E-03 -4.1477E-02 -9.7822E-04



 e l e m e n t   s t r e s s   c a l c u l a t i o n s   f o r   t i m e  s t e p      484   ( at time 8.72427E+01 )

 element  materl
     ipt  stress       sig-xx      sig-yy      sig-zz      sig-xy      sig-yz      sig-zx                       yield
           state                                                                                  effsg      function
      45-      1
       1          -9.7330E+07 -1.1490E+08 -2.2586E+08  4.4575E+06 -1.2337E+07 -2.5918E+07    1.3078E+08    1.9646E-01
      47-      1
       1          -7.8163E+07 -8.4776E+07 -1.5744E+08  5.2944E+06 -1.8400E+07 -2.3660E+07    9.2650E+07    1.7299E-01
      53-      1
       1          -7.9764E+07 -9.0610E+07 -2.0562E+08  5.4852E+06 -2.1197E+07 -2.0336E+07    1.3142E+08    2.0064E-01
      61-      1
       1          -4.5932E+07 -6.0883E+07 -2.2348E+08 -2.6203E+06 -9.2034E+06 -3.6611E+07    1.8272E+08    2.4831E-01
      67-      1
       1          -7.8947E+07 -8.3660E+07 -1.5612E+08  8.9148E+05 -2.5645E+07 -1.6226E+07    9.1537E+07    1.8099E-01
      79-      1
       1           8.2179E+07  1.1215E+08 -2.2649E+07  2.1330E+06 -2.3777E+06 -3.0975E+06    1.2284E+08    1.7628E-01
      81-      1
       1          -5.7081E+07 -7.6500E+07 -1.8526E+08  1.7653E+07 -2.3119E+07 -1.0116E+07    1.3101E+08    2.2978E-01



 e l e m e n t   s t r a i n   c a l c u l a t i o n s   f o r   t i m e  s t e p      484   ( at time  8.72427E+01 )

 element  strain       eps-xx      eps-yy      eps-zz      eps-xy      eps-yz      eps-zx                            yield
 num/ipt   state
      45-      1
      1            1.7544E-01  1.1994E-01 -2.8058E-01  2.3118E-02 -1.3304E-02 -4.2720E-02
      47-      1
      1            1.4856E-01  1.5935E-01 -2.7404E-01  5.0064E-02 -3.7807E-02 -3.1437E-02
      53-      1
      1            1.4154E-01  1.4965E-01 -2.7022E-01  4.5479E-02 -3.3956E-02 -3.2413E-02
      61-      1
      1            1.9077E-01  1.2497E-01 -3.0433E-01  8.9754E-03 -9.0986E-03 -4.2388E-02
      67-      1
      1            1.3847E-01  1.5592E-01 -2.6936E-01  3.6638E-02 -3.9582E-02 -1.8249E-02
      79-      1
      1            9.2897E-02  9.5505E-02 -1.8277E-01  1.9887E-03 -2.4957E-03 -3.1238E-03
      81-      1
      1            1.2429E-01  1.6350E-01 -2.8026E-01  9.8630E-03 -4.2484E-02 -1.1388E-03



 e l e m e n t   s t r e s s   c a l c u l a t i o n s   f o r   t i m e  s t e p      491   ( at time 8.95580E+01 )

 element  materl
     ipt  stress       sig-xx      sig-yy      sig-zz      sig-xy      sig-yz      sig-zx                       yield
           state                                                                                  effsg      function
      45-      1
       1          -1.4858E+08 -1.6245E+08 -2.7904E+08  4.5862E+06 -1.1180E+07 -2.6887E+07    1.3420E+08    1.9955E-01
      47-      1
       1          -1.2042E+08 -1.2355E+08 -2.0263E+08  6.4698E+06 -1.5197E+07 -2.1116E+07    9.3095E+07    1.7479E-01
      53-      1
       1          -1.3808E+08 -1.4534E+08 -2.6581E+08  6.2667E+06 -1.8766E+07 -2.1498E+07    1.3417E+08    2.0351E-01
      61-      1
       1          -8.0924E+07 -1.0392E+08 -2.6446E+08  9.7650E+05 -6.8148E+06 -3.4583E+07    1.8365E+08    2.5214E-01
      67-      1
       1          -1.2014E+08 -1.2676E+08 -2.0211E+08  6.8796E+06 -2.2332E+07 -1.3784E+07    9.1809E+07    1.8294E-01
      79-      1
       1           4.5236E+07  5.9725E+07 -2.5358E+07  2.4284E+06 -2.6299E+06 -1.8238E+06    7.9150E+07    1.7727E-01
      81-      1
       1          -5.3651E+07 -6.9763E+07 -1.8599E+08  1.5953E+07 -2.4761E+07 -7.4753E+06    1.3569E+08    2.3298E-01



 e l e m e n t   s t r a i n   c a l c u l a t i o n s   f o r   t i m e  s t e p      491   ( at time  8.95580E+01 )

 element  strain       eps-xx      eps-yy      eps-zz      eps-xy      eps-yz      eps-zx                            yield
 num/ipt   state
      45-      1
      1            1.7911E-01  1.2263E-01 -2.8792E-01  2.3691E-02 -1.3657E-02 -4.3750E-02
      47-      1
      1            1.5100E-01  1.6202E-01 -2.8084E-01  5.0902E-02 -3.8687E-02 -3.2135E-02
      53-      1
      1            1.4428E-01  1.5249E-01 -2.7715E-01  4.6194E-02 -3.4677E-02 -3.3452E-02
      61-      1
      1            1.9497E-01  1.2718E-01 -3.1162E-01  9.2840E-03 -9.5186E-03 -4.3368E-02
      67-      1
      1            1.4139E-01  1.5907E-01 -2.7639E-01  3.7013E-02 -4.0770E-02 -1.8652E-02
      79-      1
      1            9.4327E-02  9.7683E-02 -1.8633E-01  2.0212E-03 -2.5958E-03 -3.3030E-03
      81-      1
      1            1.2800E-01  1.6744E-01 -2.8703E-01  1.0091E-02 -4.3853E-02 -1.5498E-03



 e l e m e n t   s t r e s s   c a l c u l a t i o n s   f o r   t i m e  s t e p      501   ( at time 9.32275E+01 )

 element  materl
     ipt  stress       sig-xx      sig-yy      sig-zz      sig-xy      sig-yz      sig-zx                       yield
           state                                                                                  effsg      function
      45-      1
       1          -9.7134E+07 -1.1736E+08 -2.3589E+08  6.1031E+06 -1.1166E+07 -2.4113E+07    1.3815E+08    2.0602E-01
      47-      1
       1          -6.8662E+07 -7.1638E+07 -1.5355E+08  8.4289E+06 -1.4093E+07 -1.8381E+07    9.3731E+07    1.7874E-01
      53-      1
       1          -7.0715E+07 -8.2068E+07 -2.0408E+08  1.0227E+07 -1.7904E+07 -1.8907E+07    1.3693E+08    2.0955E-01
      61-      1
       1          -4.9822E+07 -7.0072E+07 -2.3008E+08 -3.5804E+05 -4.3251E+06 -2.4918E+07    1.7656E+08    2.6102E-01
      67-      1
       1          -6.9799E+07 -8.0806E+07 -1.5624E+08  5.5671E+06 -2.1515E+07 -1.2524E+07    9.2701E+07    1.8711E-01
      79-      1
       1           7.8734E+07  8.6841E+07  2.9657E+06  1.8872E+06 -4.3632E+05 -2.8054E+06    8.0347E+07    1.8035E-01
      81-      1
       1          -4.5107E+07 -5.8645E+07 -1.6664E+08  1.6795E+07 -2.8267E+07 -6.3577E+06    1.2912E+08    2.3905E-01



 e l e m e n t   s t r a i n   c a l c u l a t i o n s   f o r   t i m e  s t e p      501   ( at time  9.32275E+01 )

 element  strain       eps-xx      eps-yy      eps-zz      eps-xy      eps-yz      eps-zx                            yield
 num/ipt   state
      45-      1
      1            1.8980E-01  1.2942E-01 -3.0274E-01  2.5686E-02 -1.3864E-02 -4.4922E-02
      47-      1
      1            1.5876E-01  1.7120E-01 -2.9474E-01  5.3955E-02 -3.9126E-02 -3.2617E-02
      53-      1
      1            1.5310E-01  1.6070E-01 -2.9116E-01  4.8821E-02 -3.5462E-02 -3.4266E-02
      61-      1
      1            2.0573E-01  1.3396E-01 -3.2742E-01  9.6078E-03 -9.6602E-03 -4.3630E-02
      67-      1
      1            1.5005E-01  1.6910E-01 -2.9105E-01  3.7497E-02 -4.1518E-02 -1.8760E-02
      79-      1
      1            1.0011E-01  1.0522E-01 -1.9668E-01  2.1042E-03 -3.0079E-03 -4.0444E-03
      81-      1
      1            1.3520E-01  1.7621E-01 -3.0060E-01  1.0259E-02 -4.4218E-02 -1.9119E-03



 e l e m e n t   s t r e s s   c a l c u l a t i o n s   f o r   t i m e  s t e p      512   ( at time 9.68970E+01 )

 element  materl
     ipt  stress       sig-xx      sig-yy      sig-zz      sig-xy      sig-yz      sig-zx                       yield
           state                                                                                  effsg      function
      45-      1
       1          -1.0799E+08 -1.2610E+08 -2.4153E+08  5.0037E+06 -1.1820E+07 -2.5649E+07    1.3495E+08    2.1312E-01
      47-      1
       1          -6.4287E+07 -6.6136E+07 -1.4670E+08  6.6725E+06 -1.5268E+07 -2.1854E+07    9.4390E+07    1.8302E-01
      53-      1
       1          -7.5630E+07 -8.5619E+07 -2.0693E+08  7.0685E+06 -2.0392E+07 -2.0235E+07    1.3658E+08    2.1627E-01
      61-      1
       1          -5.9892E+07 -8.5356E+07 -2.4818E+08 -2.4608E+06 -5.8386E+06 -3.6064E+07    1.8796E+08    2.6959E-01
      67-      1
       1          -5.8637E+07 -6.9265E+07 -1.4586E+08  2.7691E+06 -2.0509E+07 -1.4317E+07    9.3240E+07    1.9131E-01
      79-      1
       1           3.9425E+07  4.4093E+07  1.4503E+06  7.7436E+05  9.9165E+06 -3.4309E+04    4.4022E+07    1.8192E-01
      81-      1
       1          -3.6264E+07 -4.9171E+07 -2.0053E+08  1.5112E+07 -2.0783E+07 -7.5358E+06    1.6487E+08    2.4624E-01



 e l e m e n t   s t r a i n   c a l c u l a t i o n s   f o r   t i m e  s t e p      512   ( at time  9.68970E+01 )

 element  strain       eps-xx      eps-yy      eps-zz      eps-xy      eps-yz      eps-zx                            yield
 num/ipt   state
      45-      1
      1            1.9998E-01  1.3601E-01 -3.1827E-01  2.6932E-02 -1.4256E-02 -4.6720E-02
      47-      1
      1            1.6581E-01  1.8005E-01 -3.0920E-01  5.6578E-02 -4.0267E-02 -3.3832E-02
      53-      1
      1            1.6166E-01  1.6835E-01 -3.0604E-01  5.0773E-02 -3.7049E-02 -3.6133E-02
      61-      1
      1            2.1623E-01  1.3990E-01 -3.4410E-01  9.4662E-03 -9.8636E-03 -4.4120E-02
      67-      1
      1            1.5848E-01  1.7861E-01 -3.0563E-01  3.7671E-02 -4.2703E-02 -1.9130E-02
      79-      1
      1            1.0594E-01  1.1317E-01 -2.0745E-01  1.7791E-03 -3.4751E-03 -4.7909E-03
      81-      1
      1            1.4193E-01  1.8489E-01 -3.1380E-01  1.1066E-02 -4.5561E-02 -2.4712E-03



 e l e m e n t   s t r e s s   c a l c u l a t i o n s   f o r   t i m e  s t e p      522   ( at time 1.00000E+02 )

 element  materl
     ipt  stress       sig-xx      sig-yy      sig-zz      sig-xy      sig-yz      sig-zx                       yield
           state                                                                                  effsg      function
      45-      1
       1          -9.9809E+07 -1.1174E+08 -2.3047E+08  2.3677E+06 -1.1726E+07 -2.6825E+07    1.3507E+08    2.1861E-01
      47-      1
       1          -6.2898E+07 -6.8344E+07 -1.4810E+08  5.6062E+06 -1.5104E+07 -2.1480E+07    9.4805E+07    1.8614E-01
      53-      1
       1          -8.4788E+07 -9.1250E+07 -2.1564E+08  7.1252E+06 -1.9482E+07 -2.1831E+07    1.3798E+08    2.2110E-01
      61-      1
       1          -4.3278E+07 -6.7671E+07 -2.2990E+08 -4.4779E+06 -6.2494E+06 -3.6525E+07    1.8722E+08    2.7621E-01
      67-      1
       1          -5.2055E+07 -6.8014E+07 -1.4095E+08  2.5007E+06 -2.1986E+07 -1.3366E+07    9.3508E+07    1.9484E-01
      79-      1
       1           0.0000E+00  0.0000E+00  0.0000E+00  0.0000E+00  0.0000E+00  0.0000E+00    0.0000E+00    1.8192E-01
      81-      1
       1          -3.2078E+07 -4.2520E+07 -1.9844E+08  1.5488E+07 -2.5428E+07 -9.0483E+06    1.7015E+08    2.5304E-01



 e l e m e n t   s t r a i n   c a l c u l a t i o n s   f o r   t i m e  s t e p      522   ( at time  1.00000E+02 )

 element  strain       eps-xx      eps-yy      eps-zz      eps-xy      eps-yz      eps-zx                            yield
 num/ipt   state
      45-      1
      1            2.0748E-01  1.4173E-01 -3.3065E-01  2.7484E-02 -1.4321E-02 -4.7646E-02
      47-      1
      1            1.7187E-01  1.8602E-01 -3.2069E-01  5.8232E-02 -4.0711E-02 -3.4164E-02
      53-      1
      1            1.6776E-01  1.7434E-01 -3.1747E-01  5.2086E-02 -3.7578E-02 -3.7032E-02
      61-      1
      1            2.2437E-01  1.4494E-01 -3.5692E-01  9.0917E-03 -1.0165E-02 -4.3826E-02
      67-      1
      1            1.6591E-01  1.8558E-01 -3.1791E-01  3.7916E-02 -4.3552E-02 -1.9146E-02
      79-      1
      1            1.1121E-01  1.2040E-01 -2.1671E-01  1.6310E-03 -3.5399E-03 -4.8745E-03
      81-      1
      1            1.4791E-01  1.9248E-01 -3.2577E-01  1.1883E-02 -4.6558E-02 -2.9692E-03
