 LS-DYNA keyword deck by LS-PrePost                                      
                    ls-dyna smp d R14 R14.1.1s_1_ef50e1 date 06/16/2024

{BEGIN LEGEND}
 Entity #        Title
        1     Notched Bar                                                             
{END LEGEND}



 time =   0.0000E+00
 mat.#=    1             inten=  -2.6720E-12     kinen=   0.0000E+00     eroded_ie=   0.0000E+00     eroded_ke=   0.0000E+00
 x-mom=   0.0000E+00     y-mom=   0.0000E+00     z-mom=   0.0000E+00
 x-rbv=   0.0000E+00     y-rbv=   0.0000E+00     z-rbv=   0.0000E+00


 time =   2.5000E+00
 mat.#=    1             inten=   1.1498E-02     kinen=   0.0000E+00     eroded_ie=   0.0000E+00     eroded_ke=   0.0000E+00
 x-mom=   0.0000E+00     y-mom=   0.0000E+00     z-mom=   0.0000E+00
 x-rbv=   0.0000E+00     y-rbv=   0.0000E+00     z-rbv=   0.0000E+00


 time =   6.4622E+00
 mat.#=    1             inten=   7.6728E-02     kinen=   0.0000E+00     eroded_ie=   0.0000E+00     eroded_ke=   0.0000E+00
 x-mom=   0.0000E+00     y-mom=   0.0000E+00     z-mom=   0.0000E+00
 x-rbv=   0.0000E+00     y-rbv=   0.0000E+00     z-rbv=   0.0000E+00


 time =   9.3770E+00
 mat.#=    1             inten=   3.5618E-01     kinen=   0.0000E+00     eroded_ie=   0.0000E+00     eroded_ke=   0.0000E+00
 x-mom=   0.0000E+00     y-mom=   0.0000E+00     z-mom=   0.0000E+00
 x-rbv=   0.0000E+00     y-rbv=   0.0000E+00     z-rbv=   0.0000E+00


 time =   1.0838E+01
 mat.#=    1             inten=   4.1505E-01     kinen=   0.0000E+00     eroded_ie=   0.0000E+00     eroded_ke=   0.0000E+00
 x-mom=   0.0000E+00     y-mom=   0.0000E+00     z-mom=   0.0000E+00
 x-rbv=   0.0000E+00     y-rbv=   0.0000E+00     z-rbv=   0.0000E+00


 time =   1.3153E+01
 mat.#=    1             inten=   5.6683E-01     kinen=   0.0000E+00     eroded_ie=   0.0000E+00     eroded_ke=   0.0000E+00
 x-mom=   0.0000E+00     y-mom=   0.0000E+00     z-mom=   0.0000E+00
 x-rbv=   0.0000E+00     y-rbv=   0.0000E+00     z-rbv=   0.0000E+00


 time =   1.5468E+01
 mat.#=    1             inten=   6.8761E-01     kinen=   0.0000E+00     eroded_ie=   0.0000E+00     eroded_ke=   0.0000E+00
 x-mom=   0.0000E+00     y-mom=   0.0000E+00     z-mom=   0.0000E+00
 x-rbv=   0.0000E+00     y-rbv=   0.0000E+00     z-rbv=   0.0000E+00


 time =   1.7784E+01
 mat.#=    1             inten=   7.9763E-01     kinen=   0.0000E+00     eroded_ie=   0.0000E+00     eroded_ke=   0.0000E+00
 x-mom=   0.0000E+00     y-mom=   0.0000E+00     z-mom=   0.0000E+00
 x-rbv=   0.0000E+00     y-rbv=   0.0000E+00     z-rbv=   0.0000E+00


 time =   2.0099E+01
 mat.#=    1             inten=   9.1178E-01     kinen=   0.0000E+00     eroded_ie=   0.0000E+00     eroded_ke=   0.0000E+00
 x-mom=   0.0000E+00     y-mom=   0.0000E+00     z-mom=   0.0000E+00
 x-rbv=   0.0000E+00     y-rbv=   0.0000E+00     z-rbv=   0.0000E+00


 time =   2.2414E+01
 mat.#=    1             inten=   1.0128E+00     kinen=   0.0000E+00     eroded_ie=   0.0000E+00     eroded_ke=   0.0000E+00
 x-mom=   0.0000E+00     y-mom=   0.0000E+00     z-mom=   0.0000E+00
 x-rbv=   0.0000E+00     y-rbv=   0.0000E+00     z-rbv=   0.0000E+00


 time =   2.4730E+01
 mat.#=    1             inten=   1.1179E+00     kinen=   0.0000E+00     eroded_ie=   0.0000E+00     eroded_ke=   0.0000E+00
 x-mom=   0.0000E+00     y-mom=   0.0000E+00     z-mom=   0.0000E+00
 x-rbv=   0.0000E+00     y-rbv=   0.0000E+00     z-rbv=   0.0000E+00


 time =   2.7045E+01
 mat.#=    1             inten=   1.2261E+00     kinen=   0.0000E+00     eroded_ie=   0.0000E+00     eroded_ke=   0.0000E+00
 x-mom=   0.0000E+00     y-mom=   0.0000E+00     z-mom=   0.0000E+00
 x-rbv=   0.0000E+00     y-rbv=   0.0000E+00     z-rbv=   0.0000E+00


 time =   2.9360E+01
 mat.#=    1             inten=   1.3390E+00     kinen=   0.0000E+00     eroded_ie=   0.0000E+00     eroded_ke=   0.0000E+00
 x-mom=   0.0000E+00     y-mom=   0.0000E+00     z-mom=   0.0000E+00
 x-rbv=   0.0000E+00     y-rbv=   0.0000E+00     z-rbv=   0.0000E+00


 time =   3.1676E+01
 mat.#=    1             inten=   1.4534E+00     kinen=   0.0000E+00     eroded_ie=   0.0000E+00     eroded_ke=   0.0000E+00
 x-mom=   0.0000E+00     y-mom=   0.0000E+00     z-mom=   0.0000E+00
 x-rbv=   0.0000E+00     y-rbv=   0.0000E+00     z-rbv=   0.0000E+00


 time =   3.3991E+01
 mat.#=    1             inten=   1.5579E+00     kinen=   0.0000E+00     eroded_ie=   0.0000E+00     eroded_ke=   0.0000E+00
 x-mom=   0.0000E+00     y-mom=   0.0000E+00     z-mom=   0.0000E+00
 x-rbv=   0.0000E+00     y-rbv=   0.0000E+00     z-rbv=   0.0000E+00


 time =   3.6306E+01
 mat.#=    1             inten=   1.6605E+00     kinen=   0.0000E+00     eroded_ie=   0.0000E+00     eroded_ke=   0.0000E+00
 x-mom=   0.0000E+00     y-mom=   0.0000E+00     z-mom=   0.0000E+00
 x-rbv=   0.0000E+00     y-rbv=   0.0000E+00     z-rbv=   0.0000E+00


 time =   3.8621E+01
 mat.#=    1             inten=   1.7624E+00     kinen=   0.0000E+00     eroded_ie=   0.0000E+00     eroded_ke=   0.0000E+00
 x-mom=   0.0000E+00     y-mom=   0.0000E+00     z-mom=   0.0000E+00
 x-rbv=   0.0000E+00     y-rbv=   0.0000E+00     z-rbv=   0.0000E+00


 time =   4.0937E+01
 mat.#=    1             inten=   1.8714E+00     kinen=   0.0000E+00     eroded_ie=   0.0000E+00     eroded_ke=   0.0000E+00
 x-mom=   0.0000E+00     y-mom=   0.0000E+00     z-mom=   0.0000E+00
 x-rbv=   0.0000E+00     y-rbv=   0.0000E+00     z-rbv=   0.0000E+00


 time =   4.3252E+01
 mat.#=    1             inten=   1.9710E+00     kinen=   0.0000E+00     eroded_ie=   0.0000E+00     eroded_ke=   0.0000E+00
 x-mom=   0.0000E+00     y-mom=   0.0000E+00     z-mom=   0.0000E+00
 x-rbv=   0.0000E+00     y-rbv=   0.0000E+00     z-rbv=   0.0000E+00


 time =   4.5567E+01
 mat.#=    1             inten=   2.0767E+00     kinen=   0.0000E+00     eroded_ie=   0.0000E+00     eroded_ke=   0.0000E+00
 x-mom=   0.0000E+00     y-mom=   0.0000E+00     z-mom=   0.0000E+00
 x-rbv=   0.0000E+00     y-rbv=   0.0000E+00     z-rbv=   0.0000E+00


 time =   4.7883E+01
 mat.#=    1             inten=   2.1814E+00     kinen=   0.0000E+00     eroded_ie=   0.0000E+00     eroded_ke=   0.0000E+00
 x-mom=   0.0000E+00     y-mom=   0.0000E+00     z-mom=   0.0000E+00
 x-rbv=   0.0000E+00     y-rbv=   0.0000E+00     z-rbv=   0.0000E+00


 time =   5.0198E+01
 mat.#=    1             inten=   2.2851E+00     kinen=   0.0000E+00     eroded_ie=   0.0000E+00     eroded_ke=   0.0000E+00
 x-mom=   0.0000E+00     y-mom=   0.0000E+00     z-mom=   0.0000E+00
 x-rbv=   0.0000E+00     y-rbv=   0.0000E+00     z-rbv=   0.0000E+00


 time =   5.2513E+01
 mat.#=    1             inten=   2.3909E+00     kinen=   0.0000E+00     eroded_ie=   0.0000E+00     eroded_ke=   0.0000E+00
 x-mom=   0.0000E+00     y-mom=   0.0000E+00     z-mom=   0.0000E+00
 x-rbv=   0.0000E+00     y-rbv=   0.0000E+00     z-rbv=   0.0000E+00


 time =   5.4829E+01
 mat.#=    1             inten=   2.4968E+00     kinen=   0.0000E+00     eroded_ie=   0.0000E+00     eroded_ke=   0.0000E+00
 x-mom=   0.0000E+00     y-mom=   0.0000E+00     z-mom=   0.0000E+00
 x-rbv=   0.0000E+00     y-rbv=   0.0000E+00     z-rbv=   0.0000E+00


 time =   5.7144E+01
 mat.#=    1             inten=   2.6022E+00     kinen=   0.0000E+00     eroded_ie=   0.0000E+00     eroded_ke=   0.0000E+00
 x-mom=   0.0000E+00     y-mom=   0.0000E+00     z-mom=   0.0000E+00
 x-rbv=   0.0000E+00     y-rbv=   0.0000E+00     z-rbv=   0.0000E+00


 time =   5.9459E+01
 mat.#=    1             inten=   2.7093E+00     kinen=   0.0000E+00     eroded_ie=   0.0000E+00     eroded_ke=   0.0000E+00
 x-mom=   0.0000E+00     y-mom=   0.0000E+00     z-mom=   0.0000E+00
 x-rbv=   0.0000E+00     y-rbv=   0.0000E+00     z-rbv=   0.0000E+00


 time =   6.1774E+01
 mat.#=    1             inten=   2.8124E+00     kinen=   0.0000E+00     eroded_ie=   0.0000E+00     eroded_ke=   0.0000E+00
 x-mom=   0.0000E+00     y-mom=   0.0000E+00     z-mom=   0.0000E+00
 x-rbv=   0.0000E+00     y-rbv=   0.0000E+00     z-rbv=   0.0000E+00


 time =   6.4090E+01
 mat.#=    1             inten=   2.9019E+00     kinen=   0.0000E+00     eroded_ie=   0.0000E+00     eroded_ke=   0.0000E+00
 x-mom=   0.0000E+00     y-mom=   0.0000E+00     z-mom=   0.0000E+00
 x-rbv=   0.0000E+00     y-rbv=   0.0000E+00     z-rbv=   0.0000E+00


 time =   6.6405E+01
 mat.#=    1             inten=   2.9895E+00     kinen=   0.0000E+00     eroded_ie=   0.0000E+00     eroded_ke=   0.0000E+00
 x-mom=   0.0000E+00     y-mom=   0.0000E+00     z-mom=   0.0000E+00
 x-rbv=   0.0000E+00     y-rbv=   0.0000E+00     z-rbv=   0.0000E+00


 time =   6.8720E+01
 mat.#=    1             inten=   3.0789E+00     kinen=   0.0000E+00     eroded_ie=   0.0000E+00     eroded_ke=   0.0000E+00
 x-mom=   0.0000E+00     y-mom=   0.0000E+00     z-mom=   0.0000E+00
 x-rbv=   0.0000E+00     y-rbv=   0.0000E+00     z-rbv=   0.0000E+00


 time =   7.1036E+01
 mat.#=    1             inten=   3.1708E+00     kinen=   0.0000E+00     eroded_ie=   0.0000E+00     eroded_ke=   0.0000E+00
 x-mom=   0.0000E+00     y-mom=   0.0000E+00     z-mom=   0.0000E+00
 x-rbv=   0.0000E+00     y-rbv=   0.0000E+00     z-rbv=   0.0000E+00


 time =   7.3351E+01
 mat.#=    1             inten=   3.2540E+00     kinen=   0.0000E+00     eroded_ie=   0.0000E+00     eroded_ke=   0.0000E+00
 x-mom=   0.0000E+00     y-mom=   0.0000E+00     z-mom=   0.0000E+00
 x-rbv=   0.0000E+00     y-rbv=   0.0000E+00     z-rbv=   0.0000E+00


 time =   7.5666E+01
 mat.#=    1             inten=   3.3385E+00     kinen=   0.0000E+00     eroded_ie=   0.0000E+00     eroded_ke=   0.0000E+00
 x-mom=   0.0000E+00     y-mom=   0.0000E+00     z-mom=   0.0000E+00
 x-rbv=   0.0000E+00     y-rbv=   0.0000E+00     z-rbv=   0.0000E+00


 time =   7.7981E+01
 mat.#=    1             inten=   3.4294E+00     kinen=   0.0000E+00     eroded_ie=   0.0000E+00     eroded_ke=   0.0000E+00
 x-mom=   0.0000E+00     y-mom=   0.0000E+00     z-mom=   0.0000E+00
 x-rbv=   0.0000E+00     y-rbv=   0.0000E+00     z-rbv=   0.0000E+00


 time =   8.0297E+01
 mat.#=    1             inten=   3.5182E+00     kinen=   0.0000E+00     eroded_ie=   0.0000E+00     eroded_ke=   0.0000E+00
 x-mom=   0.0000E+00     y-mom=   0.0000E+00     z-mom=   0.0000E+00
 x-rbv=   0.0000E+00     y-rbv=   0.0000E+00     z-rbv=   0.0000E+00


 time =   8.2612E+01
 mat.#=    1             inten=   3.6035E+00     kinen=   0.0000E+00     eroded_ie=   0.0000E+00     eroded_ke=   0.0000E+00
 x-mom=   0.0000E+00     y-mom=   0.0000E+00     z-mom=   0.0000E+00
 x-rbv=   0.0000E+00     y-rbv=   0.0000E+00     z-rbv=   0.0000E+00


 time =   8.4927E+01
 mat.#=    1             inten=   3.6844E+00     kinen=   0.0000E+00     eroded_ie=   0.0000E+00     eroded_ke=   0.0000E+00
 x-mom=   0.0000E+00     y-mom=   0.0000E+00     z-mom=   0.0000E+00
 x-rbv=   0.0000E+00     y-rbv=   0.0000E+00     z-rbv=   0.0000E+00


 time =   8.7243E+01
 mat.#=    1             inten=   3.7600E+00     kinen=   0.0000E+00     eroded_ie=   0.0000E+00     eroded_ke=   0.0000E+00
 x-mom=   0.0000E+00     y-mom=   0.0000E+00     z-mom=   0.0000E+00
 x-rbv=   0.0000E+00     y-rbv=   0.0000E+00     z-rbv=   0.0000E+00


 time =   8.9558E+01
 mat.#=    1             inten=   3.8467E+00     kinen=   0.0000E+00     eroded_ie=   0.0000E+00     eroded_ke=   0.0000E+00
 x-mom=   0.0000E+00     y-mom=   0.0000E+00     z-mom=   0.0000E+00
 x-rbv=   0.0000E+00     y-rbv=   0.0000E+00     z-rbv=   0.0000E+00


 time =   9.3227E+01
 mat.#=    1             inten=   4.0175E+00     kinen=   0.0000E+00     eroded_ie=   0.0000E+00     eroded_ke=   0.0000E+00
 x-mom=   0.0000E+00     y-mom=   0.0000E+00     z-mom=   0.0000E+00
 x-rbv=   0.0000E+00     y-rbv=   0.0000E+00     z-rbv=   0.0000E+00


 time =   9.6897E+01
 mat.#=    1             inten=   4.1393E+00     kinen=   0.0000E+00     eroded_ie=   0.0000E+00     eroded_ke=   0.0000E+00
 x-mom=   0.0000E+00     y-mom=   0.0000E+00     z-mom=   0.0000E+00
 x-rbv=   0.0000E+00     y-rbv=   0.0000E+00     z-rbv=   0.0000E+00


 time =   1.0000E+02
 mat.#=    1             inten=   4.2457E+00     kinen=   0.0000E+00     eroded_ie=   0.0000E+00     eroded_ke=   0.0000E+00
 x-mom=   0.0000E+00     y-mom=   0.0000E+00     z-mom=   0.0000E+00
 x-rbv=   0.0000E+00     y-rbv=   0.0000E+00     z-rbv=   0.0000E+00
