 LS-DYNA keyword deck by LS-PrePost                                      
                    ls-dyna smp d R14 R14.1.1s_1_ef50e1 date 06/16/2024

 n o d a l   f o r c e/e n e r g y    o u t p u t  t=   0.00000E+00

 velocity boundary condition forces/rigid body moments 

 nd#     167  xforce=   0.0000E+00   yforce=   0.0000E+00  zforce=   0.0000E+00   energy=   0.0000E+00   setid =     167 xmoment=   0.0000E+00 ymoment=   0.0000E+00 zmoment=   0.0000E+00
 nd#     168  xforce=   0.0000E+00   yforce=   0.0000E+00  zforce=   0.0000E+00   energy=   0.0000E+00   setid =     168 xmoment=   0.0000E+00 ymoment=   0.0000E+00 zmoment=   0.0000E+00
 nd#     169  xforce=   0.0000E+00   yforce=   0.0000E+00  zforce=   0.0000E+00   energy=   0.0000E+00   setid =     169 xmoment=   0.0000E+00 ymoment=   0.0000E+00 zmoment=   0.0000E+00
 nd#     170  xforce=   0.0000E+00   yforce=   0.0000E+00  zforce=   0.0000E+00   energy=   0.0000E+00   setid =     170 xmoment=   0.0000E+00 ymoment=   0.0000E+00 zmoment=   0.0000E+00
 nd#     197  xforce=   0.0000E+00   yforce=   0.0000E+00  zforce=   0.0000E+00   energy=   0.0000E+00   setid =     197 xmoment=   0.0000E+00 ymoment=   0.0000E+00 zmoment=   0.0000E+00
 nd#     198  xforce=   0.0000E+00   yforce=   0.0000E+00  zforce=   0.0000E+00   energy=   0.0000E+00   setid =     198 xmoment=   0.0000E+00 ymoment=   0.0000E+00 zmoment=   0.0000E+00
 nd#     225  xforce=   0.0000E+00   yforce=   0.0000E+00  zforce=   0.0000E+00   energy=   0.0000E+00   setid =     225 xmoment=   0.0000E+00 ymoment=   0.0000E+00 zmoment=   0.0000E+00
 nd#     226  xforce=   0.0000E+00   yforce=   0.0000E+00  zforce=   0.0000E+00   energy=   0.0000E+00   setid =     226 xmoment=   0.0000E+00 ymoment=   0.0000E+00 zmoment=   0.0000E+00
 nd#     279  xforce=   0.0000E+00   yforce=   0.0000E+00  zforce=   0.0000E+00   energy=   0.0000E+00   setid =     279 xmoment=   0.0000E+00 ymoment=   0.0000E+00 zmoment=   0.0000E+00
 nd#     280  xforce=   0.0000E+00   yforce=   0.0000E+00  zforce=   0.0000E+00   energy=   0.0000E+00   setid =     280 xmoment=   0.0000E+00 ymoment=   0.0000E+00 zmoment=   0.0000E+00
 nd#     281  xforce=   0.0000E+00   yforce=   0.0000E+00  zforce=   0.0000E+00   energy=   0.0000E+00   setid =     281 xmoment=   0.0000E+00 ymoment=   0.0000E+00 zmoment=   0.0000E+00
 nd#     282  xforce=   0.0000E+00   yforce=   0.0000E+00  zforce=   0.0000E+00   energy=   0.0000E+00   setid =     282 xmoment=   0.0000E+00 ymoment=   0.0000E+00 zmoment=   0.0000E+00
 nd#     296  xforce=   0.0000E+00   yforce=   0.0000E+00  zforce=   0.0000E+00   energy=   0.0000E+00   setid =     296 xmoment=   0.0000E+00 ymoment=   0.0000E+00 zmoment=   0.0000E+00
 nd#     323  xforce=   0.0000E+00   yforce=   0.0000E+00  zforce=   0.0000E+00   energy=   0.0000E+00   setid =     323 xmoment=   0.0000E+00 ymoment=   0.0000E+00 zmoment=   0.0000E+00
 nd#     324  xforce=   0.0000E+00   yforce=   0.0000E+00  zforce=   0.0000E+00   energy=   0.0000E+00   setid =     324 xmoment=   0.0000E+00 ymoment=   0.0000E+00 zmoment=   0.0000E+00
 nd#     338  xforce=   0.0000E+00   yforce=   0.0000E+00  zforce=   0.0000E+00   energy=   0.0000E+00   setid =     338 xmoment=   0.0000E+00 ymoment=   0.0000E+00 zmoment=   0.0000E+00
 nd#     352  xforce=   0.0000E+00   yforce=   0.0000E+00  zforce=   0.0000E+00   energy=   0.0000E+00   setid =     352 xmoment=   0.0000E+00 ymoment=   0.0000E+00 zmoment=   0.0000E+00
 nd#     366  xforce=   0.0000E+00   yforce=   0.0000E+00  zforce=   0.0000E+00   energy=   0.0000E+00   setid =     366 xmoment=   0.0000E+00 ymoment=   0.0000E+00 zmoment=   0.0000E+00
 nd#     380  xforce=   0.0000E+00   yforce=   0.0000E+00  zforce=   0.0000E+00   energy=   0.0000E+00   setid =     380 xmoment=   0.0000E+00 ymoment=   0.0000E+00 zmoment=   0.0000E+00
 nd#     608  xforce=   0.0000E+00   yforce=   0.0000E+00  zforce=   0.0000E+00   energy=   0.0000E+00   setid =     608 xmoment=   0.0000E+00 ymoment=   0.0000E+00 zmoment=   0.0000E+00
 nd#     609  xforce=   0.0000E+00   yforce=   0.0000E+00  zforce=   0.0000E+00   energy=   0.0000E+00   setid =     609 xmoment=   0.0000E+00 ymoment=   0.0000E+00 zmoment=   0.0000E+00
 nd#     610  xforce=   0.0000E+00   yforce=   0.0000E+00  zforce=   0.0000E+00   energy=   0.0000E+00   setid =     610 xmoment=   0.0000E+00 ymoment=   0.0000E+00 zmoment=   0.0000E+00
 nd#     611  xforce=   0.0000E+00   yforce=   0.0000E+00  zforce=   0.0000E+00   energy=   0.0000E+00   setid =     611 xmoment=   0.0000E+00 ymoment=   0.0000E+00 zmoment=   0.0000E+00
 nd#     804  xforce=   0.0000E+00   yforce=   0.0000E+00  zforce=   0.0000E+00   energy=   0.0000E+00   setid =     804 xmoment=   0.0000E+00 ymoment=   0.0000E+00 zmoment=   0.0000E+00
 nd#     806  xforce=   0.0000E+00   yforce=   0.0000E+00  zforce=   0.0000E+00   energy=   0.0000E+00   setid =     806 xmoment=   0.0000E+00 ymoment=   0.0000E+00 zmoment=   0.0000E+00
 nd#     808  xforce=   0.0000E+00   yforce=   0.0000E+00  zforce=   0.0000E+00   energy=   0.0000E+00   setid =     808 xmoment=   0.0000E+00 ymoment=   0.0000E+00 zmoment=   0.0000E+00
 nd#     810  xforce=   0.0000E+00   yforce=   0.0000E+00  zforce=   0.0000E+00   energy=   0.0000E+00   setid =     810 xmoment=   0.0000E+00 ymoment=   0.0000E+00 zmoment=   0.0000E+00
 nd#     852  xforce=   0.0000E+00   yforce=   0.0000E+00  zforce=   0.0000E+00   energy=   0.0000E+00   setid =     852 xmoment=   0.0000E+00 ymoment=   0.0000E+00 zmoment=   0.0000E+00
 nd#     854  xforce=   0.0000E+00   yforce=   0.0000E+00  zforce=   0.0000E+00   energy=   0.0000E+00   setid =     854 xmoment=   0.0000E+00 ymoment=   0.0000E+00 zmoment=   0.0000E+00
 nd#     856  xforce=   0.0000E+00   yforce=   0.0000E+00  zforce=   0.0000E+00   energy=   0.0000E+00   setid =     856 xmoment=   0.0000E+00 ymoment=   0.0000E+00 zmoment=   0.0000E+00
 nd#     858  xforce=   0.0000E+00   yforce=   0.0000E+00  zforce=   0.0000E+00   energy=   0.0000E+00   setid =     858 xmoment=   0.0000E+00 ymoment=   0.0000E+00 zmoment=   0.0000E+00
 nd#     864  xforce=   0.0000E+00   yforce=   0.0000E+00  zforce=   0.0000E+00   energy=   0.0000E+00   setid =     864 xmoment=   0.0000E+00 ymoment=   0.0000E+00 zmoment=   0.0000E+00
 nd#     866  xforce=   0.0000E+00   yforce=   0.0000E+00  zforce=   0.0000E+00   energy=   0.0000E+00   setid =     866 xmoment=   0.0000E+00 ymoment=   0.0000E+00 zmoment=   0.0000E+00
 nd#     868  xforce=   0.0000E+00   yforce=   0.0000E+00  zforce=   0.0000E+00   energy=   0.0000E+00   setid =     868 xmoment=   0.0000E+00 ymoment=   0.0000E+00 zmoment=   0.0000E+00
 nd#     870  xforce=   0.0000E+00   yforce=   0.0000E+00  zforce=   0.0000E+00   energy=   0.0000E+00   setid =     870 xmoment=   0.0000E+00 ymoment=   0.0000E+00 zmoment=   0.0000E+00
 nd#     880  xforce=   0.0000E+00   yforce=   0.0000E+00  zforce=   0.0000E+00   energy=   0.0000E+00   setid =     880 xmoment=   0.0000E+00 ymoment=   0.0000E+00 zmoment=   0.0000E+00
 nd#     882  xforce=   0.0000E+00   yforce=   0.0000E+00  zforce=   0.0000E+00   energy=   0.0000E+00   setid =     882 xmoment=   0.0000E+00 ymoment=   0.0000E+00 zmoment=   0.0000E+00
 nd#     884  xforce=   0.0000E+00   yforce=   0.0000E+00  zforce=   0.0000E+00   energy=   0.0000E+00   setid =     884 xmoment=   0.0000E+00 ymoment=   0.0000E+00 zmoment=   0.0000E+00
 nd#     886  xforce=   0.0000E+00   yforce=   0.0000E+00  zforce=   0.0000E+00   energy=   0.0000E+00   setid =     886 xmoment=   0.0000E+00 ymoment=   0.0000E+00 zmoment=   0.0000E+00
              xtotal=   0.0000E+00   ytotal=   0.0000E+00  ztotal=   0.0000E+00   etotal=   0.0000E+00

 n o d a l   f o r c e/e n e r g y    o u t p u t  t=   1.29245E+00

 velocity boundary condition forces/rigid body moments 

 nd#     167  xforce=   0.0000E+00   yforce=   0.0000E+00  zforce=  -3.8815E+01   energy=   5.1453E-04   setid =     167 xmoment=   0.0000E+00 ymoment=   0.0000E+00 zmoment=   0.0000E+00
 nd#     168  xforce=   0.0000E+00   yforce=   0.0000E+00  zforce=  -1.4942E+01   energy=   2.0939E-04   setid =     168 xmoment=   0.0000E+00 ymoment=   0.0000E+00 zmoment=   0.0000E+00
 nd#     169  xforce=   0.0000E+00   yforce=   0.0000E+00  zforce=  -3.7576E+01   energy=   4.9739E-04   setid =     169 xmoment=   0.0000E+00 ymoment=   0.0000E+00 zmoment=   0.0000E+00
 nd#     170  xforce=   0.0000E+00   yforce=   0.0000E+00  zforce=  -4.9799E+01   energy=   6.4795E-04   setid =     170 xmoment=   0.0000E+00 ymoment=   0.0000E+00 zmoment=   0.0000E+00
 nd#     197  xforce=   0.0000E+00   yforce=   0.0000E+00  zforce=  -2.2069E+01   energy=   3.1109E-04   setid =     197 xmoment=   0.0000E+00 ymoment=   0.0000E+00 zmoment=   0.0000E+00
 nd#     198  xforce=   0.0000E+00   yforce=   0.0000E+00  zforce=  -4.4731E+01   energy=   5.8478E-04   setid =     198 xmoment=   0.0000E+00 ymoment=   0.0000E+00 zmoment=   0.0000E+00
 nd#     225  xforce=   0.0000E+00   yforce=   0.0000E+00  zforce=  -2.9557E+01   energy=   3.6263E-04   setid =     225 xmoment=   0.0000E+00 ymoment=   0.0000E+00 zmoment=   0.0000E+00
 nd#     226  xforce=   0.0000E+00   yforce=   0.0000E+00  zforce=  -3.0925E+01   energy=   3.8591E-04   setid =     226 xmoment=   0.0000E+00 ymoment=   0.0000E+00 zmoment=   0.0000E+00
 nd#     279  xforce=   0.0000E+00   yforce=   0.0000E+00  zforce=  -2.5146E+01   energy=   3.0863E-04   setid =     279 xmoment=   0.0000E+00 ymoment=   0.0000E+00 zmoment=   0.0000E+00
 nd#     280  xforce=   0.0000E+00   yforce=   0.0000E+00  zforce=  -3.7538E+01   energy=   4.9268E-04   setid =     280 xmoment=   0.0000E+00 ymoment=   0.0000E+00 zmoment=   0.0000E+00
 nd#     281  xforce=   0.0000E+00   yforce=   0.0000E+00  zforce=  -3.0317E+01   energy=   3.7375E-04   setid =     281 xmoment=   0.0000E+00 ymoment=   0.0000E+00 zmoment=   0.0000E+00
 nd#     282  xforce=   0.0000E+00   yforce=   0.0000E+00  zforce=  -1.8937E+01   energy=   2.2567E-04   setid =     282 xmoment=   0.0000E+00 ymoment=   0.0000E+00 zmoment=   0.0000E+00
 nd#     296  xforce=   0.0000E+00   yforce=   0.0000E+00  zforce=  -2.2448E+01   energy=   2.8170E-04   setid =     296 xmoment=   0.0000E+00 ymoment=   0.0000E+00 zmoment=   0.0000E+00
 nd#     323  xforce=   0.0000E+00   yforce=   0.0000E+00  zforce=  -7.1772E+01   energy=   9.3026E-04   setid =     323 xmoment=   0.0000E+00 ymoment=   0.0000E+00 zmoment=   0.0000E+00
 nd#     324  xforce=   0.0000E+00   yforce=   0.0000E+00  zforce=  -7.0266E+01   energy=   9.1431E-04   setid =     324 xmoment=   0.0000E+00 ymoment=   0.0000E+00 zmoment=   0.0000E+00
 nd#     338  xforce=   0.0000E+00   yforce=   0.0000E+00  zforce=  -8.1972E+01   energy=   1.0526E-03   setid =     338 xmoment=   0.0000E+00 ymoment=   0.0000E+00 zmoment=   0.0000E+00
 nd#     352  xforce=   0.0000E+00   yforce=   0.0000E+00  zforce=  -3.0727E+01   energy=   3.8630E-04   setid =     352 xmoment=   0.0000E+00 ymoment=   0.0000E+00 zmoment=   0.0000E+00
 nd#     366  xforce=   0.0000E+00   yforce=   0.0000E+00  zforce=  -4.5224E+01   energy=   5.6998E-04   setid =     366 xmoment=   0.0000E+00 ymoment=   0.0000E+00 zmoment=   0.0000E+00
 nd#     380  xforce=   0.0000E+00   yforce=   0.0000E+00  zforce=  -4.0590E+01   energy=   5.1974E-04   setid =     380 xmoment=   0.0000E+00 ymoment=   0.0000E+00 zmoment=   0.0000E+00
 nd#     608  xforce=   0.0000E+00   yforce=   0.0000E+00  zforce=  -1.2242E+01   energy=   1.6843E-04   setid =     608 xmoment=   0.0000E+00 ymoment=   0.0000E+00 zmoment=   0.0000E+00
 nd#     609  xforce=   0.0000E+00   yforce=   0.0000E+00  zforce=  -6.2547E+01   energy=   8.1925E-04   setid =     609 xmoment=   0.0000E+00 ymoment=   0.0000E+00 zmoment=   0.0000E+00
 nd#     610  xforce=   0.0000E+00   yforce=   0.0000E+00  zforce=  -6.0586E+01   energy=   7.8413E-04   setid =     610 xmoment=   0.0000E+00 ymoment=   0.0000E+00 zmoment=   0.0000E+00
 nd#     611  xforce=   0.0000E+00   yforce=   0.0000E+00  zforce=  -5.4160E+01   energy=   6.9226E-04   setid =     611 xmoment=   0.0000E+00 ymoment=   0.0000E+00 zmoment=   0.0000E+00
 nd#     804  xforce=   0.0000E+00   yforce=   0.0000E+00  zforce=  -1.0421E+02   energy=   1.3473E-03   setid =     804 xmoment=   0.0000E+00 ymoment=   0.0000E+00 zmoment=   0.0000E+00
 nd#     806  xforce=   0.0000E+00   yforce=   0.0000E+00  zforce=  -9.8955E+01   energy=   1.2838E-03   setid =     806 xmoment=   0.0000E+00 ymoment=   0.0000E+00 zmoment=   0.0000E+00
 nd#     808  xforce=   0.0000E+00   yforce=   0.0000E+00  zforce=  -9.8995E+01   energy=   1.2840E-03   setid =     808 xmoment=   0.0000E+00 ymoment=   0.0000E+00 zmoment=   0.0000E+00
 nd#     810  xforce=   0.0000E+00   yforce=   0.0000E+00  zforce=  -5.3045E+01   energy=   6.8248E-04   setid =     810 xmoment=   0.0000E+00 ymoment=   0.0000E+00 zmoment=   0.0000E+00
 nd#     852  xforce=   0.0000E+00   yforce=   0.0000E+00  zforce=  -1.1997E+02   energy=   1.5611E-03   setid =     852 xmoment=   0.0000E+00 ymoment=   0.0000E+00 zmoment=   0.0000E+00
 nd#     854  xforce=   0.0000E+00   yforce=   0.0000E+00  zforce=  -1.1871E+02   energy=   1.5434E-03   setid =     854 xmoment=   0.0000E+00 ymoment=   0.0000E+00 zmoment=   0.0000E+00
 nd#     856  xforce=   0.0000E+00   yforce=   0.0000E+00  zforce=  -1.1895E+02   energy=   1.5439E-03   setid =     856 xmoment=   0.0000E+00 ymoment=   0.0000E+00 zmoment=   0.0000E+00
 nd#     858  xforce=   0.0000E+00   yforce=   0.0000E+00  zforce=  -6.1485E+01   energy=   7.9529E-04   setid =     858 xmoment=   0.0000E+00 ymoment=   0.0000E+00 zmoment=   0.0000E+00
 nd#     864  xforce=   0.0000E+00   yforce=   0.0000E+00  zforce=  -1.2759E+02   energy=   1.6714E-03   setid =     864 xmoment=   0.0000E+00 ymoment=   0.0000E+00 zmoment=   0.0000E+00
 nd#     866  xforce=   0.0000E+00   yforce=   0.0000E+00  zforce=  -1.3087E+02   energy=   1.7051E-03   setid =     866 xmoment=   0.0000E+00 ymoment=   0.0000E+00 zmoment=   0.0000E+00
 nd#     868  xforce=   0.0000E+00   yforce=   0.0000E+00  zforce=  -1.2844E+02   energy=   1.6751E-03   setid =     868 xmoment=   0.0000E+00 ymoment=   0.0000E+00 zmoment=   0.0000E+00
 nd#     870  xforce=   0.0000E+00   yforce=   0.0000E+00  zforce=  -6.3672E+01   energy=   8.3303E-04   setid =     870 xmoment=   0.0000E+00 ymoment=   0.0000E+00 zmoment=   0.0000E+00
 nd#     880  xforce=   0.0000E+00   yforce=   0.0000E+00  zforce=  -2.2734E+01   energy=   3.1984E-04   setid =     880 xmoment=   0.0000E+00 ymoment=   0.0000E+00 zmoment=   0.0000E+00
 nd#     882  xforce=   0.0000E+00   yforce=   0.0000E+00  zforce=  -1.8984E+01   energy=   2.7671E-04   setid =     882 xmoment=   0.0000E+00 ymoment=   0.0000E+00 zmoment=   0.0000E+00
 nd#     884  xforce=   0.0000E+00   yforce=   0.0000E+00  zforce=  -1.3612E+01   energy=   2.1757E-04   setid =     884 xmoment=   0.0000E+00 ymoment=   0.0000E+00 zmoment=   0.0000E+00
 nd#     886  xforce=   0.0000E+00   yforce=   0.0000E+00  zforce=  -5.6465E+00   energy=   9.8248E-05   setid =     886 xmoment=   0.0000E+00 ymoment=   0.0000E+00 zmoment=   0.0000E+00
              xtotal=   0.0000E+00   ytotal=   0.0000E+00  ztotal=  -2.2188E+03   etotal=   2.8872E-02

 n o d a l   f o r c e/e n e r g y    o u t p u t  t=   2.54839E+00

 velocity boundary condition forces/rigid body moments 

 nd#     167  xforce=   0.0000E+00   yforce=   0.0000E+00  zforce=  -1.6289E+02   energy=   3.0479E-03   setid =     167 xmoment=   0.0000E+00 ymoment=   0.0000E+00 zmoment=   0.0000E+00
 nd#     168  xforce=   0.0000E+00   yforce=   0.0000E+00  zforce=  -5.6475E+01   energy=   1.1063E-03   setid =     168 xmoment=   0.0000E+00 ymoment=   0.0000E+00 zmoment=   0.0000E+00
 nd#     169  xforce=   0.0000E+00   yforce=   0.0000E+00  zforce=   3.0771E+02   energy=  -2.8953E-03   setid =     169 xmoment=   0.0000E+00 ymoment=   0.0000E+00 zmoment=   0.0000E+00
 nd#     170  xforce=   0.0000E+00   yforce=   0.0000E+00  zforce=   3.7826E+01   energy=   7.9833E-04   setid =     170 xmoment=   0.0000E+00 ymoment=   0.0000E+00 zmoment=   0.0000E+00
 nd#     197  xforce=   0.0000E+00   yforce=   0.0000E+00  zforce=  -4.8578E+01   energy=   1.1984E-03   setid =     197 xmoment=   0.0000E+00 ymoment=   0.0000E+00 zmoment=   0.0000E+00
 nd#     198  xforce=   0.0000E+00   yforce=   0.0000E+00  zforce=  -7.3388E+00   energy=   1.2388E-03   setid =     198 xmoment=   0.0000E+00 ymoment=   0.0000E+00 zmoment=   0.0000E+00
 nd#     225  xforce=   0.0000E+00   yforce=   0.0000E+00  zforce=  -1.3875E+02   energy=   2.4765E-03   setid =     225 xmoment=   0.0000E+00 ymoment=   0.0000E+00 zmoment=   0.0000E+00
 nd#     226  xforce=   0.0000E+00   yforce=   0.0000E+00  zforce=  -2.1581E+02   energy=   3.4848E-03   setid =     226 xmoment=   0.0000E+00 ymoment=   0.0000E+00 zmoment=   0.0000E+00
 nd#     279  xforce=   0.0000E+00   yforce=   0.0000E+00  zforce=  -2.5387E+02   energy=   3.8130E-03   setid =     279 xmoment=   0.0000E+00 ymoment=   0.0000E+00 zmoment=   0.0000E+00
 nd#     280  xforce=   0.0000E+00   yforce=   0.0000E+00  zforce=   1.5118E+02   energy=  -9.3460E-04   setid =     280 xmoment=   0.0000E+00 ymoment=   0.0000E+00 zmoment=   0.0000E+00
 nd#     281  xforce=   0.0000E+00   yforce=   0.0000E+00  zforce=   8.0569E+00   energy=   6.5333E-04   setid =     281 xmoment=   0.0000E+00 ymoment=   0.0000E+00 zmoment=   0.0000E+00
 nd#     282  xforce=   0.0000E+00   yforce=   0.0000E+00  zforce=  -1.6362E+02   energy=   2.5184E-03   setid =     282 xmoment=   0.0000E+00 ymoment=   0.0000E+00 zmoment=   0.0000E+00
 nd#     296  xforce=   0.0000E+00   yforce=   0.0000E+00  zforce=  -1.3036E+02   energy=   2.2008E-03   setid =     296 xmoment=   0.0000E+00 ymoment=   0.0000E+00 zmoment=   0.0000E+00
 nd#     323  xforce=   0.0000E+00   yforce=   0.0000E+00  zforce=  -1.6838E+02   energy=   3.9464E-03   setid =     323 xmoment=   0.0000E+00 ymoment=   0.0000E+00 zmoment=   0.0000E+00
 nd#     324  xforce=   0.0000E+00   yforce=   0.0000E+00  zforce=  -5.6672E+01   energy=   2.5086E-03   setid =     324 xmoment=   0.0000E+00 ymoment=   0.0000E+00 zmoment=   0.0000E+00
 nd#     338  xforce=   0.0000E+00   yforce=   0.0000E+00  zforce=  -1.5700E+01   energy=   2.2793E-03   setid =     338 xmoment=   0.0000E+00 ymoment=   0.0000E+00 zmoment=   0.0000E+00
 nd#     352  xforce=   0.0000E+00   yforce=   0.0000E+00  zforce=  -9.3456E+01   energy=   1.9460E-03   setid =     352 xmoment=   0.0000E+00 ymoment=   0.0000E+00 zmoment=   0.0000E+00
 nd#     366  xforce=   0.0000E+00   yforce=   0.0000E+00  zforce=  -1.5305E+02   energy=   3.0602E-03   setid =     366 xmoment=   0.0000E+00 ymoment=   0.0000E+00 zmoment=   0.0000E+00
 nd#     380  xforce=   0.0000E+00   yforce=   0.0000E+00  zforce=  -8.5461E+01   energy=   2.1029E-03   setid =     380 xmoment=   0.0000E+00 ymoment=   0.0000E+00 zmoment=   0.0000E+00
 nd#     608  xforce=   0.0000E+00   yforce=   0.0000E+00  zforce=   9.9089E+00   energy=   1.9774E-04   setid =     608 xmoment=   0.0000E+00 ymoment=   0.0000E+00 zmoment=   0.0000E+00
 nd#     609  xforce=   0.0000E+00   yforce=   0.0000E+00  zforce=  -7.1622E+01   energy=   2.5043E-03   setid =     609 xmoment=   0.0000E+00 ymoment=   0.0000E+00 zmoment=   0.0000E+00
 nd#     610  xforce=   0.0000E+00   yforce=   0.0000E+00  zforce=  -1.0023E+02   energy=   2.8039E-03   setid =     610 xmoment=   0.0000E+00 ymoment=   0.0000E+00 zmoment=   0.0000E+00
 nd#     611  xforce=   0.0000E+00   yforce=   0.0000E+00  zforce=  -1.2635E+02   energy=   2.9594E-03   setid =     611 xmoment=   0.0000E+00 ymoment=   0.0000E+00 zmoment=   0.0000E+00
 nd#     804  xforce=   0.0000E+00   yforce=   0.0000E+00  zforce=  -6.0591E+01   energy=   3.4171E-03   setid =     804 xmoment=   0.0000E+00 ymoment=   0.0000E+00 zmoment=   0.0000E+00
 nd#     806  xforce=   0.0000E+00   yforce=   0.0000E+00  zforce=  -1.8086E+02   energy=   4.7981E-03   setid =     806 xmoment=   0.0000E+00 ymoment=   0.0000E+00 zmoment=   0.0000E+00
 nd#     808  xforce=   0.0000E+00   yforce=   0.0000E+00  zforce=  -1.3218E+02   energy=   4.1875E-03   setid =     808 xmoment=   0.0000E+00 ymoment=   0.0000E+00 zmoment=   0.0000E+00
 nd#     810  xforce=   0.0000E+00   yforce=   0.0000E+00  zforce=  -8.5925E+01   energy=   2.4279E-03   setid =     810 xmoment=   0.0000E+00 ymoment=   0.0000E+00 zmoment=   0.0000E+00
 nd#     852  xforce=   0.0000E+00   yforce=   0.0000E+00  zforce=  -8.3574E+01   energy=   4.1176E-03   setid =     852 xmoment=   0.0000E+00 ymoment=   0.0000E+00 zmoment=   0.0000E+00
 nd#     854  xforce=   0.0000E+00   yforce=   0.0000E+00  zforce=  -1.7187E+02   energy=   5.1928E-03   setid =     854 xmoment=   0.0000E+00 ymoment=   0.0000E+00 zmoment=   0.0000E+00
 nd#     856  xforce=   0.0000E+00   yforce=   0.0000E+00  zforce=  -1.7375E+02   energy=   5.2200E-03   setid =     856 xmoment=   0.0000E+00 ymoment=   0.0000E+00 zmoment=   0.0000E+00
 nd#     858  xforce=   0.0000E+00   yforce=   0.0000E+00  zforce=  -6.9414E+01   energy=   2.4393E-03   setid =     858 xmoment=   0.0000E+00 ymoment=   0.0000E+00 zmoment=   0.0000E+00
 nd#     864  xforce=   0.0000E+00   yforce=   0.0000E+00  zforce=  -8.1217E+01   energy=   4.2940E-03   setid =     864 xmoment=   0.0000E+00 ymoment=   0.0000E+00 zmoment=   0.0000E+00
 nd#     866  xforce=   0.0000E+00   yforce=   0.0000E+00  zforce=  -1.6370E+02   energy=   5.4048E-03   setid =     866 xmoment=   0.0000E+00 ymoment=   0.0000E+00 zmoment=   0.0000E+00
 nd#     868  xforce=   0.0000E+00   yforce=   0.0000E+00  zforce=  -1.5891E+02   energy=   5.2841E-03   setid =     868 xmoment=   0.0000E+00 ymoment=   0.0000E+00 zmoment=   0.0000E+00
 nd#     870  xforce=   0.0000E+00   yforce=   0.0000E+00  zforce=  -2.2861E+01   energy=   1.9198E-03   setid =     870 xmoment=   0.0000E+00 ymoment=   0.0000E+00 zmoment=   0.0000E+00
 nd#     880  xforce=   0.0000E+00   yforce=   0.0000E+00  zforce=   5.9245E+01   energy=  -1.3872E-04   setid =     880 xmoment=   0.0000E+00 ymoment=   0.0000E+00 zmoment=   0.0000E+00
 nd#     882  xforce=   0.0000E+00   yforce=   0.0000E+00  zforce=   4.4181E+01   energy=  -3.9754E-05   setid =     882 xmoment=   0.0000E+00 ymoment=   0.0000E+00 zmoment=   0.0000E+00
 nd#     884  xforce=   0.0000E+00   yforce=   0.0000E+00  zforce=   8.9443E+01   energy=  -7.3482E-04   setid =     884 xmoment=   0.0000E+00 ymoment=   0.0000E+00 zmoment=   0.0000E+00
 nd#     886  xforce=   0.0000E+00   yforce=   0.0000E+00  zforce=   7.2739E+01   energy=  -7.4440E-04   setid =     886 xmoment=   0.0000E+00 ymoment=   0.0000E+00 zmoment=   0.0000E+00
              xtotal=   0.0000E+00   ytotal=   0.0000E+00  ztotal=  -2.6532E+03   etotal=   9.0061E-02

 n o d a l   f o r c e/e n e r g y    o u t p u t  t=   3.80433E+00

 velocity boundary condition forces/rigid body moments 

 nd#     167  xforce=   0.0000E+00   yforce=   0.0000E+00  zforce=  -1.4596E+02   energy=   6.9268E-03   setid =     167 xmoment=   0.0000E+00 ymoment=   0.0000E+00 zmoment=   0.0000E+00
 nd#     168  xforce=   0.0000E+00   yforce=   0.0000E+00  zforce=  -4.3313E+01   energy=   2.3596E-03   setid =     168 xmoment=   0.0000E+00 ymoment=   0.0000E+00 zmoment=   0.0000E+00
 nd#     169  xforce=   0.0000E+00   yforce=   0.0000E+00  zforce=   2.6165E+02   energy=  -1.0046E-02   setid =     169 xmoment=   0.0000E+00 ymoment=   0.0000E+00 zmoment=   0.0000E+00
 nd#     170  xforce=   0.0000E+00   yforce=   0.0000E+00  zforce=   1.7419E+01   energy=   1.0449E-04   setid =     170 xmoment=   0.0000E+00 ymoment=   0.0000E+00 zmoment=   0.0000E+00
 nd#     197  xforce=   0.0000E+00   yforce=   0.0000E+00  zforce=  -3.1065E+01   energy=   2.1986E-03   setid =     197 xmoment=   0.0000E+00 ymoment=   0.0000E+00 zmoment=   0.0000E+00
 nd#     198  xforce=   0.0000E+00   yforce=   0.0000E+00  zforce=  -1.1452E+01   energy=   1.4748E-03   setid =     198 xmoment=   0.0000E+00 ymoment=   0.0000E+00 zmoment=   0.0000E+00
 nd#     225  xforce=   0.0000E+00   yforce=   0.0000E+00  zforce=  -1.4784E+02   energy=   6.0760E-03   setid =     225 xmoment=   0.0000E+00 ymoment=   0.0000E+00 zmoment=   0.0000E+00
 nd#     226  xforce=   0.0000E+00   yforce=   0.0000E+00  zforce=  -1.9841E+02   energy=   8.6871E-03   setid =     226 xmoment=   0.0000E+00 ymoment=   0.0000E+00 zmoment=   0.0000E+00
 nd#     279  xforce=   0.0000E+00   yforce=   0.0000E+00  zforce=  -2.3768E+02   energy=   9.9866E-03   setid =     279 xmoment=   0.0000E+00 ymoment=   0.0000E+00 zmoment=   0.0000E+00
 nd#     280  xforce=   0.0000E+00   yforce=   0.0000E+00  zforce=   1.1214E+02   energy=  -4.2418E-03   setid =     280 xmoment=   0.0000E+00 ymoment=   0.0000E+00 zmoment=   0.0000E+00
 nd#     281  xforce=   0.0000E+00   yforce=   0.0000E+00  zforce=  -2.1224E+01   energy=   8.1870E-04   setid =     281 xmoment=   0.0000E+00 ymoment=   0.0000E+00 zmoment=   0.0000E+00
 nd#     282  xforce=   0.0000E+00   yforce=   0.0000E+00  zforce=  -1.6134E+02   energy=   6.5997E-03   setid =     282 xmoment=   0.0000E+00 ymoment=   0.0000E+00 zmoment=   0.0000E+00
 nd#     296  xforce=   0.0000E+00   yforce=   0.0000E+00  zforce=  -1.1310E+02   energy=   5.2585E-03   setid =     296 xmoment=   0.0000E+00 ymoment=   0.0000E+00 zmoment=   0.0000E+00
 nd#     323  xforce=   0.0000E+00   yforce=   0.0000E+00  zforce=  -1.5819E+02   energy=   8.0480E-03   setid =     323 xmoment=   0.0000E+00 ymoment=   0.0000E+00 zmoment=   0.0000E+00
 nd#     324  xforce=   0.0000E+00   yforce=   0.0000E+00  zforce=  -7.3836E+01   energy=   4.1477E-03   setid =     324 xmoment=   0.0000E+00 ymoment=   0.0000E+00 zmoment=   0.0000E+00
 nd#     338  xforce=   0.0000E+00   yforce=   0.0000E+00  zforce=  -5.1352E+01   energy=   3.1214E-03   setid =     338 xmoment=   0.0000E+00 ymoment=   0.0000E+00 zmoment=   0.0000E+00
 nd#     352  xforce=   0.0000E+00   yforce=   0.0000E+00  zforce=  -8.9812E+01   energy=   4.2477E-03   setid =     352 xmoment=   0.0000E+00 ymoment=   0.0000E+00 zmoment=   0.0000E+00
 nd#     366  xforce=   0.0000E+00   yforce=   0.0000E+00  zforce=  -1.4890E+02   energy=   6.8526E-03   setid =     366 xmoment=   0.0000E+00 ymoment=   0.0000E+00 zmoment=   0.0000E+00
 nd#     380  xforce=   0.0000E+00   yforce=   0.0000E+00  zforce=  -8.5637E+01   energy=   4.2518E-03   setid =     380 xmoment=   0.0000E+00 ymoment=   0.0000E+00 zmoment=   0.0000E+00
 nd#     608  xforce=   0.0000E+00   yforce=   0.0000E+00  zforce=   8.7271E+00   energy=  -3.6321E-05   setid =     608 xmoment=   0.0000E+00 ymoment=   0.0000E+00 zmoment=   0.0000E+00
 nd#     609  xforce=   0.0000E+00   yforce=   0.0000E+00  zforce=  -7.5154E+01   energy=   4.3478E-03   setid =     609 xmoment=   0.0000E+00 ymoment=   0.0000E+00 zmoment=   0.0000E+00
 nd#     610  xforce=   0.0000E+00   yforce=   0.0000E+00  zforce=  -1.0287E+02   energy=   5.3549E-03   setid =     610 xmoment=   0.0000E+00 ymoment=   0.0000E+00 zmoment=   0.0000E+00
 nd#     611  xforce=   0.0000E+00   yforce=   0.0000E+00  zforce=  -1.2624E+02   energy=   6.1317E-03   setid =     611 xmoment=   0.0000E+00 ymoment=   0.0000E+00 zmoment=   0.0000E+00
 nd#     804  xforce=   0.0000E+00   yforce=   0.0000E+00  zforce=  -8.9188E+01   energy=   5.2982E-03   setid =     804 xmoment=   0.0000E+00 ymoment=   0.0000E+00 zmoment=   0.0000E+00
 nd#     806  xforce=   0.0000E+00   yforce=   0.0000E+00  zforce=  -1.7806E+02   energy=   9.3058E-03   setid =     806 xmoment=   0.0000E+00 ymoment=   0.0000E+00 zmoment=   0.0000E+00
 nd#     808  xforce=   0.0000E+00   yforce=   0.0000E+00  zforce=  -1.4596E+02   energy=   7.6808E-03   setid =     808 xmoment=   0.0000E+00 ymoment=   0.0000E+00 zmoment=   0.0000E+00
 nd#     810  xforce=   0.0000E+00   yforce=   0.0000E+00  zforce=  -9.0045E+01   energy=   4.6379E-03   setid =     810 xmoment=   0.0000E+00 ymoment=   0.0000E+00 zmoment=   0.0000E+00
 nd#     852  xforce=   0.0000E+00   yforce=   0.0000E+00  zforce=  -1.0834E+02   energy=   6.5280E-03   setid =     852 xmoment=   0.0000E+00 ymoment=   0.0000E+00 zmoment=   0.0000E+00
 nd#     854  xforce=   0.0000E+00   yforce=   0.0000E+00  zforce=  -1.7882E+02   energy=   9.5972E-03   setid =     854 xmoment=   0.0000E+00 ymoment=   0.0000E+00 zmoment=   0.0000E+00
 nd#     856  xforce=   0.0000E+00   yforce=   0.0000E+00  zforce=  -1.8436E+02   energy=   9.7176E-03   setid =     856 xmoment=   0.0000E+00 ymoment=   0.0000E+00 zmoment=   0.0000E+00
 nd#     858  xforce=   0.0000E+00   yforce=   0.0000E+00  zforce=  -7.6958E+01   energy=   4.2777E-03   setid =     858 xmoment=   0.0000E+00 ymoment=   0.0000E+00 zmoment=   0.0000E+00
 nd#     864  xforce=   0.0000E+00   yforce=   0.0000E+00  zforce=  -1.0094E+02   energy=   6.5817E-03   setid =     864 xmoment=   0.0000E+00 ymoment=   0.0000E+00 zmoment=   0.0000E+00
 nd#     866  xforce=   0.0000E+00   yforce=   0.0000E+00  zforce=  -1.7494E+02   energy=   9.6580E-03   setid =     866 xmoment=   0.0000E+00 ymoment=   0.0000E+00 zmoment=   0.0000E+00
 nd#     868  xforce=   0.0000E+00   yforce=   0.0000E+00  zforce=  -1.6929E+02   energy=   9.4062E-03   setid =     868 xmoment=   0.0000E+00 ymoment=   0.0000E+00 zmoment=   0.0000E+00
 nd#     870  xforce=   0.0000E+00   yforce=   0.0000E+00  zforce=  -3.1523E+01   energy=   2.6029E-03   setid =     870 xmoment=   0.0000E+00 ymoment=   0.0000E+00 zmoment=   0.0000E+00
 nd#     880  xforce=   0.0000E+00   yforce=   0.0000E+00  zforce=   5.4025E+01   energy=  -1.5613E-03   setid =     880 xmoment=   0.0000E+00 ymoment=   0.0000E+00 zmoment=   0.0000E+00
 nd#     882  xforce=   0.0000E+00   yforce=   0.0000E+00  zforce=   4.6020E+01   energy=  -1.1726E-03   setid =     882 xmoment=   0.0000E+00 ymoment=   0.0000E+00 zmoment=   0.0000E+00
 nd#     884  xforce=   0.0000E+00   yforce=   0.0000E+00  zforce=   9.0167E+01   energy=  -2.9906E-03   setid =     884 xmoment=   0.0000E+00 ymoment=   0.0000E+00 zmoment=   0.0000E+00
 nd#     886  xforce=   0.0000E+00   yforce=   0.0000E+00  zforce=   7.2242E+01   energy=  -2.5653E-03   setid =     886 xmoment=   0.0000E+00 ymoment=   0.0000E+00 zmoment=   0.0000E+00
              xtotal=   0.0000E+00   ytotal=   0.0000E+00  ztotal=  -2.8894E+03   etotal=   1.5967E-01

 n o d a l   f o r c e/e n e r g y    o u t p u t  t=   5.79487E+00

 velocity boundary condition forces/rigid body moments 

 nd#     167  xforce=   0.0000E+00   yforce=   0.0000E+00  zforce=  -1.5047E+02   energy=   1.2827E-02   setid =     167 xmoment=   0.0000E+00 ymoment=   0.0000E+00 zmoment=   0.0000E+00
 nd#     168  xforce=   0.0000E+00   yforce=   0.0000E+00  zforce=  -3.4219E+01   energy=   3.9029E-03   setid =     168 xmoment=   0.0000E+00 ymoment=   0.0000E+00 zmoment=   0.0000E+00
 nd#     169  xforce=   0.0000E+00   yforce=   0.0000E+00  zforce=   2.5456E+02   energy=  -2.0322E-02   setid =     169 xmoment=   0.0000E+00 ymoment=   0.0000E+00 zmoment=   0.0000E+00
 nd#     170  xforce=   0.0000E+00   yforce=   0.0000E+00  zforce=   9.1520E+00   energy=  -4.2441E-04   setid =     170 xmoment=   0.0000E+00 ymoment=   0.0000E+00 zmoment=   0.0000E+00
 nd#     197  xforce=   0.0000E+00   yforce=   0.0000E+00  zforce=  -1.6479E+01   energy=   3.1450E-03   setid =     197 xmoment=   0.0000E+00 ymoment=   0.0000E+00 zmoment=   0.0000E+00
 nd#     198  xforce=   0.0000E+00   yforce=   0.0000E+00  zforce=  -3.2105E+01   energy=   2.3418E-03   setid =     198 xmoment=   0.0000E+00 ymoment=   0.0000E+00 zmoment=   0.0000E+00
 nd#     225  xforce=   0.0000E+00   yforce=   0.0000E+00  zforce=  -1.6045E+02   energy=   1.2213E-02   setid =     225 xmoment=   0.0000E+00 ymoment=   0.0000E+00 zmoment=   0.0000E+00
 nd#     226  xforce=   0.0000E+00   yforce=   0.0000E+00  zforce=  -2.0466E+02   energy=   1.6710E-02   setid =     226 xmoment=   0.0000E+00 ymoment=   0.0000E+00 zmoment=   0.0000E+00
 nd#     279  xforce=   0.0000E+00   yforce=   0.0000E+00  zforce=  -2.5129E+02   energy=   1.9720E-02   setid =     279 xmoment=   0.0000E+00 ymoment=   0.0000E+00 zmoment=   0.0000E+00
 nd#     280  xforce=   0.0000E+00   yforce=   0.0000E+00  zforce=   9.9004E+01   energy=  -8.4447E-03   setid =     280 xmoment=   0.0000E+00 ymoment=   0.0000E+00 zmoment=   0.0000E+00
 nd#     281  xforce=   0.0000E+00   yforce=   0.0000E+00  zforce=  -4.1698E+01   energy=   2.0712E-03   setid =     281 xmoment=   0.0000E+00 ymoment=   0.0000E+00 zmoment=   0.0000E+00
 nd#     282  xforce=   0.0000E+00   yforce=   0.0000E+00  zforce=  -1.7226E+02   energy=   1.3240E-02   setid =     282 xmoment=   0.0000E+00 ymoment=   0.0000E+00 zmoment=   0.0000E+00
 nd#     296  xforce=   0.0000E+00   yforce=   0.0000E+00  zforce=  -1.1404E+02   energy=   9.7799E-03   setid =     296 xmoment=   0.0000E+00 ymoment=   0.0000E+00 zmoment=   0.0000E+00
 nd#     323  xforce=   0.0000E+00   yforce=   0.0000E+00  zforce=  -1.8295E+02   energy=   1.4839E-02   setid =     323 xmoment=   0.0000E+00 ymoment=   0.0000E+00 zmoment=   0.0000E+00
 nd#     324  xforce=   0.0000E+00   yforce=   0.0000E+00  zforce=  -9.5707E+01   energy=   7.5225E-03   setid =     324 xmoment=   0.0000E+00 ymoment=   0.0000E+00 zmoment=   0.0000E+00
 nd#     338  xforce=   0.0000E+00   yforce=   0.0000E+00  zforce=  -7.7173E+01   energy=   5.6798E-03   setid =     338 xmoment=   0.0000E+00 ymoment=   0.0000E+00 zmoment=   0.0000E+00
 nd#     352  xforce=   0.0000E+00   yforce=   0.0000E+00  zforce=  -1.0206E+02   energy=   8.0669E-03   setid =     352 xmoment=   0.0000E+00 ymoment=   0.0000E+00 zmoment=   0.0000E+00
 nd#     366  xforce=   0.0000E+00   yforce=   0.0000E+00  zforce=  -1.5947E+02   energy=   1.2991E-02   setid =     366 xmoment=   0.0000E+00 ymoment=   0.0000E+00 zmoment=   0.0000E+00
 nd#     380  xforce=   0.0000E+00   yforce=   0.0000E+00  zforce=  -9.4088E+01   energy=   7.8292E-03   setid =     380 xmoment=   0.0000E+00 ymoment=   0.0000E+00 zmoment=   0.0000E+00
 nd#     608  xforce=   0.0000E+00   yforce=   0.0000E+00  zforce=   7.3593E+00   energy=  -3.5653E-04   setid =     608 xmoment=   0.0000E+00 ymoment=   0.0000E+00 zmoment=   0.0000E+00
 nd#     609  xforce=   0.0000E+00   yforce=   0.0000E+00  zforce=  -8.7418E+01   energy=   7.5838E-03   setid =     609 xmoment=   0.0000E+00 ymoment=   0.0000E+00 zmoment=   0.0000E+00
 nd#     610  xforce=   0.0000E+00   yforce=   0.0000E+00  zforce=  -1.1351E+02   energy=   9.6620E-03   setid =     610 xmoment=   0.0000E+00 ymoment=   0.0000E+00 zmoment=   0.0000E+00
 nd#     611  xforce=   0.0000E+00   yforce=   0.0000E+00  zforce=  -1.3659E+02   energy=   1.1363E-02   setid =     611 xmoment=   0.0000E+00 ymoment=   0.0000E+00 zmoment=   0.0000E+00
 nd#     804  xforce=   0.0000E+00   yforce=   0.0000E+00  zforce=  -1.1257E+02   energy=   9.3143E-03   setid =     804 xmoment=   0.0000E+00 ymoment=   0.0000E+00 zmoment=   0.0000E+00
 nd#     806  xforce=   0.0000E+00   yforce=   0.0000E+00  zforce=  -2.0545E+02   energy=   1.6940E-02   setid =     806 xmoment=   0.0000E+00 ymoment=   0.0000E+00 zmoment=   0.0000E+00
 nd#     808  xforce=   0.0000E+00   yforce=   0.0000E+00  zforce=  -1.7598E+02   energy=   1.4089E-02   setid =     808 xmoment=   0.0000E+00 ymoment=   0.0000E+00 zmoment=   0.0000E+00
 nd#     810  xforce=   0.0000E+00   yforce=   0.0000E+00  zforce=  -9.7332E+01   energy=   8.3677E-03   setid =     810 xmoment=   0.0000E+00 ymoment=   0.0000E+00 zmoment=   0.0000E+00
 nd#     852  xforce=   0.0000E+00   yforce=   0.0000E+00  zforce=  -1.2933E+02   energy=   1.1259E-02   setid =     852 xmoment=   0.0000E+00 ymoment=   0.0000E+00 zmoment=   0.0000E+00
 nd#     854  xforce=   0.0000E+00   yforce=   0.0000E+00  zforce=  -2.0735E+02   energy=   1.7284E-02   setid =     854 xmoment=   0.0000E+00 ymoment=   0.0000E+00 zmoment=   0.0000E+00
 nd#     856  xforce=   0.0000E+00   yforce=   0.0000E+00  zforce=  -2.1044E+02   energy=   1.7576E-02   setid =     856 xmoment=   0.0000E+00 ymoment=   0.0000E+00 zmoment=   0.0000E+00
 nd#     858  xforce=   0.0000E+00   yforce=   0.0000E+00  zforce=  -8.5419E+01   energy=   7.5098E-03   setid =     858 xmoment=   0.0000E+00 ymoment=   0.0000E+00 zmoment=   0.0000E+00
 nd#     864  xforce=   0.0000E+00   yforce=   0.0000E+00  zforce=  -1.2471E+02   energy=   1.1073E-02   setid =     864 xmoment=   0.0000E+00 ymoment=   0.0000E+00 zmoment=   0.0000E+00
 nd#     866  xforce=   0.0000E+00   yforce=   0.0000E+00  zforce=  -2.0816E+02   energy=   1.7284E-02   setid =     866 xmoment=   0.0000E+00 ymoment=   0.0000E+00 zmoment=   0.0000E+00
 nd#     868  xforce=   0.0000E+00   yforce=   0.0000E+00  zforce=  -1.8988E+02   energy=   1.6556E-02   setid =     868 xmoment=   0.0000E+00 ymoment=   0.0000E+00 zmoment=   0.0000E+00
 nd#     870  xforce=   0.0000E+00   yforce=   0.0000E+00  zforce=  -3.9723E+01   energy=   4.0210E-03   setid =     870 xmoment=   0.0000E+00 ymoment=   0.0000E+00 zmoment=   0.0000E+00
 nd#     880  xforce=   0.0000E+00   yforce=   0.0000E+00  zforce=   5.3080E+01   energy=  -3.6933E-03   setid =     880 xmoment=   0.0000E+00 ymoment=   0.0000E+00 zmoment=   0.0000E+00
 nd#     882  xforce=   0.0000E+00   yforce=   0.0000E+00  zforce=   4.5446E+01   energy=  -2.9933E-03   setid =     882 xmoment=   0.0000E+00 ymoment=   0.0000E+00 zmoment=   0.0000E+00
 nd#     884  xforce=   0.0000E+00   yforce=   0.0000E+00  zforce=   9.9894E+01   energy=  -6.7738E-03   setid =     884 xmoment=   0.0000E+00 ymoment=   0.0000E+00 zmoment=   0.0000E+00
 nd#     886  xforce=   0.0000E+00   yforce=   0.0000E+00  zforce=   7.4339E+01   energy=  -5.4830E-03   setid =     886 xmoment=   0.0000E+00 ymoment=   0.0000E+00 zmoment=   0.0000E+00
              xtotal=   0.0000E+00   ytotal=   0.0000E+00  ztotal=  -3.3701E+03   etotal=   2.8427E-01

 n o d a l   f o r c e/e n e r g y    o u t p u t  t=   7.78540E+00

 velocity boundary condition forces/rigid body moments 

 nd#     167  xforce=   0.0000E+00   yforce=   0.0000E+00  zforce=  -1.5956E+02   energy=   1.8999E-02   setid =     167 xmoment=   0.0000E+00 ymoment=   0.0000E+00 zmoment=   0.0000E+00
 nd#     168  xforce=   0.0000E+00   yforce=   0.0000E+00  zforce=  -3.7983E+01   energy=   5.3401E-03   setid =     168 xmoment=   0.0000E+00 ymoment=   0.0000E+00 zmoment=   0.0000E+00
 nd#     169  xforce=   0.0000E+00   yforce=   0.0000E+00  zforce=   2.4781E+02   energy=  -3.0321E-02   setid =     169 xmoment=   0.0000E+00 ymoment=   0.0000E+00 zmoment=   0.0000E+00
 nd#     170  xforce=   0.0000E+00   yforce=   0.0000E+00  zforce=  -2.7118E+00   energy=  -5.5260E-04   setid =     170 xmoment=   0.0000E+00 ymoment=   0.0000E+00 zmoment=   0.0000E+00
 nd#     197  xforce=   0.0000E+00   yforce=   0.0000E+00  zforce=  -8.2616E+00   energy=   3.6375E-03   setid =     197 xmoment=   0.0000E+00 ymoment=   0.0000E+00 zmoment=   0.0000E+00
 nd#     198  xforce=   0.0000E+00   yforce=   0.0000E+00  zforce=  -3.8827E+01   energy=   3.7537E-03   setid =     198 xmoment=   0.0000E+00 ymoment=   0.0000E+00 zmoment=   0.0000E+00
 nd#     225  xforce=   0.0000E+00   yforce=   0.0000E+00  zforce=  -1.5795E+02   energy=   1.8550E-02   setid =     225 xmoment=   0.0000E+00 ymoment=   0.0000E+00 zmoment=   0.0000E+00
 nd#     226  xforce=   0.0000E+00   yforce=   0.0000E+00  zforce=  -2.0426E+02   energy=   2.4850E-02   setid =     226 xmoment=   0.0000E+00 ymoment=   0.0000E+00 zmoment=   0.0000E+00
 nd#     279  xforce=   0.0000E+00   yforce=   0.0000E+00  zforce=  -2.4820E+02   energy=   2.9662E-02   setid =     279 xmoment=   0.0000E+00 ymoment=   0.0000E+00 zmoment=   0.0000E+00
 nd#     280  xforce=   0.0000E+00   yforce=   0.0000E+00  zforce=   8.9587E+01   energy=  -1.2199E-02   setid =     280 xmoment=   0.0000E+00 ymoment=   0.0000E+00 zmoment=   0.0000E+00
 nd#     281  xforce=   0.0000E+00   yforce=   0.0000E+00  zforce=  -5.5796E+01   energy=   4.0118E-03   setid =     281 xmoment=   0.0000E+00 ymoment=   0.0000E+00 zmoment=   0.0000E+00
 nd#     282  xforce=   0.0000E+00   yforce=   0.0000E+00  zforce=  -1.7423E+02   energy=   2.0137E-02   setid =     282 xmoment=   0.0000E+00 ymoment=   0.0000E+00 zmoment=   0.0000E+00
 nd#     296  xforce=   0.0000E+00   yforce=   0.0000E+00  zforce=  -1.1184E+02   energy=   1.4276E-02   setid =     296 xmoment=   0.0000E+00 ymoment=   0.0000E+00 zmoment=   0.0000E+00
 nd#     323  xforce=   0.0000E+00   yforce=   0.0000E+00  zforce=  -1.9216E+02   energy=   2.2305E-02   setid =     323 xmoment=   0.0000E+00 ymoment=   0.0000E+00 zmoment=   0.0000E+00
 nd#     324  xforce=   0.0000E+00   yforce=   0.0000E+00  zforce=  -1.1074E+02   energy=   1.1632E-02   setid =     324 xmoment=   0.0000E+00 ymoment=   0.0000E+00 zmoment=   0.0000E+00
 nd#     338  xforce=   0.0000E+00   yforce=   0.0000E+00  zforce=  -8.6914E+01   energy=   8.9460E-03   setid =     338 xmoment=   0.0000E+00 ymoment=   0.0000E+00 zmoment=   0.0000E+00
 nd#     352  xforce=   0.0000E+00   yforce=   0.0000E+00  zforce=  -1.0330E+02   energy=   1.2155E-02   setid =     352 xmoment=   0.0000E+00 ymoment=   0.0000E+00 zmoment=   0.0000E+00
 nd#     366  xforce=   0.0000E+00   yforce=   0.0000E+00  zforce=  -1.5960E+02   energy=   1.9342E-02   setid =     366 xmoment=   0.0000E+00 ymoment=   0.0000E+00 zmoment=   0.0000E+00
 nd#     380  xforce=   0.0000E+00   yforce=   0.0000E+00  zforce=  -9.5723E+01   energy=   1.1607E-02   setid =     380 xmoment=   0.0000E+00 ymoment=   0.0000E+00 zmoment=   0.0000E+00
 nd#     608  xforce=   0.0000E+00   yforce=   0.0000E+00  zforce=   8.6639E+00   energy=  -6.7548E-04   setid =     608 xmoment=   0.0000E+00 ymoment=   0.0000E+00 zmoment=   0.0000E+00
 nd#     609  xforce=   0.0000E+00   yforce=   0.0000E+00  zforce=  -8.8754E+01   energy=   1.1091E-02   setid =     609 xmoment=   0.0000E+00 ymoment=   0.0000E+00 zmoment=   0.0000E+00
 nd#     610  xforce=   0.0000E+00   yforce=   0.0000E+00  zforce=  -1.1395E+02   energy=   1.4190E-02   setid =     610 xmoment=   0.0000E+00 ymoment=   0.0000E+00 zmoment=   0.0000E+00
 nd#     611  xforce=   0.0000E+00   yforce=   0.0000E+00  zforce=  -1.3685E+02   energy=   1.6806E-02   setid =     611 xmoment=   0.0000E+00 ymoment=   0.0000E+00 zmoment=   0.0000E+00
 nd#     804  xforce=   0.0000E+00   yforce=   0.0000E+00  zforce=  -1.2172E+02   energy=   1.3978E-02   setid =     804 xmoment=   0.0000E+00 ymoment=   0.0000E+00 zmoment=   0.0000E+00
 nd#     806  xforce=   0.0000E+00   yforce=   0.0000E+00  zforce=  -2.1697E+02   energy=   2.5348E-02   setid =     806 xmoment=   0.0000E+00 ymoment=   0.0000E+00 zmoment=   0.0000E+00
 nd#     808  xforce=   0.0000E+00   yforce=   0.0000E+00  zforce=  -1.8473E+02   energy=   2.1269E-02   setid =     808 xmoment=   0.0000E+00 ymoment=   0.0000E+00 zmoment=   0.0000E+00
 nd#     810  xforce=   0.0000E+00   yforce=   0.0000E+00  zforce=  -9.5765E+01   energy=   1.2211E-02   setid =     810 xmoment=   0.0000E+00 ymoment=   0.0000E+00 zmoment=   0.0000E+00
 nd#     852  xforce=   0.0000E+00   yforce=   0.0000E+00  zforce=  -1.3676E+02   energy=   1.6556E-02   setid =     852 xmoment=   0.0000E+00 ymoment=   0.0000E+00 zmoment=   0.0000E+00
 nd#     854  xforce=   0.0000E+00   yforce=   0.0000E+00  zforce=  -2.1968E+02   energy=   2.5784E-02   setid =     854 xmoment=   0.0000E+00 ymoment=   0.0000E+00 zmoment=   0.0000E+00
 nd#     856  xforce=   0.0000E+00   yforce=   0.0000E+00  zforce=  -2.2238E+02   energy=   2.6192E-02   setid =     856 xmoment=   0.0000E+00 ymoment=   0.0000E+00 zmoment=   0.0000E+00
 nd#     858  xforce=   0.0000E+00   yforce=   0.0000E+00  zforce=  -8.6059E+01   energy=   1.0923E-02   setid =     858 xmoment=   0.0000E+00 ymoment=   0.0000E+00 zmoment=   0.0000E+00
 nd#     864  xforce=   0.0000E+00   yforce=   0.0000E+00  zforce=  -1.3293E+02   energy=   1.6202E-02   setid =     864 xmoment=   0.0000E+00 ymoment=   0.0000E+00 zmoment=   0.0000E+00
 nd#     866  xforce=   0.0000E+00   yforce=   0.0000E+00  zforce=  -2.1913E+02   energy=   2.5789E-02   setid =     866 xmoment=   0.0000E+00 ymoment=   0.0000E+00 zmoment=   0.0000E+00
 nd#     868  xforce=   0.0000E+00   yforce=   0.0000E+00  zforce=  -1.9069E+02   energy=   2.4131E-02   setid =     868 xmoment=   0.0000E+00 ymoment=   0.0000E+00 zmoment=   0.0000E+00
 nd#     870  xforce=   0.0000E+00   yforce=   0.0000E+00  zforce=  -3.8188E+01   energy=   5.5719E-03   setid =     870 xmoment=   0.0000E+00 ymoment=   0.0000E+00 zmoment=   0.0000E+00
 nd#     880  xforce=   0.0000E+00   yforce=   0.0000E+00  zforce=   5.5987E+01   energy=  -5.8643E-03   setid =     880 xmoment=   0.0000E+00 ymoment=   0.0000E+00 zmoment=   0.0000E+00
 nd#     882  xforce=   0.0000E+00   yforce=   0.0000E+00  zforce=   4.7958E+01   energy=  -4.8525E-03   setid =     882 xmoment=   0.0000E+00 ymoment=   0.0000E+00 zmoment=   0.0000E+00
 nd#     884  xforce=   0.0000E+00   yforce=   0.0000E+00  zforce=   1.0634E+02   energy=  -1.0879E-02   setid =     884 xmoment=   0.0000E+00 ymoment=   0.0000E+00 zmoment=   0.0000E+00
 nd#     886  xforce=   0.0000E+00   yforce=   0.0000E+00  zforce=   7.8671E+01   energy=  -8.5287E-03   setid =     886 xmoment=   0.0000E+00 ymoment=   0.0000E+00 zmoment=   0.0000E+00
              xtotal=   0.0000E+00   ytotal=   0.0000E+00  ztotal=  -3.5176E+03   etotal=   4.2137E-01

 n o d a l   f o r c e/e n e r g y    o u t p u t  t=   9.77594E+00

 velocity boundary condition forces/rigid body moments 

 nd#     167  xforce=   0.0000E+00   yforce=   0.0000E+00  zforce=  -1.6394E+02   energy=   2.5438E-02   setid =     167 xmoment=   0.0000E+00 ymoment=   0.0000E+00 zmoment=   0.0000E+00
 nd#     168  xforce=   0.0000E+00   yforce=   0.0000E+00  zforce=  -4.3086E+01   energy=   6.9538E-03   setid =     168 xmoment=   0.0000E+00 ymoment=   0.0000E+00 zmoment=   0.0000E+00
 nd#     169  xforce=   0.0000E+00   yforce=   0.0000E+00  zforce=   2.2424E+02   energy=  -3.9718E-02   setid =     169 xmoment=   0.0000E+00 ymoment=   0.0000E+00 zmoment=   0.0000E+00
 nd#     170  xforce=   0.0000E+00   yforce=   0.0000E+00  zforce=  -8.3891E+00   energy=  -3.3163E-04   setid =     170 xmoment=   0.0000E+00 ymoment=   0.0000E+00 zmoment=   0.0000E+00
 nd#     197  xforce=   0.0000E+00   yforce=   0.0000E+00  zforce=  -4.6853E+00   energy=   3.8952E-03   setid =     197 xmoment=   0.0000E+00 ymoment=   0.0000E+00 zmoment=   0.0000E+00
 nd#     198  xforce=   0.0000E+00   yforce=   0.0000E+00  zforce=  -4.5404E+01   energy=   5.4303E-03   setid =     198 xmoment=   0.0000E+00 ymoment=   0.0000E+00 zmoment=   0.0000E+00
 nd#     225  xforce=   0.0000E+00   yforce=   0.0000E+00  zforce=  -1.3951E+02   energy=   2.4471E-02   setid =     225 xmoment=   0.0000E+00 ymoment=   0.0000E+00 zmoment=   0.0000E+00
 nd#     226  xforce=   0.0000E+00   yforce=   0.0000E+00  zforce=  -1.9056E+02   energy=   3.2709E-02   setid =     226 xmoment=   0.0000E+00 ymoment=   0.0000E+00 zmoment=   0.0000E+00
 nd#     279  xforce=   0.0000E+00   yforce=   0.0000E+00  zforce=  -2.2126E+02   energy=   3.9007E-02   setid =     279 xmoment=   0.0000E+00 ymoment=   0.0000E+00 zmoment=   0.0000E+00
 nd#     280  xforce=   0.0000E+00   yforce=   0.0000E+00  zforce=   7.1402E+01   energy=  -1.5403E-02   setid =     280 xmoment=   0.0000E+00 ymoment=   0.0000E+00 zmoment=   0.0000E+00
 nd#     281  xforce=   0.0000E+00   yforce=   0.0000E+00  zforce=  -7.0079E+01   energy=   6.5174E-03   setid =     281 xmoment=   0.0000E+00 ymoment=   0.0000E+00 zmoment=   0.0000E+00
 nd#     282  xforce=   0.0000E+00   yforce=   0.0000E+00  zforce=  -1.6416E+02   energy=   2.6873E-02   setid =     282 xmoment=   0.0000E+00 ymoment=   0.0000E+00 zmoment=   0.0000E+00
 nd#     296  xforce=   0.0000E+00   yforce=   0.0000E+00  zforce=  -1.0451E+02   energy=   1.8583E-02   setid =     296 xmoment=   0.0000E+00 ymoment=   0.0000E+00 zmoment=   0.0000E+00
 nd#     323  xforce=   0.0000E+00   yforce=   0.0000E+00  zforce=  -1.9749E+02   energy=   3.0061E-02   setid =     323 xmoment=   0.0000E+00 ymoment=   0.0000E+00 zmoment=   0.0000E+00
 nd#     324  xforce=   0.0000E+00   yforce=   0.0000E+00  zforce=  -1.1772E+02   energy=   1.6180E-02   setid =     324 xmoment=   0.0000E+00 ymoment=   0.0000E+00 zmoment=   0.0000E+00
 nd#     338  xforce=   0.0000E+00   yforce=   0.0000E+00  zforce=  -9.2072E+01   energy=   1.2509E-02   setid =     338 xmoment=   0.0000E+00 ymoment=   0.0000E+00 zmoment=   0.0000E+00
 nd#     352  xforce=   0.0000E+00   yforce=   0.0000E+00  zforce=  -1.0126E+02   energy=   1.6226E-02   setid =     352 xmoment=   0.0000E+00 ymoment=   0.0000E+00 zmoment=   0.0000E+00
 nd#     366  xforce=   0.0000E+00   yforce=   0.0000E+00  zforce=  -1.5370E+02   energy=   2.5578E-02   setid =     366 xmoment=   0.0000E+00 ymoment=   0.0000E+00 zmoment=   0.0000E+00
 nd#     380  xforce=   0.0000E+00   yforce=   0.0000E+00  zforce=  -9.2908E+01   energy=   1.5362E-02   setid =     380 xmoment=   0.0000E+00 ymoment=   0.0000E+00 zmoment=   0.0000E+00
 nd#     608  xforce=   0.0000E+00   yforce=   0.0000E+00  zforce=   9.9117E+00   energy=  -1.0452E-03   setid =     608 xmoment=   0.0000E+00 ymoment=   0.0000E+00 zmoment=   0.0000E+00
 nd#     609  xforce=   0.0000E+00   yforce=   0.0000E+00  zforce=  -9.0258E+01   energy=   1.4654E-02   setid =     609 xmoment=   0.0000E+00 ymoment=   0.0000E+00 zmoment=   0.0000E+00
 nd#     610  xforce=   0.0000E+00   yforce=   0.0000E+00  zforce=  -1.1340E+02   energy=   1.8715E-02   setid =     610 xmoment=   0.0000E+00 ymoment=   0.0000E+00 zmoment=   0.0000E+00
 nd#     611  xforce=   0.0000E+00   yforce=   0.0000E+00  zforce=  -1.3266E+02   energy=   2.2171E-02   setid =     611 xmoment=   0.0000E+00 ymoment=   0.0000E+00 zmoment=   0.0000E+00
 nd#     804  xforce=   0.0000E+00   yforce=   0.0000E+00  zforce=  -1.2403E+02   energy=   1.8870E-02   setid =     804 xmoment=   0.0000E+00 ymoment=   0.0000E+00 zmoment=   0.0000E+00
 nd#     806  xforce=   0.0000E+00   yforce=   0.0000E+00  zforce=  -2.2013E+02   energy=   3.4049E-02   setid =     806 xmoment=   0.0000E+00 ymoment=   0.0000E+00 zmoment=   0.0000E+00
 nd#     808  xforce=   0.0000E+00   yforce=   0.0000E+00  zforce=  -1.8791E+02   energy=   2.8687E-02   setid =     808 xmoment=   0.0000E+00 ymoment=   0.0000E+00 zmoment=   0.0000E+00
 nd#     810  xforce=   0.0000E+00   yforce=   0.0000E+00  zforce=  -9.2976E+01   energy=   1.5968E-02   setid =     810 xmoment=   0.0000E+00 ymoment=   0.0000E+00 zmoment=   0.0000E+00
 nd#     852  xforce=   0.0000E+00   yforce=   0.0000E+00  zforce=  -1.4032E+02   energy=   2.2071E-02   setid =     852 xmoment=   0.0000E+00 ymoment=   0.0000E+00 zmoment=   0.0000E+00
 nd#     854  xforce=   0.0000E+00   yforce=   0.0000E+00  zforce=  -2.2446E+02   energy=   3.4625E-02   setid =     854 xmoment=   0.0000E+00 ymoment=   0.0000E+00 zmoment=   0.0000E+00
 nd#     856  xforce=   0.0000E+00   yforce=   0.0000E+00  zforce=  -2.2613E+02   energy=   3.5119E-02   setid =     856 xmoment=   0.0000E+00 ymoment=   0.0000E+00 zmoment=   0.0000E+00
 nd#     858  xforce=   0.0000E+00   yforce=   0.0000E+00  zforce=  -8.5429E+01   energy=   1.4337E-02   setid =     858 xmoment=   0.0000E+00 ymoment=   0.0000E+00 zmoment=   0.0000E+00
 nd#     864  xforce=   0.0000E+00   yforce=   0.0000E+00  zforce=  -1.3618E+02   energy=   2.1558E-02   setid =     864 xmoment=   0.0000E+00 ymoment=   0.0000E+00 zmoment=   0.0000E+00
 nd#     866  xforce=   0.0000E+00   yforce=   0.0000E+00  zforce=  -2.2417E+02   energy=   3.4613E-02   setid =     866 xmoment=   0.0000E+00 ymoment=   0.0000E+00 zmoment=   0.0000E+00
 nd#     868  xforce=   0.0000E+00   yforce=   0.0000E+00  zforce=  -1.9375E+02   energy=   3.1783E-02   setid =     868 xmoment=   0.0000E+00 ymoment=   0.0000E+00 zmoment=   0.0000E+00
 nd#     870  xforce=   0.0000E+00   yforce=   0.0000E+00  zforce=  -3.8258E+01   energy=   7.0936E-03   setid =     870 xmoment=   0.0000E+00 ymoment=   0.0000E+00 zmoment=   0.0000E+00
 nd#     880  xforce=   0.0000E+00   yforce=   0.0000E+00  zforce=   5.8757E+01   energy=  -8.1483E-03   setid =     880 xmoment=   0.0000E+00 ymoment=   0.0000E+00 zmoment=   0.0000E+00
 nd#     882  xforce=   0.0000E+00   yforce=   0.0000E+00  zforce=   4.9011E+01   energy=  -6.7827E-03   setid =     882 xmoment=   0.0000E+00 ymoment=   0.0000E+00 zmoment=   0.0000E+00
 nd#     884  xforce=   0.0000E+00   yforce=   0.0000E+00  zforce=   1.0822E+02   energy=  -1.5150E-02   setid =     884 xmoment=   0.0000E+00 ymoment=   0.0000E+00 zmoment=   0.0000E+00
 nd#     886  xforce=   0.0000E+00   yforce=   0.0000E+00  zforce=   8.0041E+01   energy=  -1.1688E-02   setid =     886 xmoment=   0.0000E+00 ymoment=   0.0000E+00 zmoment=   0.0000E+00
              xtotal=   0.0000E+00   ytotal=   0.0000E+00  ztotal=  -3.5392E+03   etotal=   5.6184E-01

 n o d a l   f o r c e/e n e r g y    o u t p u t  t=   1.17665E+01

 velocity boundary condition forces/rigid body moments 

 nd#     167  xforce=   0.0000E+00   yforce=   0.0000E+00  zforce=  -1.5325E+02   energy=   3.1752E-02   setid =     167 xmoment=   0.0000E+00 ymoment=   0.0000E+00 zmoment=   0.0000E+00
 nd#     168  xforce=   0.0000E+00   yforce=   0.0000E+00  zforce=  -3.4417E+01   energy=   8.4965E-03   setid =     168 xmoment=   0.0000E+00 ymoment=   0.0000E+00 zmoment=   0.0000E+00
 nd#     169  xforce=   0.0000E+00   yforce=   0.0000E+00  zforce=   1.9119E+02   energy=  -4.7987E-02   setid =     169 xmoment=   0.0000E+00 ymoment=   0.0000E+00 zmoment=   0.0000E+00
 nd#     170  xforce=   0.0000E+00   yforce=   0.0000E+00  zforce=  -1.4792E+01   energy=   1.2978E-04   setid =     170 xmoment=   0.0000E+00 ymoment=   0.0000E+00 zmoment=   0.0000E+00
 nd#     197  xforce=   0.0000E+00   yforce=   0.0000E+00  zforce=   1.5484E+01   energy=   3.6802E-03   setid =     197 xmoment=   0.0000E+00 ymoment=   0.0000E+00 zmoment=   0.0000E+00
 nd#     198  xforce=   0.0000E+00   yforce=   0.0000E+00  zforce=  -4.9089E+01   energy=   7.3112E-03   setid =     198 xmoment=   0.0000E+00 ymoment=   0.0000E+00 zmoment=   0.0000E+00
 nd#     225  xforce=   0.0000E+00   yforce=   0.0000E+00  zforce=  -1.3504E+02   energy=   2.9937E-02   setid =     225 xmoment=   0.0000E+00 ymoment=   0.0000E+00 zmoment=   0.0000E+00
 nd#     226  xforce=   0.0000E+00   yforce=   0.0000E+00  zforce=  -1.8137E+02   energy=   4.0113E-02   setid =     226 xmoment=   0.0000E+00 ymoment=   0.0000E+00 zmoment=   0.0000E+00
 nd#     279  xforce=   0.0000E+00   yforce=   0.0000E+00  zforce=  -2.0179E+02   energy=   4.7428E-02   setid =     279 xmoment=   0.0000E+00 ymoment=   0.0000E+00 zmoment=   0.0000E+00
 nd#     280  xforce=   0.0000E+00   yforce=   0.0000E+00  zforce=   5.2914E+01   energy=  -1.7878E-02   setid =     280 xmoment=   0.0000E+00 ymoment=   0.0000E+00 zmoment=   0.0000E+00
 nd#     281  xforce=   0.0000E+00   yforce=   0.0000E+00  zforce=  -8.6677E+01   energy=   9.6377E-03   setid =     281 xmoment=   0.0000E+00 ymoment=   0.0000E+00 zmoment=   0.0000E+00
 nd#     282  xforce=   0.0000E+00   yforce=   0.0000E+00  zforce=  -1.5693E+02   energy=   3.3264E-02   setid =     282 xmoment=   0.0000E+00 ymoment=   0.0000E+00 zmoment=   0.0000E+00
 nd#     296  xforce=   0.0000E+00   yforce=   0.0000E+00  zforce=  -9.8291E+01   energy=   2.2619E-02   setid =     296 xmoment=   0.0000E+00 ymoment=   0.0000E+00 zmoment=   0.0000E+00
 nd#     323  xforce=   0.0000E+00   yforce=   0.0000E+00  zforce=  -1.9656E+02   energy=   3.7905E-02   setid =     323 xmoment=   0.0000E+00 ymoment=   0.0000E+00 zmoment=   0.0000E+00
 nd#     324  xforce=   0.0000E+00   yforce=   0.0000E+00  zforce=  -1.2411E+02   energy=   2.0993E-02   setid =     324 xmoment=   0.0000E+00 ymoment=   0.0000E+00 zmoment=   0.0000E+00
 nd#     338  xforce=   0.0000E+00   yforce=   0.0000E+00  zforce=  -1.0288E+02   energy=   1.6389E-02   setid =     338 xmoment=   0.0000E+00 ymoment=   0.0000E+00 zmoment=   0.0000E+00
 nd#     352  xforce=   0.0000E+00   yforce=   0.0000E+00  zforce=  -1.0291E+02   energy=   2.0291E-02   setid =     352 xmoment=   0.0000E+00 ymoment=   0.0000E+00 zmoment=   0.0000E+00
 nd#     366  xforce=   0.0000E+00   yforce=   0.0000E+00  zforce=  -1.5212E+02   energy=   3.1665E-02   setid =     366 xmoment=   0.0000E+00 ymoment=   0.0000E+00 zmoment=   0.0000E+00
 nd#     380  xforce=   0.0000E+00   yforce=   0.0000E+00  zforce=  -9.2042E+01   energy=   1.9044E-02   setid =     380 xmoment=   0.0000E+00 ymoment=   0.0000E+00 zmoment=   0.0000E+00
 nd#     608  xforce=   0.0000E+00   yforce=   0.0000E+00  zforce=   9.9953E+00   energy=  -1.4415E-03   setid =     608 xmoment=   0.0000E+00 ymoment=   0.0000E+00 zmoment=   0.0000E+00
 nd#     609  xforce=   0.0000E+00   yforce=   0.0000E+00  zforce=  -8.6397E+01   energy=   1.8170E-02   setid =     609 xmoment=   0.0000E+00 ymoment=   0.0000E+00 zmoment=   0.0000E+00
 nd#     610  xforce=   0.0000E+00   yforce=   0.0000E+00  zforce=  -1.1021E+02   energy=   2.3166E-02   setid =     610 xmoment=   0.0000E+00 ymoment=   0.0000E+00 zmoment=   0.0000E+00
 nd#     611  xforce=   0.0000E+00   yforce=   0.0000E+00  zforce=  -1.3087E+02   energy=   2.7417E-02   setid =     611 xmoment=   0.0000E+00 ymoment=   0.0000E+00 zmoment=   0.0000E+00
 nd#     804  xforce=   0.0000E+00   yforce=   0.0000E+00  zforce=  -1.3033E+02   energy=   2.3933E-02   setid =     804 xmoment=   0.0000E+00 ymoment=   0.0000E+00 zmoment=   0.0000E+00
 nd#     806  xforce=   0.0000E+00   yforce=   0.0000E+00  zforce=  -2.1980E+02   energy=   4.2806E-02   setid =     806 xmoment=   0.0000E+00 ymoment=   0.0000E+00 zmoment=   0.0000E+00
 nd#     808  xforce=   0.0000E+00   yforce=   0.0000E+00  zforce=  -1.9027E+02   energy=   3.6214E-02   setid =     808 xmoment=   0.0000E+00 ymoment=   0.0000E+00 zmoment=   0.0000E+00
 nd#     810  xforce=   0.0000E+00   yforce=   0.0000E+00  zforce=  -9.1183E+01   energy=   1.9634E-02   setid =     810 xmoment=   0.0000E+00 ymoment=   0.0000E+00 zmoment=   0.0000E+00
 nd#     852  xforce=   0.0000E+00   yforce=   0.0000E+00  zforce=  -1.4092E+02   energy=   2.7669E-02   setid =     852 xmoment=   0.0000E+00 ymoment=   0.0000E+00 zmoment=   0.0000E+00
 nd#     854  xforce=   0.0000E+00   yforce=   0.0000E+00  zforce=  -2.2419E+02   energy=   4.3555E-02   setid =     854 xmoment=   0.0000E+00 ymoment=   0.0000E+00 zmoment=   0.0000E+00
 nd#     856  xforce=   0.0000E+00   yforce=   0.0000E+00  zforce=  -2.2335E+02   energy=   4.4066E-02   setid =     856 xmoment=   0.0000E+00 ymoment=   0.0000E+00 zmoment=   0.0000E+00
 nd#     858  xforce=   0.0000E+00   yforce=   0.0000E+00  zforce=  -8.4282E+01   energy=   1.7715E-02   setid =     858 xmoment=   0.0000E+00 ymoment=   0.0000E+00 zmoment=   0.0000E+00
 nd#     864  xforce=   0.0000E+00   yforce=   0.0000E+00  zforce=  -1.3484E+02   energy=   2.6953E-02   setid =     864 xmoment=   0.0000E+00 ymoment=   0.0000E+00 zmoment=   0.0000E+00
 nd#     866  xforce=   0.0000E+00   yforce=   0.0000E+00  zforce=  -2.2243E+02   energy=   4.3503E-02   setid =     866 xmoment=   0.0000E+00 ymoment=   0.0000E+00 zmoment=   0.0000E+00
 nd#     868  xforce=   0.0000E+00   yforce=   0.0000E+00  zforce=  -1.8393E+02   energy=   3.9301E-02   setid =     868 xmoment=   0.0000E+00 ymoment=   0.0000E+00 zmoment=   0.0000E+00
 nd#     870  xforce=   0.0000E+00   yforce=   0.0000E+00  zforce=  -3.4907E+01   energy=   8.5499E-03   setid =     870 xmoment=   0.0000E+00 ymoment=   0.0000E+00 zmoment=   0.0000E+00
 nd#     880  xforce=   0.0000E+00   yforce=   0.0000E+00  zforce=   5.9293E+01   energy=  -1.0498E-02   setid =     880 xmoment=   0.0000E+00 ymoment=   0.0000E+00 zmoment=   0.0000E+00
 nd#     882  xforce=   0.0000E+00   yforce=   0.0000E+00  zforce=   5.3622E+01   energy=  -8.8257E-03   setid =     882 xmoment=   0.0000E+00 ymoment=   0.0000E+00 zmoment=   0.0000E+00
 nd#     884  xforce=   0.0000E+00   yforce=   0.0000E+00  zforce=   1.1436E+02   energy=  -1.9580E-02   setid =     884 xmoment=   0.0000E+00 ymoment=   0.0000E+00 zmoment=   0.0000E+00
 nd#     886  xforce=   0.0000E+00   yforce=   0.0000E+00  zforce=   8.2161E+01   energy=  -1.4917E-02   setid =     886 xmoment=   0.0000E+00 ymoment=   0.0000E+00 zmoment=   0.0000E+00
              xtotal=   0.0000E+00   ytotal=   0.0000E+00  ztotal=  -3.5112E+03   etotal=   7.0218E-01

 n o d a l   f o r c e/e n e r g y    o u t p u t  t=   1.37570E+01

 velocity boundary condition forces/rigid body moments 

 nd#     167  xforce=   0.0000E+00   yforce=   0.0000E+00  zforce=  -1.5162E+02   energy=   3.7820E-02   setid =     167 xmoment=   0.0000E+00 ymoment=   0.0000E+00 zmoment=   0.0000E+00
 nd#     168  xforce=   0.0000E+00   yforce=   0.0000E+00  zforce=  -3.3456E+01   energy=   9.8476E-03   setid =     168 xmoment=   0.0000E+00 ymoment=   0.0000E+00 zmoment=   0.0000E+00
 nd#     169  xforce=   0.0000E+00   yforce=   0.0000E+00  zforce=   1.7789E+02   energy=  -5.5334E-02   setid =     169 xmoment=   0.0000E+00 ymoment=   0.0000E+00 zmoment=   0.0000E+00
 nd#     170  xforce=   0.0000E+00   yforce=   0.0000E+00  zforce=  -1.4260E+01   energy=   7.0807E-04   setid =     170 xmoment=   0.0000E+00 ymoment=   0.0000E+00 zmoment=   0.0000E+00
 nd#     197  xforce=   0.0000E+00   yforce=   0.0000E+00  zforce=   1.9554E+01   energy=   2.9828E-03   setid =     197 xmoment=   0.0000E+00 ymoment=   0.0000E+00 zmoment=   0.0000E+00
 nd#     198  xforce=   0.0000E+00   yforce=   0.0000E+00  zforce=  -5.2213E+01   energy=   9.3277E-03   setid =     198 xmoment=   0.0000E+00 ymoment=   0.0000E+00 zmoment=   0.0000E+00
 nd#     225  xforce=   0.0000E+00   yforce=   0.0000E+00  zforce=  -1.2932E+02   energy=   3.5199E-02   setid =     225 xmoment=   0.0000E+00 ymoment=   0.0000E+00 zmoment=   0.0000E+00
 nd#     226  xforce=   0.0000E+00   yforce=   0.0000E+00  zforce=  -1.7601E+02   energy=   4.7226E-02   setid =     226 xmoment=   0.0000E+00 ymoment=   0.0000E+00 zmoment=   0.0000E+00
 nd#     279  xforce=   0.0000E+00   yforce=   0.0000E+00  zforce=  -1.9032E+02   energy=   5.5233E-02   setid =     279 xmoment=   0.0000E+00 ymoment=   0.0000E+00 zmoment=   0.0000E+00
 nd#     280  xforce=   0.0000E+00   yforce=   0.0000E+00  zforce=   4.3894E+01   energy=  -1.9805E-02   setid =     280 xmoment=   0.0000E+00 ymoment=   0.0000E+00 zmoment=   0.0000E+00
 nd#     281  xforce=   0.0000E+00   yforce=   0.0000E+00  zforce=  -9.0505E+01   energy=   1.3165E-02   setid =     281 xmoment=   0.0000E+00 ymoment=   0.0000E+00 zmoment=   0.0000E+00
 nd#     282  xforce=   0.0000E+00   yforce=   0.0000E+00  zforce=  -1.5236E+02   energy=   3.9421E-02   setid =     282 xmoment=   0.0000E+00 ymoment=   0.0000E+00 zmoment=   0.0000E+00
 nd#     296  xforce=   0.0000E+00   yforce=   0.0000E+00  zforce=  -9.2258E+01   energy=   2.6412E-02   setid =     296 xmoment=   0.0000E+00 ymoment=   0.0000E+00 zmoment=   0.0000E+00
 nd#     323  xforce=   0.0000E+00   yforce=   0.0000E+00  zforce=  -2.0013E+02   energy=   4.5801E-02   setid =     323 xmoment=   0.0000E+00 ymoment=   0.0000E+00 zmoment=   0.0000E+00
 nd#     324  xforce=   0.0000E+00   yforce=   0.0000E+00  zforce=  -1.2182E+02   energy=   2.5889E-02   setid =     324 xmoment=   0.0000E+00 ymoment=   0.0000E+00 zmoment=   0.0000E+00
 nd#     338  xforce=   0.0000E+00   yforce=   0.0000E+00  zforce=  -1.0816E+02   energy=   2.0590E-02   setid =     338 xmoment=   0.0000E+00 ymoment=   0.0000E+00 zmoment=   0.0000E+00
 nd#     352  xforce=   0.0000E+00   yforce=   0.0000E+00  zforce=  -1.0133E+02   energy=   2.4356E-02   setid =     352 xmoment=   0.0000E+00 ymoment=   0.0000E+00 zmoment=   0.0000E+00
 nd#     366  xforce=   0.0000E+00   yforce=   0.0000E+00  zforce=  -1.5080E+02   energy=   3.7695E-02   setid =     366 xmoment=   0.0000E+00 ymoment=   0.0000E+00 zmoment=   0.0000E+00
 nd#     380  xforce=   0.0000E+00   yforce=   0.0000E+00  zforce=  -8.7070E+01   energy=   2.2609E-02   setid =     380 xmoment=   0.0000E+00 ymoment=   0.0000E+00 zmoment=   0.0000E+00
 nd#     608  xforce=   0.0000E+00   yforce=   0.0000E+00  zforce=   1.0980E+01   energy=  -1.8590E-03   setid =     608 xmoment=   0.0000E+00 ymoment=   0.0000E+00 zmoment=   0.0000E+00
 nd#     609  xforce=   0.0000E+00   yforce=   0.0000E+00  zforce=  -8.2437E+01   energy=   2.1531E-02   setid =     609 xmoment=   0.0000E+00 ymoment=   0.0000E+00 zmoment=   0.0000E+00
 nd#     610  xforce=   0.0000E+00   yforce=   0.0000E+00  zforce=  -1.0834E+02   energy=   2.7517E-02   setid =     610 xmoment=   0.0000E+00 ymoment=   0.0000E+00 zmoment=   0.0000E+00
 nd#     611  xforce=   0.0000E+00   yforce=   0.0000E+00  zforce=  -1.2917E+02   energy=   3.2593E-02   setid =     611 xmoment=   0.0000E+00 ymoment=   0.0000E+00 zmoment=   0.0000E+00
 nd#     804  xforce=   0.0000E+00   yforce=   0.0000E+00  zforce=  -1.3047E+02   energy=   2.9124E-02   setid =     804 xmoment=   0.0000E+00 ymoment=   0.0000E+00 zmoment=   0.0000E+00
 nd#     806  xforce=   0.0000E+00   yforce=   0.0000E+00  zforce=  -2.1818E+02   energy=   5.1524E-02   setid =     806 xmoment=   0.0000E+00 ymoment=   0.0000E+00 zmoment=   0.0000E+00
 nd#     808  xforce=   0.0000E+00   yforce=   0.0000E+00  zforce=  -1.8884E+02   energy=   4.3761E-02   setid =     808 xmoment=   0.0000E+00 ymoment=   0.0000E+00 zmoment=   0.0000E+00
 nd#     810  xforce=   0.0000E+00   yforce=   0.0000E+00  zforce=  -8.9399E+01   energy=   2.3229E-02   setid =     810 xmoment=   0.0000E+00 ymoment=   0.0000E+00 zmoment=   0.0000E+00
 nd#     852  xforce=   0.0000E+00   yforce=   0.0000E+00  zforce=  -1.4159E+02   energy=   3.3293E-02   setid =     852 xmoment=   0.0000E+00 ymoment=   0.0000E+00 zmoment=   0.0000E+00
 nd#     854  xforce=   0.0000E+00   yforce=   0.0000E+00  zforce=  -2.2348E+02   energy=   5.2466E-02   setid =     854 xmoment=   0.0000E+00 ymoment=   0.0000E+00 zmoment=   0.0000E+00
 nd#     856  xforce=   0.0000E+00   yforce=   0.0000E+00  zforce=  -2.2021E+02   energy=   5.2896E-02   setid =     856 xmoment=   0.0000E+00 ymoment=   0.0000E+00 zmoment=   0.0000E+00
 nd#     858  xforce=   0.0000E+00   yforce=   0.0000E+00  zforce=  -8.3555E+01   energy=   2.1056E-02   setid =     858 xmoment=   0.0000E+00 ymoment=   0.0000E+00 zmoment=   0.0000E+00
 nd#     864  xforce=   0.0000E+00   yforce=   0.0000E+00  zforce=  -1.3317E+02   energy=   3.2288E-02   setid =     864 xmoment=   0.0000E+00 ymoment=   0.0000E+00 zmoment=   0.0000E+00
 nd#     866  xforce=   0.0000E+00   yforce=   0.0000E+00  zforce=  -2.2114E+02   energy=   5.2332E-02   setid =     866 xmoment=   0.0000E+00 ymoment=   0.0000E+00 zmoment=   0.0000E+00
 nd#     868  xforce=   0.0000E+00   yforce=   0.0000E+00  zforce=  -1.8038E+02   energy=   4.6553E-02   setid =     868 xmoment=   0.0000E+00 ymoment=   0.0000E+00 zmoment=   0.0000E+00
 nd#     870  xforce=   0.0000E+00   yforce=   0.0000E+00  zforce=  -3.4780E+01   energy=   9.9371E-03   setid =     870 xmoment=   0.0000E+00 ymoment=   0.0000E+00 zmoment=   0.0000E+00
 nd#     880  xforce=   0.0000E+00   yforce=   0.0000E+00  zforce=   6.0485E+01   energy=  -1.2882E-02   setid =     880 xmoment=   0.0000E+00 ymoment=   0.0000E+00 zmoment=   0.0000E+00
 nd#     882  xforce=   0.0000E+00   yforce=   0.0000E+00  zforce=   5.6916E+01   energy=  -1.1026E-02   setid =     882 xmoment=   0.0000E+00 ymoment=   0.0000E+00 zmoment=   0.0000E+00
 nd#     884  xforce=   0.0000E+00   yforce=   0.0000E+00  zforce=   1.1803E+02   energy=  -2.4206E-02   setid =     884 xmoment=   0.0000E+00 ymoment=   0.0000E+00 zmoment=   0.0000E+00
 nd#     886  xforce=   0.0000E+00   yforce=   0.0000E+00  zforce=   8.1938E+01   energy=  -1.8183E-02   setid =     886 xmoment=   0.0000E+00 ymoment=   0.0000E+00 zmoment=   0.0000E+00
              xtotal=   0.0000E+00   ytotal=   0.0000E+00  ztotal=  -3.4671E+03   etotal=   8.4109E-01

 n o d a l   f o r c e/e n e r g y    o u t p u t  t=   1.57475E+01

 velocity boundary condition forces/rigid body moments 

 nd#     167  xforce=   0.0000E+00   yforce=   0.0000E+00  zforce=  -1.5526E+02   energy=   4.3929E-02   setid =     167 xmoment=   0.0000E+00 ymoment=   0.0000E+00 zmoment=   0.0000E+00
 nd#     168  xforce=   0.0000E+00   yforce=   0.0000E+00  zforce=  -4.4628E+01   energy=   1.1402E-02   setid =     168 xmoment=   0.0000E+00 ymoment=   0.0000E+00 zmoment=   0.0000E+00
 nd#     169  xforce=   0.0000E+00   yforce=   0.0000E+00  zforce=   1.5412E+02   energy=  -6.1942E-02   setid =     169 xmoment=   0.0000E+00 ymoment=   0.0000E+00 zmoment=   0.0000E+00
 nd#     170  xforce=   0.0000E+00   yforce=   0.0000E+00  zforce=  -2.1447E+01   energy=   1.4188E-03   setid =     170 xmoment=   0.0000E+00 ymoment=   0.0000E+00 zmoment=   0.0000E+00
 nd#     197  xforce=   0.0000E+00   yforce=   0.0000E+00  zforce=   1.6426E+01   energy=   2.2666E-03   setid =     197 xmoment=   0.0000E+00 ymoment=   0.0000E+00 zmoment=   0.0000E+00
 nd#     198  xforce=   0.0000E+00   yforce=   0.0000E+00  zforce=  -4.2347E+01   energy=   1.1210E-02   setid =     198 xmoment=   0.0000E+00 ymoment=   0.0000E+00 zmoment=   0.0000E+00
 nd#     225  xforce=   0.0000E+00   yforce=   0.0000E+00  zforce=  -9.8878E+01   energy=   3.9741E-02   setid =     225 xmoment=   0.0000E+00 ymoment=   0.0000E+00 zmoment=   0.0000E+00
 nd#     226  xforce=   0.0000E+00   yforce=   0.0000E+00  zforce=  -1.5130E+02   energy=   5.3742E-02   setid =     226 xmoment=   0.0000E+00 ymoment=   0.0000E+00 zmoment=   0.0000E+00
 nd#     279  xforce=   0.0000E+00   yforce=   0.0000E+00  zforce=  -1.5812E+02   energy=   6.2169E-02   setid =     279 xmoment=   0.0000E+00 ymoment=   0.0000E+00 zmoment=   0.0000E+00
 nd#     280  xforce=   0.0000E+00   yforce=   0.0000E+00  zforce=   2.8000E+01   energy=  -2.1236E-02   setid =     280 xmoment=   0.0000E+00 ymoment=   0.0000E+00 zmoment=   0.0000E+00
 nd#     281  xforce=   0.0000E+00   yforce=   0.0000E+00  zforce=  -8.4844E+01   energy=   1.6655E-02   setid =     281 xmoment=   0.0000E+00 ymoment=   0.0000E+00 zmoment=   0.0000E+00
 nd#     282  xforce=   0.0000E+00   yforce=   0.0000E+00  zforce=  -1.2669E+02   energy=   4.4975E-02   setid =     282 xmoment=   0.0000E+00 ymoment=   0.0000E+00 zmoment=   0.0000E+00
 nd#     296  xforce=   0.0000E+00   yforce=   0.0000E+00  zforce=  -7.8911E+01   energy=   2.9819E-02   setid =     296 xmoment=   0.0000E+00 ymoment=   0.0000E+00 zmoment=   0.0000E+00
 nd#     323  xforce=   0.0000E+00   yforce=   0.0000E+00  zforce=  -1.8803E+02   energy=   5.3528E-02   setid =     323 xmoment=   0.0000E+00 ymoment=   0.0000E+00 zmoment=   0.0000E+00
 nd#     324  xforce=   0.0000E+00   yforce=   0.0000E+00  zforce=  -1.1330E+02   energy=   3.0569E-02   setid =     324 xmoment=   0.0000E+00 ymoment=   0.0000E+00 zmoment=   0.0000E+00
 nd#     338  xforce=   0.0000E+00   yforce=   0.0000E+00  zforce=  -9.9197E+01   energy=   2.4718E-02   setid =     338 xmoment=   0.0000E+00 ymoment=   0.0000E+00 zmoment=   0.0000E+00
 nd#     352  xforce=   0.0000E+00   yforce=   0.0000E+00  zforce=  -8.8507E+01   energy=   2.8135E-02   setid =     352 xmoment=   0.0000E+00 ymoment=   0.0000E+00 zmoment=   0.0000E+00
 nd#     366  xforce=   0.0000E+00   yforce=   0.0000E+00  zforce=  -1.2748E+02   energy=   4.3234E-02   setid =     366 xmoment=   0.0000E+00 ymoment=   0.0000E+00 zmoment=   0.0000E+00
 nd#     380  xforce=   0.0000E+00   yforce=   0.0000E+00  zforce=  -8.0589E+01   energy=   2.5946E-02   setid =     380 xmoment=   0.0000E+00 ymoment=   0.0000E+00 zmoment=   0.0000E+00
 nd#     608  xforce=   0.0000E+00   yforce=   0.0000E+00  zforce=   1.2803E+01   energy=  -2.3324E-03   setid =     608 xmoment=   0.0000E+00 ymoment=   0.0000E+00 zmoment=   0.0000E+00
 nd#     609  xforce=   0.0000E+00   yforce=   0.0000E+00  zforce=  -7.8040E+01   energy=   2.4725E-02   setid =     609 xmoment=   0.0000E+00 ymoment=   0.0000E+00 zmoment=   0.0000E+00
 nd#     610  xforce=   0.0000E+00   yforce=   0.0000E+00  zforce=  -9.8746E+01   energy=   3.1639E-02   setid =     610 xmoment=   0.0000E+00 ymoment=   0.0000E+00 zmoment=   0.0000E+00
 nd#     611  xforce=   0.0000E+00   yforce=   0.0000E+00  zforce=  -1.1192E+02   energy=   3.7392E-02   setid =     611 xmoment=   0.0000E+00 ymoment=   0.0000E+00 zmoment=   0.0000E+00
 nd#     804  xforce=   0.0000E+00   yforce=   0.0000E+00  zforce=  -1.2317E+02   energy=   3.4173E-02   setid =     804 xmoment=   0.0000E+00 ymoment=   0.0000E+00 zmoment=   0.0000E+00
 nd#     806  xforce=   0.0000E+00   yforce=   0.0000E+00  zforce=  -2.0296E+02   energy=   5.9907E-02   setid =     806 xmoment=   0.0000E+00 ymoment=   0.0000E+00 zmoment=   0.0000E+00
 nd#     808  xforce=   0.0000E+00   yforce=   0.0000E+00  zforce=  -1.7377E+02   energy=   5.0979E-02   setid =     808 xmoment=   0.0000E+00 ymoment=   0.0000E+00 zmoment=   0.0000E+00
 nd#     810  xforce=   0.0000E+00   yforce=   0.0000E+00  zforce=  -7.8581E+01   energy=   2.6572E-02   setid =     810 xmoment=   0.0000E+00 ymoment=   0.0000E+00 zmoment=   0.0000E+00
 nd#     852  xforce=   0.0000E+00   yforce=   0.0000E+00  zforce=  -1.3793E+02   energy=   3.8857E-02   setid =     852 xmoment=   0.0000E+00 ymoment=   0.0000E+00 zmoment=   0.0000E+00
 nd#     854  xforce=   0.0000E+00   yforce=   0.0000E+00  zforce=  -2.0811E+02   energy=   6.1057E-02   setid =     854 xmoment=   0.0000E+00 ymoment=   0.0000E+00 zmoment=   0.0000E+00
 nd#     856  xforce=   0.0000E+00   yforce=   0.0000E+00  zforce=  -2.0655E+02   energy=   6.1391E-02   setid =     856 xmoment=   0.0000E+00 ymoment=   0.0000E+00 zmoment=   0.0000E+00
 nd#     858  xforce=   0.0000E+00   yforce=   0.0000E+00  zforce=  -7.2687E+01   energy=   2.4166E-02   setid =     858 xmoment=   0.0000E+00 ymoment=   0.0000E+00 zmoment=   0.0000E+00
 nd#     864  xforce=   0.0000E+00   yforce=   0.0000E+00  zforce=  -1.3011E+02   energy=   3.7529E-02   setid =     864 xmoment=   0.0000E+00 ymoment=   0.0000E+00 zmoment=   0.0000E+00
 nd#     866  xforce=   0.0000E+00   yforce=   0.0000E+00  zforce=  -2.0529E+02   energy=   6.0821E-02   setid =     866 xmoment=   0.0000E+00 ymoment=   0.0000E+00 zmoment=   0.0000E+00
 nd#     868  xforce=   0.0000E+00   yforce=   0.0000E+00  zforce=  -1.7448E+02   energy=   5.3617E-02   setid =     868 xmoment=   0.0000E+00 ymoment=   0.0000E+00 zmoment=   0.0000E+00
 nd#     870  xforce=   0.0000E+00   yforce=   0.0000E+00  zforce=  -2.9941E+01   energy=   1.1225E-02   setid =     870 xmoment=   0.0000E+00 ymoment=   0.0000E+00 zmoment=   0.0000E+00
 nd#     880  xforce=   0.0000E+00   yforce=   0.0000E+00  zforce=   5.5777E+01   energy=  -1.5197E-02   setid =     880 xmoment=   0.0000E+00 ymoment=   0.0000E+00 zmoment=   0.0000E+00
 nd#     882  xforce=   0.0000E+00   yforce=   0.0000E+00  zforce=   5.0449E+01   energy=  -1.3163E-02   setid =     882 xmoment=   0.0000E+00 ymoment=   0.0000E+00 zmoment=   0.0000E+00
 nd#     884  xforce=   0.0000E+00   yforce=   0.0000E+00  zforce=   9.6386E+01   energy=  -2.8474E-02   setid =     884 xmoment=   0.0000E+00 ymoment=   0.0000E+00 zmoment=   0.0000E+00
 nd#     886  xforce=   0.0000E+00   yforce=   0.0000E+00  zforce=   7.4183E+01   energy=  -2.1291E-02   setid =     886 xmoment=   0.0000E+00 ymoment=   0.0000E+00 zmoment=   0.0000E+00
              xtotal=   0.0000E+00   ytotal=   0.0000E+00  ztotal=  -3.2037E+03   etotal=   9.7387E-01

 n o d a l   f o r c e/e n e r g y    o u t p u t  t=   1.77381E+01

 velocity boundary condition forces/rigid body moments 

 nd#     167  xforce=   0.0000E+00   yforce=   0.0000E+00  zforce=  -1.3398E+02   energy=   4.9686E-02   setid =     167 xmoment=   0.0000E+00 ymoment=   0.0000E+00 zmoment=   0.0000E+00
 nd#     168  xforce=   0.0000E+00   yforce=   0.0000E+00  zforce=  -3.6500E+01   energy=   1.3017E-02   setid =     168 xmoment=   0.0000E+00 ymoment=   0.0000E+00 zmoment=   0.0000E+00
 nd#     169  xforce=   0.0000E+00   yforce=   0.0000E+00  zforce=   9.6977E+01   energy=  -6.6941E-02   setid =     169 xmoment=   0.0000E+00 ymoment=   0.0000E+00 zmoment=   0.0000E+00
 nd#     170  xforce=   0.0000E+00   yforce=   0.0000E+00  zforce=  -3.1024E+01   energy=   2.4633E-03   setid =     170 xmoment=   0.0000E+00 ymoment=   0.0000E+00 zmoment=   0.0000E+00
 nd#     197  xforce=   0.0000E+00   yforce=   0.0000E+00  zforce=   2.5031E+01   energy=   1.4414E-03   setid =     197 xmoment=   0.0000E+00 ymoment=   0.0000E+00 zmoment=   0.0000E+00
 nd#     198  xforce=   0.0000E+00   yforce=   0.0000E+00  zforce=  -5.0663E+01   energy=   1.3061E-02   setid =     198 xmoment=   0.0000E+00 ymoment=   0.0000E+00 zmoment=   0.0000E+00
 nd#     225  xforce=   0.0000E+00   yforce=   0.0000E+00  zforce=  -8.2138E+01   energy=   4.3344E-02   setid =     225 xmoment=   0.0000E+00 ymoment=   0.0000E+00 zmoment=   0.0000E+00
 nd#     226  xforce=   0.0000E+00   yforce=   0.0000E+00  zforce=  -1.3042E+02   energy=   5.9349E-02   setid =     226 xmoment=   0.0000E+00 ymoment=   0.0000E+00 zmoment=   0.0000E+00
 nd#     279  xforce=   0.0000E+00   yforce=   0.0000E+00  zforce=  -1.2797E+02   energy=   6.7863E-02   setid =     279 xmoment=   0.0000E+00 ymoment=   0.0000E+00 zmoment=   0.0000E+00
 nd#     280  xforce=   0.0000E+00   yforce=   0.0000E+00  zforce=  -1.9349E+00   energy=  -2.1755E-02   setid =     280 xmoment=   0.0000E+00 ymoment=   0.0000E+00 zmoment=   0.0000E+00
 nd#     281  xforce=   0.0000E+00   yforce=   0.0000E+00  zforce=  -8.5024E+01   energy=   2.0036E-02   setid =     281 xmoment=   0.0000E+00 ymoment=   0.0000E+00 zmoment=   0.0000E+00
 nd#     282  xforce=   0.0000E+00   yforce=   0.0000E+00  zforce=  -1.0544E+02   energy=   4.9596E-02   setid =     282 xmoment=   0.0000E+00 ymoment=   0.0000E+00 zmoment=   0.0000E+00
 nd#     296  xforce=   0.0000E+00   yforce=   0.0000E+00  zforce=  -5.7371E+01   energy=   3.2532E-02   setid =     296 xmoment=   0.0000E+00 ymoment=   0.0000E+00 zmoment=   0.0000E+00
 nd#     323  xforce=   0.0000E+00   yforce=   0.0000E+00  zforce=  -1.7756E+02   energy=   6.0805E-02   setid =     323 xmoment=   0.0000E+00 ymoment=   0.0000E+00 zmoment=   0.0000E+00
 nd#     324  xforce=   0.0000E+00   yforce=   0.0000E+00  zforce=  -1.1897E+02   energy=   3.5192E-02   setid =     324 xmoment=   0.0000E+00 ymoment=   0.0000E+00 zmoment=   0.0000E+00
 nd#     338  xforce=   0.0000E+00   yforce=   0.0000E+00  zforce=  -1.0772E+02   energy=   2.8836E-02   setid =     338 xmoment=   0.0000E+00 ymoment=   0.0000E+00 zmoment=   0.0000E+00
 nd#     352  xforce=   0.0000E+00   yforce=   0.0000E+00  zforce=  -7.7216E+01   energy=   3.1433E-02   setid =     352 xmoment=   0.0000E+00 ymoment=   0.0000E+00 zmoment=   0.0000E+00
 nd#     366  xforce=   0.0000E+00   yforce=   0.0000E+00  zforce=  -1.1817E+02   energy=   4.8124E-02   setid =     366 xmoment=   0.0000E+00 ymoment=   0.0000E+00 zmoment=   0.0000E+00
 nd#     380  xforce=   0.0000E+00   yforce=   0.0000E+00  zforce=  -7.1175E+01   energy=   2.8967E-02   setid =     380 xmoment=   0.0000E+00 ymoment=   0.0000E+00 zmoment=   0.0000E+00
 nd#     608  xforce=   0.0000E+00   yforce=   0.0000E+00  zforce=   8.8102E+00   energy=  -2.7627E-03   setid =     608 xmoment=   0.0000E+00 ymoment=   0.0000E+00 zmoment=   0.0000E+00
 nd#     609  xforce=   0.0000E+00   yforce=   0.0000E+00  zforce=  -7.3151E+01   energy=   2.7735E-02   setid =     609 xmoment=   0.0000E+00 ymoment=   0.0000E+00 zmoment=   0.0000E+00
 nd#     610  xforce=   0.0000E+00   yforce=   0.0000E+00  zforce=  -9.1512E+01   energy=   3.5426E-02   setid =     610 xmoment=   0.0000E+00 ymoment=   0.0000E+00 zmoment=   0.0000E+00
 nd#     611  xforce=   0.0000E+00   yforce=   0.0000E+00  zforce=  -1.0359E+02   energy=   4.1682E-02   setid =     611 xmoment=   0.0000E+00 ymoment=   0.0000E+00 zmoment=   0.0000E+00
 nd#     804  xforce=   0.0000E+00   yforce=   0.0000E+00  zforce=  -1.2548E+02   energy=   3.9123E-02   setid =     804 xmoment=   0.0000E+00 ymoment=   0.0000E+00 zmoment=   0.0000E+00
[...]
 nd#     324  xforce=   0.0000E+00   yforce=   0.0000E+00  zforce=  -5.4049E+01   energy=   1.8142E-01   setid =     324 xmoment=   0.0000E+00 ymoment=   0.0000E+00 zmoment=   0.0000E+00
 nd#     338  xforce=   0.0000E+00   yforce=   0.0000E+00  zforce=  -8.9479E+01   energy=   1.4879E-01   setid =     338 xmoment=   0.0000E+00 ymoment=   0.0000E+00 zmoment=   0.0000E+00
 nd#     352  xforce=   0.0000E+00   yforce=   0.0000E+00  zforce=   4.7577E+01   energy=   1.5366E-01   setid =     352 xmoment=   0.0000E+00 ymoment=   0.0000E+00 zmoment=   0.0000E+00
 nd#     366  xforce=   0.0000E+00   yforce=   0.0000E+00  zforce=   6.3799E+01   energy=   2.1156E-01   setid =     366 xmoment=   0.0000E+00 ymoment=   0.0000E+00 zmoment=   0.0000E+00
 nd#     380  xforce=   0.0000E+00   yforce=   0.0000E+00  zforce=   3.4516E+01   energy=   1.2700E-01   setid =     380 xmoment=   0.0000E+00 ymoment=   0.0000E+00 zmoment=   0.0000E+00
 nd#     608  xforce=   0.0000E+00   yforce=   0.0000E+00  zforce=   2.8609E+00   energy=  -2.4578E-02   setid =     608 xmoment=   0.0000E+00 ymoment=   0.0000E+00 zmoment=   0.0000E+00
 nd#     609  xforce=   0.0000E+00   yforce=   0.0000E+00  zforce=   9.9364E+00   energy=   1.1861E-01   setid =     609 xmoment=   0.0000E+00 ymoment=   0.0000E+00 zmoment=   0.0000E+00
 nd#     610  xforce=   0.0000E+00   yforce=   0.0000E+00  zforce=   2.2122E+01   energy=   1.5276E-01   setid =     610 xmoment=   0.0000E+00 ymoment=   0.0000E+00 zmoment=   0.0000E+00
 nd#     611  xforce=   0.0000E+00   yforce=   0.0000E+00  zforce=   4.1673E+01   energy=   1.7787E-01   setid =     611 xmoment=   0.0000E+00 ymoment=   0.0000E+00 zmoment=   0.0000E+00
 nd#     804  xforce=   0.0000E+00   yforce=   0.0000E+00  zforce=  -8.6403E+01   energy=   1.8344E-01   setid =     804 xmoment=   0.0000E+00 ymoment=   0.0000E+00 zmoment=   0.0000E+00
 nd#     806  xforce=   0.0000E+00   yforce=   0.0000E+00  zforce=  -4.9726E+01   energy=   3.4763E-01   setid =     806 xmoment=   0.0000E+00 ymoment=   0.0000E+00 zmoment=   0.0000E+00
 nd#     808  xforce=   0.0000E+00   yforce=   0.0000E+00  zforce=  -3.5442E+01   energy=   2.8216E-01   setid =     808 xmoment=   0.0000E+00 ymoment=   0.0000E+00 zmoment=   0.0000E+00
 nd#     810  xforce=   0.0000E+00   yforce=   0.0000E+00  zforce=   3.0699E+01   energy=   1.1927E-01   setid =     810 xmoment=   0.0000E+00 ymoment=   0.0000E+00 zmoment=   0.0000E+00
 nd#     852  xforce=   0.0000E+00   yforce=   0.0000E+00  zforce=  -7.5832E+01   energy=   2.0426E-01   setid =     852 xmoment=   0.0000E+00 ymoment=   0.0000E+00 zmoment=   0.0000E+00
 nd#     854  xforce=   0.0000E+00   yforce=   0.0000E+00  zforce=  -5.0062E+01   energy=   3.4495E-01   setid =     854 xmoment=   0.0000E+00 ymoment=   0.0000E+00 zmoment=   0.0000E+00
 nd#     856  xforce=   0.0000E+00   yforce=   0.0000E+00  zforce=  -1.6696E+01   energy=   3.3010E-01   setid =     856 xmoment=   0.0000E+00 ymoment=   0.0000E+00 zmoment=   0.0000E+00
 nd#     858  xforce=   0.0000E+00   yforce=   0.0000E+00  zforce=   2.3520E+01   energy=   1.0427E-01   setid =     858 xmoment=   0.0000E+00 ymoment=   0.0000E+00 zmoment=   0.0000E+00
 nd#     864  xforce=   0.0000E+00   yforce=   0.0000E+00  zforce=  -7.0896E+01   energy=   1.9344E-01   setid =     864 xmoment=   0.0000E+00 ymoment=   0.0000E+00 zmoment=   0.0000E+00
 nd#     866  xforce=   0.0000E+00   yforce=   0.0000E+00  zforce=  -4.5218E+01   energy=   3.3119E-01   setid =     866 xmoment=   0.0000E+00 ymoment=   0.0000E+00 zmoment=   0.0000E+00
 nd#     868  xforce=   0.0000E+00   yforce=   0.0000E+00  zforce=   2.7552E+01   energy=   2.6015E-01   setid =     868 xmoment=   0.0000E+00 ymoment=   0.0000E+00 zmoment=   0.0000E+00
 nd#     870  xforce=   0.0000E+00   yforce=   0.0000E+00  zforce=   4.9220E+00   energy=   2.3188E-02   setid =     870 xmoment=   0.0000E+00 ymoment=   0.0000E+00 zmoment=   0.0000E+00
 nd#     880  xforce=   0.0000E+00   yforce=   0.0000E+00  zforce=  -2.7088E+01   energy=  -9.9921E-02   setid =     880 xmoment=   0.0000E+00 ymoment=   0.0000E+00 zmoment=   0.0000E+00
 nd#     882  xforce=   0.0000E+00   yforce=   0.0000E+00  zforce=  -9.3206E+00   energy=  -8.3323E-02   setid =     882 xmoment=   0.0000E+00 ymoment=   0.0000E+00 zmoment=   0.0000E+00
 nd#     884  xforce=   0.0000E+00   yforce=   0.0000E+00  zforce=  -1.8442E+01   energy=  -1.6729E-01   setid =     884 xmoment=   0.0000E+00 ymoment=   0.0000E+00 zmoment=   0.0000E+00
 nd#     886  xforce=   0.0000E+00   yforce=   0.0000E+00  zforce=  -4.3455E+01   energy=  -1.2178E-01   setid =     886 xmoment=   0.0000E+00 ymoment=   0.0000E+00 zmoment=   0.0000E+00
              xtotal=   0.0000E+00   ytotal=   0.0000E+00  ztotal=  -4.3163E+02   etotal=   5.0546E+00

 n o d a l   f o r c e/e n e r g y    o u t p u t  t=   9.90493E+01

 velocity boundary condition forces/rigid body moments 

 nd#     167  xforce=   0.0000E+00   yforce=   0.0000E+00  zforce=  -5.7315E+00   energy=   2.7628E-01   setid =     167 xmoment=   0.0000E+00 ymoment=   0.0000E+00 zmoment=   0.0000E+00
 nd#     168  xforce=   0.0000E+00   yforce=   0.0000E+00  zforce=  -6.0154E+00   energy=   8.0300E-02   setid =     168 xmoment=   0.0000E+00 ymoment=   0.0000E+00 zmoment=   0.0000E+00
 nd#     169  xforce=   0.0000E+00   yforce=   0.0000E+00  zforce=  -3.2380E+02   energy=  -2.4773E-01   setid =     169 xmoment=   0.0000E+00 ymoment=   0.0000E+00 zmoment=   0.0000E+00
 nd#     170  xforce=   0.0000E+00   yforce=   0.0000E+00  zforce=  -1.0279E+02   energy=   2.1616E-02   setid =     170 xmoment=   0.0000E+00 ymoment=   0.0000E+00 zmoment=   0.0000E+00
 nd#     197  xforce=   0.0000E+00   yforce=   0.0000E+00  zforce=   8.1868E+01   energy=  -5.4665E-02   setid =     197 xmoment=   0.0000E+00 ymoment=   0.0000E+00 zmoment=   0.0000E+00
 nd#     198  xforce=   0.0000E+00   yforce=   0.0000E+00  zforce=  -2.9251E+01   energy=   7.0014E-02   setid =     198 xmoment=   0.0000E+00 ymoment=   0.0000E+00 zmoment=   0.0000E+00
 nd#     225  xforce=   0.0000E+00   yforce=   0.0000E+00  zforce=   8.9218E+01   energy=   1.5121E-01   setid =     225 xmoment=   0.0000E+00 ymoment=   0.0000E+00 zmoment=   0.0000E+00
 nd#     226  xforce=   0.0000E+00   yforce=   0.0000E+00  zforce=   1.1764E+02   energy=   2.5209E-01   setid =     226 xmoment=   0.0000E+00 ymoment=   0.0000E+00 zmoment=   0.0000E+00
 nd#     279  xforce=   0.0000E+00   yforce=   0.0000E+00  zforce=   1.9338E+02   energy=   2.4831E-01   setid =     279 xmoment=   0.0000E+00 ymoment=   0.0000E+00 zmoment=   0.0000E+00
 nd#     280  xforce=   0.0000E+00   yforce=   0.0000E+00  zforce=  -1.0695E+02   energy=  -7.3443E-02   setid =     280 xmoment=   0.0000E+00 ymoment=   0.0000E+00 zmoment=   0.0000E+00
 nd#     281  xforce=   0.0000E+00   yforce=   0.0000E+00  zforce=  -4.0367E+01   energy=   1.4977E-01   setid =     281 xmoment=   0.0000E+00 ymoment=   0.0000E+00 zmoment=   0.0000E+00
 nd#     282  xforce=   0.0000E+00   yforce=   0.0000E+00  zforce=   9.9224E+01   energy=   2.1799E-01   setid =     282 xmoment=   0.0000E+00 ymoment=   0.0000E+00 zmoment=   0.0000E+00
 nd#     296  xforce=   0.0000E+00   yforce=   0.0000E+00  zforce=   1.0558E+02   energy=   1.3198E-01   setid =     296 xmoment=   0.0000E+00 ymoment=   0.0000E+00 zmoment=   0.0000E+00
 nd#     323  xforce=   0.0000E+00   yforce=   0.0000E+00  zforce=  -2.6511E+01   energy=   3.3277E-01   setid =     323 xmoment=   0.0000E+00 ymoment=   0.0000E+00 zmoment=   0.0000E+00
 nd#     324  xforce=   0.0000E+00   yforce=   0.0000E+00  zforce=  -4.6120E+01   energy=   1.8458E-01   setid =     324 xmoment=   0.0000E+00 ymoment=   0.0000E+00 zmoment=   0.0000E+00
 nd#     338  xforce=   0.0000E+00   yforce=   0.0000E+00  zforce=  -1.0053E+02   energy=   1.5478E-01   setid =     338 xmoment=   0.0000E+00 ymoment=   0.0000E+00 zmoment=   0.0000E+00
 nd#     352  xforce=   0.0000E+00   yforce=   0.0000E+00  zforce=   5.1664E+01   energy=   1.5052E-01   setid =     352 xmoment=   0.0000E+00 ymoment=   0.0000E+00 zmoment=   0.0000E+00
 nd#     366  xforce=   0.0000E+00   yforce=   0.0000E+00  zforce=   8.0052E+01   energy=   2.0703E-01   setid =     366 xmoment=   0.0000E+00 ymoment=   0.0000E+00 zmoment=   0.0000E+00
 nd#     380  xforce=   0.0000E+00   yforce=   0.0000E+00  zforce=   4.5816E+01   energy=   1.2447E-01   setid =     380 xmoment=   0.0000E+00 ymoment=   0.0000E+00 zmoment=   0.0000E+00
 nd#     608  xforce=   0.0000E+00   yforce=   0.0000E+00  zforce=   9.1895E+00   energy=  -2.4958E-02   setid =     608 xmoment=   0.0000E+00 ymoment=   0.0000E+00 zmoment=   0.0000E+00
 nd#     609  xforce=   0.0000E+00   yforce=   0.0000E+00  zforce=   3.0908E+01   energy=   1.1732E-01   setid =     609 xmoment=   0.0000E+00 ymoment=   0.0000E+00 zmoment=   0.0000E+00
 nd#     610  xforce=   0.0000E+00   yforce=   0.0000E+00  zforce=   4.2202E+01   energy=   1.5073E-01   setid =     610 xmoment=   0.0000E+00 ymoment=   0.0000E+00 zmoment=   0.0000E+00
 nd#     611  xforce=   0.0000E+00   yforce=   0.0000E+00  zforce=   5.8858E+01   energy=   1.7470E-01   setid =     611 xmoment=   0.0000E+00 ymoment=   0.0000E+00 zmoment=   0.0000E+00
 nd#     804  xforce=   0.0000E+00   yforce=   0.0000E+00  zforce=  -7.7645E+01   energy=   1.8861E-01   setid =     804 xmoment=   0.0000E+00 ymoment=   0.0000E+00 zmoment=   0.0000E+00
 nd#     806  xforce=   0.0000E+00   yforce=   0.0000E+00  zforce=  -1.7667E+01   energy=   3.4975E-01   setid =     806 xmoment=   0.0000E+00 ymoment=   0.0000E+00 zmoment=   0.0000E+00
 nd#     808  xforce=   0.0000E+00   yforce=   0.0000E+00  zforce=  -1.5202E+01   energy=   2.8376E-01   setid =     808 xmoment=   0.0000E+00 ymoment=   0.0000E+00 zmoment=   0.0000E+00
 nd#     810  xforce=   0.0000E+00   yforce=   0.0000E+00  zforce=   4.3562E+01   energy=   1.1693E-01   setid =     810 xmoment=   0.0000E+00 ymoment=   0.0000E+00 zmoment=   0.0000E+00
 nd#     852  xforce=   0.0000E+00   yforce=   0.0000E+00  zforce=  -5.0928E+01   energy=   2.0826E-01   setid =     852 xmoment=   0.0000E+00 ymoment=   0.0000E+00 zmoment=   0.0000E+00
 nd#     854  xforce=   0.0000E+00   yforce=   0.0000E+00  zforce=  -1.5793E+01   energy=   3.4703E-01   setid =     854 xmoment=   0.0000E+00 ymoment=   0.0000E+00 zmoment=   0.0000E+00
 nd#     856  xforce=   0.0000E+00   yforce=   0.0000E+00  zforce=   1.3978E+01   energy=   3.3019E-01   setid =     856 xmoment=   0.0000E+00 ymoment=   0.0000E+00 zmoment=   0.0000E+00
 nd#     858  xforce=   0.0000E+00   yforce=   0.0000E+00  zforce=   3.7050E+01   energy=   1.0236E-01   setid =     858 xmoment=   0.0000E+00 ymoment=   0.0000E+00 zmoment=   0.0000E+00
 nd#     864  xforce=   0.0000E+00   yforce=   0.0000E+00  zforce=  -3.3888E+01   energy=   1.9675E-01   setid =     864 xmoment=   0.0000E+00 ymoment=   0.0000E+00 zmoment=   0.0000E+00
 nd#     866  xforce=   0.0000E+00   yforce=   0.0000E+00  zforce=  -4.9062E+00   energy=   3.3277E-01   setid =     866 xmoment=   0.0000E+00 ymoment=   0.0000E+00 zmoment=   0.0000E+00
 nd#     868  xforce=   0.0000E+00   yforce=   0.0000E+00  zforce=   6.5275E+01   energy=   2.5722E-01   setid =     868 xmoment=   0.0000E+00 ymoment=   0.0000E+00 zmoment=   0.0000E+00
 nd#     870  xforce=   0.0000E+00   yforce=   0.0000E+00  zforce=   1.8097E+01   energy=   2.2461E-02   setid =     870 xmoment=   0.0000E+00 ymoment=   0.0000E+00 zmoment=   0.0000E+00
 nd#     880  xforce=   0.0000E+00   yforce=   0.0000E+00  zforce=  -1.5235E+01   energy=  -9.8586E-02   setid =     880 xmoment=   0.0000E+00 ymoment=   0.0000E+00 zmoment=   0.0000E+00
 nd#     882  xforce=   0.0000E+00   yforce=   0.0000E+00  zforce=   3.7786E+00   energy=  -8.3148E-02   setid =     882 xmoment=   0.0000E+00 ymoment=   0.0000E+00 zmoment=   0.0000E+00
 nd#     884  xforce=   0.0000E+00   yforce=   0.0000E+00  zforce=   1.8387E+00   energy=  -1.6676E-01   setid =     884 xmoment=   0.0000E+00 ymoment=   0.0000E+00 zmoment=   0.0000E+00
 nd#     886  xforce=   0.0000E+00   yforce=   0.0000E+00  zforce=  -3.7640E+01   energy=  -1.1922E-01   setid =     886 xmoment=   0.0000E+00 ymoment=   0.0000E+00 zmoment=   0.0000E+00
              xtotal=   0.0000E+00   ytotal=   0.0000E+00  ztotal=   1.3222E+02   etotal=   5.0640E+00

 n o d a l   f o r c e/e n e r g y    o u t p u t  t=   1.00000E+02

 velocity boundary condition forces/rigid body moments 

 nd#     167  xforce=   0.0000E+00   yforce=   0.0000E+00  zforce=   7.6017E+00   energy=   2.7626E-01   setid =     167 xmoment=   0.0000E+00 ymoment=   0.0000E+00 zmoment=   0.0000E+00
 nd#     168  xforce=   0.0000E+00   yforce=   0.0000E+00  zforce=   1.3092E+00   energy=   8.0345E-02   setid =     168 xmoment=   0.0000E+00 ymoment=   0.0000E+00 zmoment=   0.0000E+00
 nd#     169  xforce=   0.0000E+00   yforce=   0.0000E+00  zforce=  -3.4459E+02   energy=  -2.4138E-01   setid =     169 xmoment=   0.0000E+00 ymoment=   0.0000E+00 zmoment=   0.0000E+00
 nd#     170  xforce=   0.0000E+00   yforce=   0.0000E+00  zforce=  -1.1431E+02   energy=   2.3680E-02   setid =     170 xmoment=   0.0000E+00 ymoment=   0.0000E+00 zmoment=   0.0000E+00
 nd#     197  xforce=   0.0000E+00   yforce=   0.0000E+00  zforce=   8.8926E+01   energy=  -5.6289E-02   setid =     197 xmoment=   0.0000E+00 ymoment=   0.0000E+00 zmoment=   0.0000E+00
 nd#     198  xforce=   0.0000E+00   yforce=   0.0000E+00  zforce=  -3.9267E+01   energy=   7.0666E-02   setid =     198 xmoment=   0.0000E+00 ymoment=   0.0000E+00 zmoment=   0.0000E+00
 nd#     225  xforce=   0.0000E+00   yforce=   0.0000E+00  zforce=   9.3569E+01   energy=   1.4947E-01   setid =     225 xmoment=   0.0000E+00 ymoment=   0.0000E+00 zmoment=   0.0000E+00
 nd#     226  xforce=   0.0000E+00   yforce=   0.0000E+00  zforce=   1.3056E+02   energy=   2.4973E-01   setid =     226 xmoment=   0.0000E+00 ymoment=   0.0000E+00 zmoment=   0.0000E+00
 nd#     279  xforce=   0.0000E+00   yforce=   0.0000E+00  zforce=   2.0645E+02   energy=   2.4451E-01   setid =     279 xmoment=   0.0000E+00 ymoment=   0.0000E+00 zmoment=   0.0000E+00
 nd#     280  xforce=   0.0000E+00   yforce=   0.0000E+00  zforce=  -1.2879E+02   energy=  -7.1202E-02   setid =     280 xmoment=   0.0000E+00 ymoment=   0.0000E+00 zmoment=   0.0000E+00
 nd#     281  xforce=   0.0000E+00   yforce=   0.0000E+00  zforce=  -4.9460E+01   energy=   1.5063E-01   setid =     281 xmoment=   0.0000E+00 ymoment=   0.0000E+00 zmoment=   0.0000E+00
 nd#     282  xforce=   0.0000E+00   yforce=   0.0000E+00  zforce=   1.0520E+02   energy=   2.1605E-01   setid =     282 xmoment=   0.0000E+00 ymoment=   0.0000E+00 zmoment=   0.0000E+00
 nd#     296  xforce=   0.0000E+00   yforce=   0.0000E+00  zforce=   1.1004E+02   energy=   1.2993E-01   setid =     296 xmoment=   0.0000E+00 ymoment=   0.0000E+00 zmoment=   0.0000E+00
 nd#     323  xforce=   0.0000E+00   yforce=   0.0000E+00  zforce=  -2.5112E+01   energy=   3.3326E-01   setid =     323 xmoment=   0.0000E+00 ymoment=   0.0000E+00 zmoment=   0.0000E+00
 nd#     324  xforce=   0.0000E+00   yforce=   0.0000E+00  zforce=  -4.9645E+01   energy=   1.8549E-01   setid =     324 xmoment=   0.0000E+00 ymoment=   0.0000E+00 zmoment=   0.0000E+00
 nd#     338  xforce=   0.0000E+00   yforce=   0.0000E+00  zforce=  -1.1108E+02   energy=   1.5679E-01   setid =     338 xmoment=   0.0000E+00 ymoment=   0.0000E+00 zmoment=   0.0000E+00
 nd#     352  xforce=   0.0000E+00   yforce=   0.0000E+00  zforce=   4.7621E+01   energy=   1.4958E-01   setid =     352 xmoment=   0.0000E+00 ymoment=   0.0000E+00 zmoment=   0.0000E+00
 nd#     366  xforce=   0.0000E+00   yforce=   0.0000E+00  zforce=   8.2641E+01   energy=   2.0548E-01   setid =     366 xmoment=   0.0000E+00 ymoment=   0.0000E+00 zmoment=   0.0000E+00
 nd#     380  xforce=   0.0000E+00   yforce=   0.0000E+00  zforce=   4.8282E+01   energy=   1.2358E-01   setid =     380 xmoment=   0.0000E+00 ymoment=   0.0000E+00 zmoment=   0.0000E+00
 nd#     608  xforce=   0.0000E+00   yforce=   0.0000E+00  zforce=   8.1338E+00   energy=  -2.5123E-02   setid =     608 xmoment=   0.0000E+00 ymoment=   0.0000E+00 zmoment=   0.0000E+00
 nd#     609  xforce=   0.0000E+00   yforce=   0.0000E+00  zforce=   2.9961E+01   energy=   1.1674E-01   setid =     609 xmoment=   0.0000E+00 ymoment=   0.0000E+00 zmoment=   0.0000E+00
 nd#     610  xforce=   0.0000E+00   yforce=   0.0000E+00  zforce=   4.2029E+01   energy=   1.4993E-01   setid =     610 xmoment=   0.0000E+00 ymoment=   0.0000E+00 zmoment=   0.0000E+00
 nd#     611  xforce=   0.0000E+00   yforce=   0.0000E+00  zforce=   6.0511E+01   energy=   1.7356E-01   setid =     611 xmoment=   0.0000E+00 ymoment=   0.0000E+00 zmoment=   0.0000E+00
 nd#     804  xforce=   0.0000E+00   yforce=   0.0000E+00  zforce=  -8.2622E+01   energy=   1.9013E-01   setid =     804 xmoment=   0.0000E+00 ymoment=   0.0000E+00 zmoment=   0.0000E+00
 nd#     806  xforce=   0.0000E+00   yforce=   0.0000E+00  zforce=  -1.8822E+01   energy=   3.5010E-01   setid =     806 xmoment=   0.0000E+00 ymoment=   0.0000E+00 zmoment=   0.0000E+00
 nd#     808  xforce=   0.0000E+00   yforce=   0.0000E+00  zforce=  -1.9508E+01   energy=   2.8409E-01   setid =     808 xmoment=   0.0000E+00 ymoment=   0.0000E+00 zmoment=   0.0000E+00
 nd#     810  xforce=   0.0000E+00   yforce=   0.0000E+00  zforce=   4.2843E+01   energy=   1.1611E-01   setid =     810 xmoment=   0.0000E+00 ymoment=   0.0000E+00 zmoment=   0.0000E+00
 nd#     852  xforce=   0.0000E+00   yforce=   0.0000E+00  zforce=  -5.5392E+01   energy=   2.0927E-01   setid =     852 xmoment=   0.0000E+00 ymoment=   0.0000E+00 zmoment=   0.0000E+00
 nd#     854  xforce=   0.0000E+00   yforce=   0.0000E+00  zforce=  -1.7870E+01   energy=   3.4735E-01   setid =     854 xmoment=   0.0000E+00 ymoment=   0.0000E+00 zmoment=   0.0000E+00
 nd#     856  xforce=   0.0000E+00   yforce=   0.0000E+00  zforce=   1.0647E+01   energy=   3.2995E-01   setid =     856 xmoment=   0.0000E+00 ymoment=   0.0000E+00 zmoment=   0.0000E+00
 nd#     858  xforce=   0.0000E+00   yforce=   0.0000E+00  zforce=   3.5536E+01   energy=   1.0167E-01   setid =     858 xmoment=   0.0000E+00 ymoment=   0.0000E+00 zmoment=   0.0000E+00
 nd#     864  xforce=   0.0000E+00   yforce=   0.0000E+00  zforce=  -3.7226E+01   energy=   1.9742E-01   setid =     864 xmoment=   0.0000E+00 ymoment=   0.0000E+00 zmoment=   0.0000E+00
 nd#     866  xforce=   0.0000E+00   yforce=   0.0000E+00  zforce=  -7.4037E+00   energy=   3.3289E-01   setid =     866 xmoment=   0.0000E+00 ymoment=   0.0000E+00 zmoment=   0.0000E+00
 nd#     868  xforce=   0.0000E+00   yforce=   0.0000E+00  zforce=   6.2236E+01   energy=   2.5600E-01   setid =     868 xmoment=   0.0000E+00 ymoment=   0.0000E+00 zmoment=   0.0000E+00
 nd#     870  xforce=   0.0000E+00   yforce=   0.0000E+00  zforce=   1.5089E+01   energy=   2.2146E-02   setid =     870 xmoment=   0.0000E+00 ymoment=   0.0000E+00 zmoment=   0.0000E+00
 nd#     880  xforce=   0.0000E+00   yforce=   0.0000E+00  zforce=  -1.7913E+01   energy=  -9.8271E-02   setid =     880 xmoment=   0.0000E+00 ymoment=   0.0000E+00 zmoment=   0.0000E+00
 nd#     882  xforce=   0.0000E+00   yforce=   0.0000E+00  zforce=   1.2773E+00   energy=  -8.3196E-02   setid =     882 xmoment=   0.0000E+00 ymoment=   0.0000E+00 zmoment=   0.0000E+00
 nd#     884  xforce=   0.0000E+00   yforce=   0.0000E+00  zforce=   1.5530E+00   energy=  -1.6680E-01   setid =     884 xmoment=   0.0000E+00 ymoment=   0.0000E+00 zmoment=   0.0000E+00
 nd#     886  xforce=   0.0000E+00   yforce=   0.0000E+00  zforce=  -3.9117E+01   energy=  -1.1849E-01   setid =     886 xmoment=   0.0000E+00 ymoment=   0.0000E+00 zmoment=   0.0000E+00
              xtotal=   0.0000E+00   ytotal=   0.0000E+00  ztotal=   7.3887E+01   etotal=   5.0621E+00
