 LS-DYNA keyword deck by LS-PrePost                                      
                    ls-dyna smp d R14 R14.1.1s_1_ef50e1 date 06/16/2024



 n o d a l  s t r e s s  c a l c u l a t i o n s   f o r   t i m e  s t e p        1   ( at time 0.00000E+00 )

 node (global)
          stress       sig-xx      sig-yy      sig-zz      sig-xy      sig-yz      sig-zx       plastic
                                                                                                 strain 
       1-
 mid.  surface    -1.6011E-04 -1.6011E-04 -1.6011E-04  0.0000E+00  0.0000E+00  0.0000E+00  0.0000E+00
       2-
 mid.  surface    -1.1843E-04 -1.1843E-04 -1.1843E-04  0.0000E+00  0.0000E+00  0.0000E+00  0.0000E+00
       8-
 mid.  surface    -2.9208E-05 -2.9208E-05 -2.9208E-05  0.0000E+00  0.0000E+00  0.0000E+00  0.0000E+00
       9-
 mid.  surface     8.3865E-05  8.3865E-05  8.3865E-05  0.0000E+00  0.0000E+00  0.0000E+00  0.0000E+00
      10-
 mid.  surface     2.2199E-05  2.2199E-05  2.2199E-05  0.0000E+00  0.0000E+00  0.0000E+00  0.0000E+00
      11-
 mid.  surface    -4.6801E-05 -4.6801E-05 -4.6801E-05  0.0000E+00  0.0000E+00  0.0000E+00  0.0000E+00
      12-
 mid.  surface     1.5223E-05  1.5223E-05  1.5223E-05  0.0000E+00  0.0000E+00  0.0000E+00  0.0000E+00
      17-
 mid.  surface    -7.2808E-06 -7.2808E-06 -7.2808E-06  0.0000E+00  0.0000E+00  0.0000E+00  0.0000E+00
      18-
 mid.  surface    -3.9787E-05 -3.9787E-05 -3.9787E-05  0.0000E+00  0.0000E+00  0.0000E+00  0.0000E+00
      19-
 mid.  surface     2.0352E-05  2.0352E-05  2.0352E-05  0.0000E+00  0.0000E+00  0.0000E+00  0.0000E+00
      20-
 mid.  surface     3.8997E-05  3.8997E-05  3.8997E-05  0.0000E+00  0.0000E+00  0.0000E+00  0.0000E+00
      21-
 mid.  surface     4.7947E-05  4.7947E-05  4.7947E-05  0.0000E+00  0.0000E+00  0.0000E+00  0.0000E+00
      22-
 mid.  surface     2.7110E-05  2.7110E-05  2.7110E-05  0.0000E+00  0.0000E+00  0.0000E+00  0.0000E+00
      23-
 mid.  surface    -5.2270E-07 -5.2270E-07 -5.2270E-07  0.0000E+00  0.0000E+00  0.0000E+00  0.0000E+00
      40-
 mid.  surface     5.2769E-05  5.2769E-05  5.2769E-05  0.0000E+00  0.0000E+00  0.0000E+00  0.0000E+00
      41-
 mid.  surface     8.6452E-06  8.6452E-06  8.6452E-06  0.0000E+00  0.0000E+00  0.0000E+00  0.0000E+00
      85-
 mid.  surface    -1.5617E-05 -1.5617E-05 -1.5617E-05  0.0000E+00  0.0000E+00  0.0000E+00  0.0000E+00
      86-
 mid.  surface    -5.2982E-05 -5.2982E-05 -5.2982E-05  0.0000E+00  0.0000E+00  0.0000E+00  0.0000E+00
     100-
 mid.  surface    -1.1256E-04 -1.1256E-04 -1.1256E-04  0.0000E+00  0.0000E+00  0.0000E+00  0.0000E+00
     110-
 mid.  surface     3.6241E-05  3.6241E-05  3.6241E-05  0.0000E+00  0.0000E+00  0.0000E+00  0.0000E+00



 n o d a l  s t r a i n  c a l c u l a t i o n s   f o r   t i m e  s t e p        1   ( at time 0.00000E+00 )

 node (global)
          strain       eps-xx      eps-yy      eps-zz      eps-xy      eps-yz      eps-zx       
       1-
 mid.  surface     0.0000E+00  0.0000E+00  0.0000E+00  0.0000E+00  0.0000E+00  0.0000E+00
       2-
 mid.  surface     0.0000E+00  0.0000E+00  0.0000E+00  0.0000E+00  0.0000E+00  0.0000E+00
       8-
 mid.  surface     0.0000E+00  0.0000E+00  0.0000E+00  0.0000E+00  0.0000E+00  0.0000E+00
       9-
 mid.  surface     0.0000E+00  0.0000E+00  0.0000E+00  0.0000E+00  0.0000E+00  0.0000E+00
      10-
 mid.  surface     0.0000E+00  0.0000E+00  0.0000E+00  0.0000E+00  0.0000E+00  0.0000E+00
      11-
 mid.  surface     0.0000E+00  0.0000E+00  0.0000E+00  0.0000E+00  0.0000E+00  0.0000E+00
      12-
 mid.  surface     0.0000E+00  0.0000E+00  0.0000E+00  0.0000E+00  0.0000E+00  0.0000E+00
      17-
 mid.  surface     0.0000E+00  0.0000E+00  0.0000E+00  0.0000E+00  0.0000E+00  0.0000E+00
      18-
 mid.  surface     0.0000E+00  0.0000E+00  0.0000E+00  0.0000E+00  0.0000E+00  0.0000E+00
      19-
 mid.  surface     0.0000E+00  0.0000E+00  0.0000E+00  0.0000E+00  0.0000E+00  0.0000E+00
      20-
 mid.  surface     0.0000E+00  0.0000E+00  0.0000E+00  0.0000E+00  0.0000E+00  0.0000E+00
      21-
 mid.  surface     0.0000E+00  0.0000E+00  0.0000E+00  0.0000E+00  0.0000E+00  0.0000E+00
      22-
 mid.  surface     0.0000E+00  0.0000E+00  0.0000E+00  0.0000E+00  0.0000E+00  0.0000E+00
      23-
 mid.  surface     0.0000E+00  0.0000E+00  0.0000E+00  0.0000E+00  0.0000E+00  0.0000E+00
      40-
 mid.  surface     0.0000E+00  0.0000E+00  0.0000E+00  0.0000E+00  0.0000E+00  0.0000E+00
      41-
 mid.  surface     0.0000E+00  0.0000E+00  0.0000E+00  0.0000E+00  0.0000E+00  0.0000E+00
      85-
 mid.  surface     0.0000E+00  0.0000E+00  0.0000E+00  0.0000E+00  0.0000E+00  0.0000E+00
      86-
 mid.  surface     0.0000E+00  0.0000E+00  0.0000E+00  0.0000E+00  0.0000E+00  0.0000E+00
     100-
 mid.  surface     0.0000E+00  0.0000E+00  0.0000E+00  0.0000E+00  0.0000E+00  0.0000E+00
     110-
 mid.  surface     0.0000E+00  0.0000E+00  0.0000E+00  0.0000E+00  0.0000E+00  0.0000E+00



 n o d a l  s t r e s s  c a l c u l a t i o n s   f o r   t i m e  s t e p       10   ( at time 1.29245E+00 )

 node (global)
          stress       sig-xx      sig-yy      sig-zz      sig-xy      sig-yz      sig-zx       plastic
                                                                                                 strain 
       1-
 mid.  surface    -2.0494E+07 -4.1398E+07 -2.8995E+08  5.7239E+07 -1.4005E+07 -5.7151E+07 -4.8445E-05
       2-
 mid.  surface    -6.9766E+07 -3.7827E+07 -2.9685E+08  2.8656E+07 -5.3419E+06 -2.2496E+06  7.3217E-04
       8-
 mid.  surface    -2.4704E+07  6.5425E+07 -2.2913E+08 -1.2545E+07 -2.5062E+06  4.6014E+06 -1.0923E-04
       9-
 mid.  surface    -6.1410E+07 -3.4720E+07 -3.0183E+08 -2.6847E+07 -7.2674E+06  1.1389E+07  6.1317E-04
      10-
 mid.  surface    -5.4283E+07 -1.4063E+07 -2.7499E+08  1.0611E+07 -2.6523E+07  2.5801E+07  7.2718E-04
      11-
 mid.  surface    -2.0671E+07 -1.1447E+07 -2.6368E+08  2.5701E+07 -1.0229E+08 -7.4319E+06  3.9214E-04
      12-
 mid.  surface    -5.0723E+07 -4.7077E+07 -2.7957E+08  1.8455E+07 -8.9763E+07 -3.8682E+07  1.7088E-04
      17-
 mid.  surface     2.5098E+07 -1.4359E+07 -2.2339E+08  2.7126E+07 -4.5821E+07 -3.2254E+07  2.8475E-04
      18-
 mid.  surface    -1.0843E+07  4.4823E+07 -2.1298E+08  3.6193E+07 -7.2354E+06 -9.3215E+06  1.3725E-04
      19-
 mid.  surface    -4.0429E+07 -4.4343E+07 -2.5203E+08 -1.2352E+07 -2.8572E+07 -1.2871E+07  6.7379E-04
      20-
 mid.  surface    -2.2244E+07 -7.3881E+07 -2.9981E+08  1.8840E+07  2.4213E+07  2.1897E+07  2.0805E-04
      21-
 mid.  surface    -8.1523E+07 -8.6136E+07 -3.1324E+08 -1.9597E+07  2.1634E+07  1.2719E+07  5.8731E-04
      22-
 mid.  surface    -1.0316E+08 -1.0918E+08 -3.5900E+08  1.2687E+07  2.9696E+07 -4.1205E+07  4.9981E-05
      23-
 mid.  surface    -7.0273E+07 -7.4969E+07 -3.6328E+08  2.1006E+07  2.6867E+07 -3.2551E+07  1.8362E-04
      40-
 mid.  surface    -8.2930E+07 -5.0328E+07 -3.1543E+08  7.3447E+06 -1.1248E+07 -3.1017E+07  6.5440E-04
      41-
 mid.  surface    -4.2297E+07  5.4864E+06 -2.5289E+08  3.2215E+07 -1.3286E+07 -3.2661E+06  7.7397E-05
      85-
 mid.  surface    -1.1499E+08 -7.2789E+07 -3.4573E+08  2.1844E+07  3.1650E+07 -7.6595E+06  6.5950E-04
      86-
 mid.  surface    -7.6411E+07 -9.6791E+07 -3.4246E+08  5.1345E+07  7.5024E+07 -5.1740E+07 -6.6306E-05
     100-
 mid.  surface    -4.9129E+07  3.6268E+07 -2.5063E+08 -1.0103E+07 -2.5062E+07 -1.3034E+06 -1.3070E-04
     110-
 mid.  surface    -8.3673E+07 -6.4873E+07 -3.2537E+08 -2.5604E+07 -3.1830E+07 -3.3378E+07  5.7768E-04



 n o d a l  s t r a i n  c a l c u l a t i o n s   f o r   t i m e  s t e p       10   ( at time 1.29245E+00 )

 node (global)
          strain       eps-xx      eps-yy      eps-zz      eps-xy      eps-yz      eps-zx       
       1-
 mid.  surface     1.3261E-03  7.5659E-04 -3.7510E-03  1.1719E-03 -2.3025E-04 -1.1599E-03
       2-
 mid.  surface     1.5089E-03  2.1960E-03 -5.6261E-03  7.5611E-04 -1.5102E-04 -4.7722E-04
       8-
 mid.  surface     1.5260E-04  2.1186E-03 -3.1652E-03 -3.0970E-04  5.2356E-05  1.0504E-04
       9-
 mid.  surface     1.4899E-03  2.1392E-03 -5.5246E-03 -5.2347E-04 -3.2760E-04  1.7651E-04
      10-
 mid.  surface     1.5077E-03  2.4301E-03 -5.5754E-03  3.2785E-04 -7.0368E-04  3.5846E-04
      11-
 mid.  surface     1.6880E-03  1.6351E-03 -4.7358E-03  5.6139E-04 -2.0885E-03 -3.7302E-04
      12-
 mid.  surface     1.1641E-03  1.0152E-03 -3.9728E-03  3.4816E-04 -1.7356E-03 -9.1172E-04
      17-
 mid.  surface     1.8065E-03  1.1463E-03 -3.9657E-03  6.4598E-04 -6.8323E-04 -8.9613E-04
      18-
 mid.  surface     6.5315E-04  1.9942E-03 -3.4975E-03  7.7853E-04 -1.1178E-04 -3.1587E-04
      19-
 mid.  surface     1.5777E-03  1.6811E-03 -4.8607E-03 -1.2480E-04 -3.5966E-04 -6.4051E-04
      20-
 mid.  surface     1.6474E-03  7.6377E-04 -4.2930E-03  4.4875E-04  1.9413E-04  5.9279E-04
      21-
 mid.  surface     1.3297E-03  1.5135E-03 -5.1295E-03 -2.7894E-04  4.0722E-05  2.4913E-04
      22-
 mid.  surface     9.2889E-04  6.3329E-04 -4.2747E-03  1.9634E-04  5.2814E-04 -7.2840E-04
      23-
 mid.  surface     1.5608E-03  1.1768E-03 -5.1554E-03  3.9901E-04  6.2759E-04 -5.9812E-04
      40-
 mid.  surface     1.3808E-03  2.0963E-03 -5.6126E-03  2.4615E-04 -4.9857E-04 -7.4540E-04
      41-
 mid.  surface     4.8502E-04  1.6507E-03 -3.5104E-03  6.9398E-04 -5.2992E-04  2.9180E-05
      85-
 mid.  surface     1.1596E-03  2.1357E-03 -5.8310E-03  6.2301E-04  1.3580E-04 -1.7906E-04
      86-
 mid.  surface     9.7253E-04  4.7171E-04 -3.8916E-03  1.0398E-03  1.3805E-03 -9.6075E-04
     100-
 mid.  surface     3.5179E-07  1.8689E-03 -3.1195E-03 -2.4399E-04 -5.4303E-04  1.2552E-04
     110-
 mid.  surface     1.3937E-03  1.8401E-03 -5.4883E-03 -4.8104E-04 -8.8830E-04 -6.8700E-04



 n o d a l  s t r e s s  c a l c u l a t i o n s   f o r   t i m e  s t e p       89   ( at time 2.54839E+00 )

 node (global)
          stress       sig-xx      sig-yy      sig-zz      sig-xy      sig-yz      sig-zx       plastic
                                                                                                 strain 
       1-
 mid.  surface    -4.7198E+08 -2.9436E+08 -8.3439E+08  1.5262E+08 -3.3185E+06  3.3263E+08 -9.1322E-03
       2-
 mid.  surface    -9.8589E+08 -8.3530E+08 -1.3647E+09  8.1353E+07 -2.8156E+07  3.9340E+08  4.3100E-03
       8-
 mid.  surface    -9.6538E+06  6.7205E+07 -2.6157E+08 -4.2436E+07  7.1764E+07  5.6299E+06  2.7953E-03
       9-
 mid.  surface    -2.6047E+08 -2.8887E+08 -5.8849E+08 -2.7988E+07  6.9661E+07  1.1630E+07  1.1472E-02
      10-
 mid.  surface    -1.5172E+08 -1.6854E+08 -2.6856E+08  2.3681E+07 -4.6050E+07  2.5996E+07  2.2760E-02
      11-
 mid.  surface     2.7382E+08  2.4803E+08  4.0286E+07  3.2284E+07 -2.2664E+08 -4.9971E+07  1.1913E-02
      12-
 mid.  surface     5.5093E+08  5.7114E+08  5.1641E+08  3.3262E+07 -2.6406E+08  9.9884E+06  2.4143E-02
      17-
 mid.  surface     2.2038E+08  2.1535E+08  2.5579E+07  3.8425E+07 -1.7464E+08 -8.7661E+07  1.4813E-02
      18-
 mid.  surface     7.7704E+07  1.4018E+08  1.0251E+07  2.2622E+07 -2.4420E+07 -3.1845E+07  1.6318E-02
      19-
 mid.  surface     2.6221E+07  2.7006E+07 -2.0836E+07  1.3085E+05 -2.2608E+08  1.9657E+07  3.4730E-02
      20-
 mid.  surface    -7.8048E+07 -9.4096E+07 -3.7740E+08  4.0702E+07  8.4105E+07  8.3693E+07  1.0848E-02
      21-
 mid.  surface    -3.3446E+08 -3.9420E+08 -4.1994E+08 -2.0869E+07  1.2543E+08  2.4651E+07  3.2660E-02
      22-
 mid.  surface     4.2261E+07  5.2185E+06 -5.1785E+07  1.8578E+07  1.3503E+08 -3.3700E+07  2.0819E-02
      23-
 mid.  surface    -8.7065E+07 -1.2856E+08 -4.4978E+08  3.3894E+07  8.2600E+07  5.7064E+07  7.0892E-03
      40-
 mid.  surface    -2.6337E+08 -2.8250E+08 -4.1670E+08  1.5320E+07  5.0129E+07  6.1579E+06  2.2112E-02
      41-
 mid.  surface    -8.5267E+07 -7.4441E+06 -1.6624E+08  1.1690E+07  4.2192E+07  3.2451E+07  1.5692E-02
      85-
 mid.  surface    -9.7260E+08 -8.7139E+08 -1.1433E+09  1.7418E+07  2.7827E+08 -4.2891E+08  9.5423E-03
      86-
 mid.  surface    -3.4600E+08 -2.2844E+08 -4.8713E+08  9.9637E+07  3.6238E+08 -4.5033E+08 -3.3368E-03
     100-
 mid.  surface    -2.6683E+07  4.7076E+07 -2.3688E+08 -2.3078E+07 -1.1157E+08 -8.2822E+06  2.9479E-03
     110-
 mid.  surface    -1.9237E+08 -2.4123E+08 -4.5862E+08 -9.2104E+06 -1.0263E+08 -5.0941E+07  1.3210E-02



 n o d a l  s t r a i n  c a l c u l a t i o n s   f o r   t i m e  s t e p       89   ( at time 2.54839E+00 )

 node (global)
          strain       eps-xx      eps-yy      eps-zz      eps-xy      eps-yz      eps-zx       
       1-
 mid.  surface    -3.2760E-03  9.4620E-03 -1.3415E-02  9.6624E-03 -1.2323E-03  1.5226E-02
       2-
 mid.  surface    -1.1646E-03  1.1191E-02 -2.4642E-02  3.8281E-03 -8.7959E-04  1.7669E-02
       8-
 mid.  surface     1.5807E-03  6.7188E-03 -9.2650E-03 -2.8390E-03  5.1565E-03  4.2638E-04
       9-
 mid.  surface     7.8578E-03  5.9298E-03 -1.9242E-02 -2.1178E-03  4.7844E-03  8.9720E-04
      10-
 mid.  surface     8.1556E-03  6.9503E-03 -1.8027E-02  2.3655E-03 -3.6514E-03  1.2953E-03
      11-
 mid.  surface     8.5750E-03  6.8289E-03 -1.2895E-02  2.5688E-03 -1.6238E-02 -5.1105E-03
      12-
 mid.  surface     7.5991E-03  7.3667E-03 -7.5119E-03  4.2072E-03 -1.7648E-02 -1.2753E-02
      17-
 mid.  surface     7.4970E-03  6.6819E-03 -1.2096E-02  2.6778E-03 -1.2122E-02 -8.5118E-03
      18-
 mid.  surface     3.6161E-03  7.6270E-03 -1.0204E-02  2.3022E-03 -2.2782E-03 -2.3104E-03
      19-
 mid.  surface     8.8952E-03  7.8497E-03 -1.6861E-02  1.1652E-03 -1.1783E-02 -1.2092E-02
      20-
 mid.  surface     7.5754E-03  5.8648E-03 -1.6159E-02  2.6489E-03  8.2918E-03  6.8448E-03
      21-
 mid.  surface     1.0631E-02  5.6734E-03 -2.2022E-02  4.3323E-04  8.4997E-03  1.1671E-02
      22-
 mid.  surface     8.9791E-03  4.8219E-03 -1.4085E-02  4.0122E-03  1.0359E-02  7.8751E-03
      23-
 mid.  surface     8.9987E-03  5.8693E-03 -1.8164E-02  2.4145E-03  1.0529E-02  4.0615E-03
      40-
 mid.  surface     7.8183E-03  6.2547E-03 -1.8733E-02  1.5128E-03  5.6902E-04 -1.7827E-03
      41-
 mid.  surface     2.2127E-03  7.1497E-03 -1.0615E-02  1.3141E-03 -7.1444E-04  8.9448E-04
      85-
 mid.  surface    -1.8286E-03  8.4539E-03 -2.0502E-02  7.2464E-04  4.0564E-03 -2.0738E-02
      86-
 mid.  surface    -3.6967E-03  5.8175E-03 -6.8984E-03  7.4143E-03  1.1780E-02 -2.3289E-02
     100-
 mid.  surface     7.4362E-04  5.7547E-03 -7.5240E-03 -1.4680E-03 -7.5843E-03 -1.3930E-04
     110-
 mid.  surface     7.9735E-03  4.7438E-03 -1.7055E-02 -6.6311E-04 -7.7627E-03 -3.5413E-03



 n o d a l  s t r e s s  c a l c u l a t i o n s   f o r   t i m e  s t e p       95   ( at time 3.80433E+00 )

 node (global)
          stress       sig-xx      sig-yy      sig-zz      sig-xy      sig-yz      sig-zx       plastic
                                                                                                 strain 
       1-
 mid.  surface    -4.7302E+08 -3.6915E+08 -7.8386E+08  6.6410E+07 -1.4836E+06  1.3839E+08 -8.5592E-04
       2-
 mid.  surface    -1.2783E+09 -1.1784E+09 -1.5902E+09  4.2413E+07 -1.5162E+07  1.7755E+08  1.6559E-02
       8-
 mid.  surface     9.2107E+07  1.4299E+08 -1.4471E+08 -2.7732E+07  2.5415E+07  3.7949E+05  1.5337E-02
       9-
 mid.  surface    -3.0414E+08 -3.1776E+08 -5.8593E+08 -2.2641E+07  2.5582E+07  5.7884E+06  2.7967E-02
      10-
 mid.  surface    -4.0375E+07 -5.4496E+07 -2.7736E+08  1.5527E+07 -5.7804E+07  1.1996E+07  3.7408E-02
      11-
 mid.  surface     4.3746E+08  4.0831E+08  1.4166E+08  1.3586E+07 -1.5713E+08 -3.4618E+07  2.1238E-02
      12-
 mid.  surface     7.4795E+08  7.7039E+08  5.5404E+08  1.0884E+07 -1.3927E+08 -1.7510E+07  3.5628E-02
      17-
 mid.  surface     3.1454E+08  3.1705E+08  8.2917E+07  1.0280E+07 -1.3704E+08 -6.9161E+07  2.7748E-02
      18-
 mid.  surface     2.6975E+08  3.0584E+08  7.9273E+07  1.4669E+07 -5.0281E+07 -2.3540E+07  2.9358E-02
      19-
 mid.  surface    -5.8812E+07 -2.2618E+07 -2.1921E+08 -4.3122E+06 -1.2502E+08 -2.1125E+07  5.1597E-02
      20-
 mid.  surface    -1.0021E+08 -1.0920E+08 -4.0530E+08  2.0835E+07  5.3085E+07  4.5622E+07  2.2432E-02
      21-
 mid.  surface    -4.7312E+08 -4.9924E+08 -6.8275E+08 -5.3997E+06  7.2839E+07  5.1309E+06  4.9489E-02
      22-
 mid.  surface     1.4167E+08  1.1610E+08 -8.7278E+07  1.8524E+07  9.7134E+07 -1.5860E+07  3.3265E-02
      23-
 mid.  surface    -5.8682E+07 -8.8888E+07 -4.2538E+08  2.0773E+07  8.3697E+07  2.8945E+07  1.5887E-02
      40-
 mid.  surface    -3.2883E+08 -3.4782E+08 -5.8953E+08  7.1059E+06  3.2615E+07 -5.6102E+06  3.6240E-02
      41-
 mid.  surface    -7.1277E+07 -3.5530E+07 -2.7298E+08  8.7278E+06  1.6221E+07  1.6561E+07  2.8200E-02
      85-
 mid.  surface    -1.3556E+09 -1.3046E+09 -1.5711E+09 -1.6793E+06  1.2088E+08 -1.8845E+08  2.3493E-02
      86-
 mid.  surface    -3.8084E+08 -3.2439E+08 -5.7571E+08  3.9398E+07  1.6720E+08 -2.0601E+08  7.4676E-03
     100-
 mid.  surface    -1.3056E+08 -1.0081E+08 -3.5497E+08 -1.5945E+07 -5.2069E+07  1.1552E+06  1.4756E-02
     110-
 mid.  surface    -4.1665E+08 -4.5898E+08 -6.8538E+08 -1.1812E+07 -4.9594E+07 -3.1114E+07  2.8969E-02



 n o d a l  s t r a i n  c a l c u l a t i o n s   f o r   t i m e  s t e p       95   ( at time 3.80433E+00 )

 node (global)
          strain       eps-xx      eps-yy      eps-zz      eps-xy      eps-yz      eps-zx       
       1-
 mid.  surface    -4.5536E-04  1.7193E-02 -2.4076E-02  1.1465E-02 -1.1415E-03  1.7879E-02
       2-
 mid.  surface     1.8673E-03  1.9254E-02 -3.9824E-02  5.0569E-03 -4.7493E-04  2.1541E-02
       8-
 mid.  surface     6.3147E-03  1.4360E-02 -2.0319E-02 -4.3484E-03  5.7464E-03  3.7218E-04
       9-
 mid.  surface     1.5724E-02  1.3090E-02 -3.4761E-02 -3.4997E-03  4.9262E-03  9.6725E-04
      10-
 mid.  surface     1.5597E-02  1.3649E-02 -3.1270E-02  3.3876E-03 -7.8760E-03  1.6188E-03
      11-
 mid.  surface     1.5209E-02  1.1743E-02 -2.2525E-02  3.1841E-03 -2.3783E-02 -6.7135E-03
      12-
 mid.  surface     1.2514E-02  1.3704E-02 -1.6757E-02  4.8207E-03 -2.3562E-02 -1.5149E-02
      17-
 mid.  surface     1.3608E-02  1.2959E-02 -2.3398E-02  2.9555E-03 -1.8398E-02 -1.1995E-02
      18-
 mid.  surface     8.9113E-03  1.5097E-02 -2.1018E-02  3.3353E-03 -5.9026E-03 -3.6305E-03
      19-
 mid.  surface     1.3834E-02  1.5227E-02 -3.0852E-02  1.2012E-03 -1.6237E-02 -1.4969E-02
      20-
 mid.  surface     1.4015E-02  1.1771E-02 -2.8970E-02  3.4938E-03  1.1702E-02  9.0927E-03
      21-
 mid.  surface     1.7559E-02  1.1455E-02 -3.7307E-02  6.5241E-04  1.0714E-02  1.2427E-02
      22-
 mid.  surface     1.5370E-02  9.9219E-03 -2.4884E-02  5.3979E-03  1.3437E-02  8.2153E-03
      23-
 mid.  surface     1.5703E-02  1.0903E-02 -2.9605E-02  3.2334E-03  1.5541E-02  5.1513E-03
      40-
 mid.  surface     1.4740E-02  1.1865E-02 -3.2840E-02  1.8569E-03  1.8303E-03 -2.6901E-03
      41-
 mid.  surface     6.6979E-03  1.3355E-02 -2.1960E-02  1.9103E-03 -4.7987E-05  1.6218E-03
      85-
 mid.  surface     1.5192E-03  1.4064E-02 -3.5448E-02 -9.9459E-05  7.3994E-03 -2.6254E-02
      86-
 mid.  surface    -3.9171E-04  1.1258E-02 -1.6741E-02  8.3534E-03  1.6816E-02 -2.9895E-02
     100-
 mid.  surface     4.5915E-03  1.0699E-02 -1.8127E-02 -2.3669E-03 -1.0178E-02  4.9468E-05
     110-
 mid.  surface     1.5239E-02  9.1794E-03 -3.2081E-02 -1.5231E-03 -1.0751E-02 -5.5504E-03



 n o d a l  s t r e s s  c a l c u l a t i o n s   f o r   t i m e  s t e p      103   ( at time 5.79487E+00 )

 node (global)
          stress       sig-xx      sig-yy      sig-zz      sig-xy      sig-yz      sig-zx       plastic
                                                                                                 strain 
       1-
 mid.  surface    -3.5384E+08 -3.3464E+08 -6.1851E+08  2.7028E+07 -1.2242E+07  2.1775E+07  1.7706E-02
       2-
 mid.  surface    -1.3934E+09 -1.3708E+09 -1.6636E+09  2.7000E+07 -1.3815E+07  4.9962E+07  3.7768E-02
       8-
 mid.  surface     1.5766E+08  2.0560E+08 -6.9241E+07 -1.6547E+07 -1.3623E+07 -1.0297E+06  3.2642E-02
       9-
 mid.  surface    -3.5345E+08 -3.5185E+08 -6.0610E+08 -1.4834E+07 -1.6072E+07 -9.2521E+04  4.9303E-02
      10-
 mid.  surface     1.6065E+07  4.3266E+06 -2.5802E+08  8.0064E+06 -6.4389E+07 -3.0373E+06  5.5614E-02
      11-
 mid.  surface     5.0867E+08  4.8611E+08  2.1830E+08  5.8069E+06 -1.0911E+08 -2.9596E+07  3.7031E-02
      12-
 mid.  surface     7.9672E+08  8.2893E+08  5.4552E+08 -3.1912E+06 -7.5139E+07 -4.1500E+07  4.9238E-02
      17-
 mid.  surface     3.3956E+08  3.3726E+08  7.3933E+07  7.0149E+06 -1.0614E+08 -5.7909E+07  4.4966E-02
      18-
 mid.  surface     4.0159E+08  4.3225E+08  1.5744E+08  1.2260E+07 -6.4508E+07 -2.2704E+07  4.4793E-02
      19-
 mid.  surface    -2.1384E+08 -1.7646E+08 -4.5819E+08 -6.4428E+06 -6.9278E+07 -4.6962E+07  6.8431E-02
      20-
 mid.  surface    -1.3590E+08 -1.5539E+08 -4.5385E+08  1.9709E+07  4.0948E+07  4.0142E+07  3.9347E-02
      21-
 mid.  surface    -5.8343E+08 -5.8556E+08 -8.7091E+08  1.1304E+07  5.1966E+07  2.4952E+07  6.7331E-02
      22-
 mid.  surface     1.9903E+08  1.9539E+08 -8.7275E+07  1.5695E+07  6.9363E+07  1.0966E+07  4.8473E-02
      23-
 mid.  surface    -5.1137E+07 -8.4081E+07 -3.8907E+08  1.3185E+07  7.2893E+07  2.8347E+07  3.2247E-02
      40-
 mid.  surface    -4.2658E+08 -4.3260E+08 -7.2629E+08  1.2662E+06  4.0452E+07 -1.8466E+06  5.3868E-02
      41-
 mid.  surface    -5.0491E+07 -2.3806E+07 -3.1949E+08  1.1355E+07  2.9048E+07  1.5931E+07  4.2889E-02
      85-
 mid.  surface    -1.7343E+09 -1.7104E+09 -1.9855E+09  5.7644E+06  5.7884E+07 -5.7821E+07  4.3535E-02
      86-
 mid.  surface    -4.7201E+08 -4.4844E+08 -7.0843E+08  1.7542E+07  8.0233E+07 -7.5090E+07  2.5252E-02
     100-
 mid.  surface    -2.4868E+08 -2.2362E+08 -4.8547E+08 -1.4113E+07 -1.0704E+06  1.3887E+07  3.1368E-02
     110-
 mid.  surface    -6.5343E+08 -6.7566E+08 -9.2173E+08 -1.7442E+07 -4.5842E+06 -9.1994E+06  4.9427E-02



 n o d a l  s t r a i n  c a l c u l a t i o n s   f o r   t i m e  s t e p      103   ( at time 5.79487E+00 )

 node (global)
          strain       eps-xx      eps-yy      eps-zz      eps-xy      eps-yz      eps-zx       
       1-
 mid.  surface     9.0238E-03  2.5833E-02 -4.0794E-02  1.2864E-02 -1.9721E-03  1.6690E-02
       2-
 mid.  surface     1.1179E-02  2.8682E-02 -6.0487E-02  7.3498E-03 -8.8872E-04  2.2268E-02
       8-
 mid.  surface     1.2138E-02  2.4418E-02 -3.5378E-02 -5.3594E-03  4.5753E-03  3.4438E-04
       9-
 mid.  surface     2.4440E-02  2.2676E-02 -5.3803E-02 -4.4552E-03  2.9243E-03  7.5346E-04
      10-
 mid.  surface     2.4704E-02  2.1936E-02 -4.8252E-02  4.1787E-03 -1.2740E-02  1.1061E-03
      11-
 mid.  surface     2.4086E-02  1.8541E-02 -3.7330E-02  3.8429E-03 -3.0061E-02 -8.4058E-03
      12-
 mid.  surface     1.7574E-02  2.1719E-02 -2.9439E-02  4.4881E-03 -2.8010E-02 -1.8505E-02
      17-
 mid.  surface     2.1886E-02  2.0823E-02 -3.9559E-02  3.6458E-03 -2.3714E-02 -1.5466E-02
      18-
 mid.  surface     1.5335E-02  2.4312E-02 -3.5203E-02  4.4931E-03 -1.0138E-02 -5.1523E-03
      19-
 mid.  surface     1.9203E-02  2.4004E-02 -4.7687E-02  1.0307E-03 -1.9268E-02 -1.8345E-02
      20-
 mid.  surface     2.3339E-02  1.9458E-02 -4.6855E-02  4.9971E-03  1.4411E-02  1.1759E-02
      21-
 mid.  surface     2.5280E-02  2.0262E-02 -5.5917E-02  1.8230E-03  1.3029E-02  1.4583E-02
      22-
 mid.  surface     2.2840E-02  1.7720E-02 -3.9727E-02  6.4385E-03  1.6283E-02  9.1511E-03
      23-
 mid.  surface     2.5649E-02  1.7755E-02 -4.6446E-02  4.0559E-03  1.9722E-02  6.8612E-03
      40-
 mid.  surface     2.3313E-02  1.9922E-02 -5.1195E-02  1.9492E-03  4.1629E-03 -3.1871E-03
      41-
 mid.  surface     1.3057E-02  2.1811E-02 -3.6988E-02  2.9253E-03  2.2305E-03  2.7026E-03
      85-
 mid.  surface     8.3820E-03  2.2517E-02 -5.6678E-02  5.7793E-04  1.0434E-02 -2.8448E-02
      86-
 mid.  surface     6.9625E-03  1.9105E-02 -3.3811E-02  9.0386E-03  2.1335E-02 -3.3837E-02
     100-
 mid.  surface     1.0265E-02  1.8443E-02 -3.3419E-02 -3.3727E-03 -1.0247E-02  1.2938E-03
     110-
 mid.  surface     2.3867E-02  1.6487E-02 -5.1501E-02 -2.9918E-03 -1.1733E-02 -6.2665E-03



 n o d a l  s t r e s s  c a l c u l a t i o n s   f o r   t i m e  s t e p      111   ( at time 7.78540E+00 )

 node (global)
          stress       sig-xx      sig-yy      sig-zz      sig-xy      sig-yz      sig-zx       plastic
                                                                                                 strain 
       1-
 mid.  surface    -1.1745E+08 -1.1357E+08 -3.8359E+08  4.7209E+06 -8.3849E+06 -3.2674E+07  3.4725E-02
       2-
 mid.  surface    -1.5080E+09 -1.5023E+09 -1.7782E+09  8.2007E+06 -6.4733E+06 -9.6272E+06  5.7435E-02
       8-
 mid.  surface     2.4506E+08  2.7654E+08  1.6068E+07 -2.2100E+07 -4.1182E+07  3.1676E+06  5.0176E-02
       9-
 mid.  surface    -4.6586E+08 -4.8426E+08 -7.2570E+08 -2.6305E+07 -2.2248E+07  7.5868E+06  7.1554E-02
      10-
 mid.  surface     2.0719E+08  1.9771E+08 -8.9347E+07  1.6104E+07 -9.1105E+07 -1.6301E+07  7.3524E-02
      11-
 mid.  surface     4.2578E+08  4.2661E+08  1.4468E+08 -1.0850E+07 -8.5035E+07 -2.3916E+07  5.1865E-02
      12-
 mid.  surface     7.9364E+08  8.1693E+08  5.2152E+08 -7.1347E+06 -5.0297E+07 -2.2958E+07  6.5315E-02
      17-
 mid.  surface     1.9267E+08  2.0898E+08 -7.0369E+07 -8.3463E+06 -1.0024E+08 -4.8550E+07  6.2567E-02
      18-
 mid.  surface     6.0554E+08  6.2128E+08  3.2871E+08  2.0259E+07 -9.4273E+07 -3.2895E+07  6.1263E-02
      19-
 mid.  surface    -4.3369E+08 -3.9348E+08 -6.9608E+08 -3.0693E+06 -6.1943E+07 -5.0418E+07  8.7773E-02
      20-
 mid.  surface    -1.0127E+08 -1.0528E+08 -4.0883E+08  2.1817E+07  5.1877E+07  4.1996E+07  5.8618E-02
      21-
 mid.  surface    -5.9619E+08 -6.0731E+08 -9.1040E+08  2.9320E+07  3.2620E+07  1.7918E+07  8.8136E-02
      22-
 mid.  surface     4.3620E+08  4.2192E+08  1.3405E+08  2.3899E+07  5.7380E+07  3.1027E+07  6.7871E-02
      23-
 mid.  surface     6.9841E+07  4.3383E+07 -2.4292E+08  1.2504E+07  9.0968E+07  3.0072E+07  5.0881E-02
      40-
 mid.  surface    -4.9678E+08 -5.1289E+08 -8.2325E+08  5.6643E+06  5.5938E+07 -1.7797E+06  7.1788E-02
      41-
 mid.  surface    -8.6291E+07 -6.4566E+07 -3.8051E+08  3.2438E+06  4.0534E+07  1.9201E+07  5.9050E-02
      85-
 mid.  surface    -2.1342E+09 -2.1116E+09 -2.4088E+09 -5.0416E+06  4.6301E+07 -9.3144E+05  6.2137E-02
      86-
 mid.  surface    -4.7855E+08 -4.5186E+08 -7.4402E+08  2.8149E+06  5.5015E+07 -2.0891E+07  4.1562E-02
     100-
 mid.  surface    -2.6679E+08 -2.1623E+08 -4.7807E+08 -1.0341E+07  4.8345E+06  2.1087E+07  4.9667E-02
     110-
 mid.  surface    -8.6870E+08 -8.7225E+08 -1.1191E+09 -9.8907E+06  2.3005E+07 -3.4244E+06  7.2494E-02



 n o d a l  s t r a i n  c a l c u l a t i o n s   f o r   t i m e  s t e p      111   ( at time 7.78540E+00 )

 node (global)
          strain       eps-xx      eps-yy      eps-zz      eps-xy      eps-yz      eps-zx       
       1-
 mid.  surface     1.8599E-02  3.4824E-02 -5.6155E-02  1.3624E-02 -2.4012E-03  1.3288E-02
       2-
 mid.  surface     2.0234E-02  3.7274E-02 -7.9952E-02  8.5934E-03 -6.8606E-04  2.1206E-02
       8-
 mid.  surface     1.8532E-02  3.3919E-02 -5.0246E-02 -7.1741E-03  2.2262E-03  7.8657E-04
       9-
 mid.  surface     3.4106E-02  3.1100E-02 -7.3885E-02 -6.7105E-03  1.3929E-03  1.2857E-03
      10-
 mid.  surface     3.4433E-02  3.1300E-02 -6.4986E-02  6.1420E-03 -1.8705E-02 -5.2097E-06
      11-
 mid.  surface     3.0674E-02  2.4962E-02 -5.1566E-02  2.6912E-03 -3.5831E-02 -9.7095E-03
      12-
 mid.  surface     2.3869E-02  3.0136E-02 -4.4458E-02  4.4094E-03 -3.1365E-02 -1.9719E-02
      17-
 mid.  surface     2.8571E-02  2.9168E-02 -5.6742E-02  2.8676E-03 -2.9140E-02 -1.8146E-02
      18-
 mid.  surface     2.3671E-02  3.4248E-02 -5.0961E-02  7.0156E-03 -1.5227E-02 -7.4525E-03
      19-
 mid.  surface     2.5039E-02  3.4017E-02 -6.6891E-02  1.5018E-03 -2.2376E-02 -2.0927E-02
      20-
 mid.  surface     3.3027E-02  2.9109E-02 -6.5870E-02  6.5136E-03  1.8313E-02  1.4808E-02
      21-
 mid.  surface     3.5253E-02  3.0455E-02 -7.6735E-02  4.3383E-03  1.4575E-02  1.5404E-02
      22-
 mid.  surface     3.3425E-02  2.7329E-02 -5.6979E-02  8.3664E-03  1.8702E-02  1.0774E-02
      23-
 mid.  surface     3.6298E-02  2.5451E-02 -6.3201E-02  4.7375E-03  2.4742E-02  8.1626E-03
      40-
 mid.  surface     3.2807E-02  2.7552E-02 -6.9758E-02  2.4789E-03  7.1681E-03 -3.5814E-03
      41-
 mid.  surface     2.0196E-02  3.0762E-02 -5.3915E-02  3.2494E-03  5.6720E-03  3.9510E-03
      85-
 mid.  surface     1.4794E-02  3.1054E-02 -7.7674E-02 -1.9210E-04  1.3788E-02 -2.7888E-02
      86-
 mid.  surface     1.4067E-02  2.8464E-02 -5.0700E-02  8.7479E-03  2.5125E-02 -3.5624E-02
     100-
 mid.  surface     1.5223E-02  2.8501E-02 -4.8553E-02 -3.9879E-03 -1.1227E-02  2.9368E-03
     110-
 mid.  surface     3.2504E-02  2.5345E-02 -7.2116E-02 -3.5311E-03 -1.2007E-02 -7.2709E-03



 n o d a l  s t r e s s  c a l c u l a t i o n s   f o r   t i m e  s t e p      120   ( at time 9.77594E+00 )

 node (global)
          stress       sig-xx      sig-yy      sig-zz      sig-xy      sig-yz      sig-zx       plastic
                                                                                                 strain 
       1-
 mid.  surface    -2.9508E+09 -2.8836E+09 -1.8502E+09 -1.5772E+07  8.3703E+07  9.4581E+07 -2.4475E-02
       2-
 mid.  surface    -4.6416E+09 -4.6326E+09 -3.5819E+09 -1.0923E+07  8.7112E+07  1.3634E+08 -1.0680E-03
       8-
 mid.  surface     2.8117E+08  3.0867E+08  6.8131E+07 -1.3501E+07 -7.1937E+07 -3.7732E+05  7.0440E-02
       9-
 mid.  surface    -4.8097E+08 -4.8074E+08 -7.1872E+08 -1.1400E+07 -5.8779E+07  6.4106E+04  9.3700E-02
      10-
 mid.  surface     2.5306E+08  2.2894E+08 -7.2391E+07 -8.5893E+06 -8.4768E+07  1.1680E+06  8.9191E-02
      11-
 mid.  surface     4.0659E+08  3.7430E+08  1.0910E+08 -1.2629E+07 -5.8602E+07 -3.8692E+06  6.9471E-02
      12-
 mid.  surface    -6.1205E+08 -5.3613E+08 -1.9068E+08 -3.7504E+06 -7.6713E+06  2.8474E+07  4.2307E-02
      17-
 mid.  surface    -7.9739E+07 -9.7838E+07 -3.4110E+08 -2.5862E+07 -1.0626E+08 -6.3979E+07  8.4506E-02
      18-
 mid.  surface     6.3060E+08  6.3805E+08  3.4080E+08 -3.5405E+06 -1.2993E+08 -2.6080E+07  7.6747E-02
      19-
 mid.  surface    -2.2454E+09 -2.2023E+09 -1.8378E+09 -2.0763E+07 -1.7160E+07  3.3722E+07  6.8526E-02
      20-
 mid.  surface    -2.0618E+07 -1.2058E+07 -3.1212E+08  3.0806E+07  2.8945E+07  1.2555E+07  8.1670E-02
      21-
 mid.  surface     8.1200E+08  7.9118E+08 -2.3704E+08  1.7630E+07 -2.0394E+07 -4.5001E+07  1.5297E-01
      22-
 mid.  surface     2.1892E+09  2.1921E+09  1.1579E+09  3.0431E+07 -5.2358E+06 -5.6973E+07  1.2986E-01
      23-
 mid.  surface     3.6038E+08  3.2904E+08  5.5041E+07  3.6414E+07  1.0113E+08  4.4191E+07  7.3520E-02
      40-
 mid.  surface    -4.0116E+08 -4.1511E+08 -7.3613E+08  2.6677E+06  9.2855E+07  1.4954E+07  9.0669E-02
      41-
 mid.  surface    -2.9693E+07 -4.0287E+05 -3.3471E+08  1.1494E+07  3.4979E+07  1.1822E+07  7.5150E-02
      85-
 mid.  surface     1.0874E+09  1.0097E+09 -7.0894E+08  1.6830E+07 -4.3336E+07 -1.3797E+08  1.7044E-01
      86-
 mid.  surface     3.0433E+09  3.0281E+09  1.2836E+09  1.4343E+07 -4.5203E+07 -1.8148E+08  1.4895E-01
     100-
 mid.  surface    -4.0476E+08 -4.0859E+08 -6.2944E+08 -1.1262E+07  3.8283E+07  1.6418E+07  7.0583E-02
     110-
 mid.  surface    -1.0891E+09 -1.1176E+09 -1.3392E+09 -1.4714E+07  5.2254E+07  6.3092E+05  9.5816E-02



 n o d a l  s t r a i n  c a l c u l a t i o n s   f o r   t i m e  s t e p      120   ( at time 9.77594E+00 )

 node (global)
          strain       eps-xx      eps-yy      eps-zz      eps-xy      eps-yz      eps-zx       
       1-
 mid.  surface     3.2553E-02  4.6673E-02 -7.4761E-02  1.4924E-02 -3.3299E-03  8.3189E-03
       2-
 mid.  surface     3.5560E-02  4.5778E-02 -1.0145E-01  1.0292E-02 -3.9101E-04  2.0435E-02
       8-
 mid.  surface     2.5069E-02  4.4475E-02 -6.6961E-02 -8.1757E-03 -9.3655E-04  9.9786E-04
       9-
 mid.  surface     4.2557E-02  4.0573E-02 -9.2075E-02 -7.0345E-03 -3.3407E-03  9.5784E-04
      10-
 mid.  surface     4.3615E-02  3.8389E-02 -8.1014E-02  5.3451E-03 -2.4294E-02  6.2726E-04
      11-
 mid.  surface     4.0645E-02  3.1192E-02 -6.8439E-02  2.0601E-03 -3.9475E-02 -9.6303E-03
      12-
 mid.  surface     3.1170E-02  4.1173E-02 -5.8711E-02  6.0988E-03 -3.5535E-02 -2.3425E-02
      17-
 mid.  surface     3.7868E-02  3.5951E-02 -7.7128E-02  8.7016E-04 -3.4196E-02 -2.1593E-02
      18-
 mid.  surface     3.0839E-02  4.2572E-02 -6.6401E-02  6.4955E-03 -2.2090E-02 -8.1139E-03
      19-
 mid.  surface     3.3194E-02  4.3129E-02 -8.6520E-02  1.5451E-03 -2.5348E-02 -2.2613E-02
      20-
 mid.  surface     4.3764E-02  4.1067E-02 -8.7641E-02  9.2533E-03  2.0946E-02  1.5197E-02
      21-
 mid.  surface     4.1119E-02  4.0254E-02 -9.8488E-02  4.0125E-03  1.6275E-02  1.8594E-02
      22-
 mid.  surface     3.8913E-02  3.7981E-02 -7.3865E-02  9.4249E-03  1.9925E-02  1.1041E-02
      23-
 mid.  surface     4.9464E-02  3.5346E-02 -8.2450E-02  8.0520E-03  2.9869E-02  1.0688E-02
      40-
 mid.  surface     4.3391E-02  3.6378E-02 -8.8087E-02  2.7947E-03  1.1710E-02 -3.4804E-03
      41-
 mid.  surface     2.7343E-02  4.0817E-02 -7.0551E-02  4.3604E-03  8.9038E-03  4.6045E-03
      85-
 mid.  surface     2.2747E-02  3.9804E-02 -1.0145E-01 -1.1912E-03  1.8728E-02 -2.6588E-02
      86-
 mid.  surface     2.1112E-02  4.0782E-02 -7.1973E-02  7.3597E-03  2.9319E-02 -3.8552E-02
     100-
 mid.  surface     2.2938E-02  3.5865E-02 -6.6098E-02 -4.9176E-03 -9.0551E-03  4.0886E-03
     110-
 mid.  surface     4.2127E-02  3.1814E-02 -9.1687E-02 -4.5714E-03 -1.1512E-02 -7.9222E-03



 n o d a l  s t r e s s  c a l c u l a t i o n s   f o r   t i m e  s t e p      128   ( at time 1.17665E+01 )

 node (global)
          stress       sig-xx      sig-yy      sig-zz      sig-xy      sig-yz      sig-zx       plastic
                                                                                                 strain 
       1-
 mid.  surface    -2.5058E+09 -2.5948E+09 -1.8662E+09  4.8027E+07  4.5971E+07  3.5582E+07 -5.4589E-02
       2-
 mid.  surface    -3.9644E+09 -4.0072E+09 -3.5153E+09  9.3435E+07  4.1589E+07  4.7032E+07 -1.3253E-02
       8-
 mid.  surface     3.4511E+08  3.6259E+08  1.3613E+08 -1.1838E+07 -9.1685E+07 -1.7661E+06  9.3840E-02
       9-
 mid.  surface    -4.5694E+08 -4.5193E+08 -6.9034E+08 -1.1663E+07 -7.2061E+07 -4.7644E+06  1.1840E-01
      10-
 mid.  surface     2.6416E+08  2.1574E+08 -7.7277E+07 -1.3814E+07 -8.0466E+07 -8.9560E+06  1.0490E-01
      11-
 mid.  surface     4.2227E+08  4.0977E+08  1.3662E+08 -3.9823E+06 -7.0067E+07 -9.6587E+06  9.1009E-02
      12-
 mid.  surface    -1.5807E+09 -1.4994E+09 -9.2417E+08 -3.2838E+07 -1.2124E+07  5.1695E+07  2.6770E-03
      17-
 mid.  surface    -2.2715E+08 -2.5320E+08 -4.8541E+08 -1.4906E+07 -1.1673E+08 -6.3411E+07  1.0981E-01
      18-
 mid.  surface     5.8787E+08  5.7807E+08  2.9746E+08 -1.7008E+07 -1.3347E+08 -3.0369E+07  9.2786E-02
      19-
 mid.  surface    -2.6426E+09 -2.5917E+09 -2.4198E+09 -1.5764E+07 -1.0728E+07  1.3949E+07  5.9676E-02
      20-
 mid.  surface     2.3251E+07  2.5092E+06 -2.9214E+08  3.7945E+07  4.5862E+06  1.9276E+07  1.0600E-01
      21-
 mid.  surface     5.1977E+08  5.5889E+08 -3.0792E+08 -2.1452E+07 -1.8861E+06 -1.5028E+07  1.9906E-01
      22-
 mid.  surface     1.4472E+09  1.5063E+09  1.0002E+09 -4.5955E+07  2.5874E+07  1.3948E+06  1.4765E-01
      23-
 mid.  surface     5.6160E+08  5.7000E+08  2.5330E+08  3.6132E+07  8.7071E+07  4.1689E+07  9.7808E-02
      40-
 mid.  surface    -2.3518E+08 -2.3062E+08 -5.7410E+08 -2.1317E+06  1.0979E+08  8.5700E+06  1.0982E-01
      41-
 mid.  surface     1.4650E+08  1.6151E+08 -1.7881E+08  1.1698E+07  4.0676E+07  1.3087E+07  9.1371E-02
      85-
 mid.  surface     2.8566E+09  2.8531E+09  6.5337E+08 -5.4642E+06 -2.6178E+07 -1.8466E+08  3.0394E-01
      86-
 mid.  surface     3.1939E+09  3.1784E+09  1.8410E+09 -6.6586E+07  5.0853E+06 -1.2571E+08  2.2751E-01
     100-
 mid.  surface    -5.5235E+08 -5.6285E+08 -7.9383E+08 -8.0275E+06  3.1976E+07  2.8221E+07  9.3098E-02
     110-
 mid.  surface    -1.2699E+09 -1.2890E+09 -1.5296E+09 -1.6418E+07  5.8812E+07  3.5810E+06  1.2096E-01



 n o d a l  s t r a i n  c a l c u l a t i o n s   f o r   t i m e  s t e p      128   ( at time 1.17665E+01 )

 node (global)
          strain       eps-xx      eps-yy      eps-zz      eps-xy      eps-yz      eps-zx       
       1-
 mid.  surface     4.9057E-02  5.4704E-02 -9.3718E-02  1.5662E-02 -5.7480E-03  2.2375E-03
       2-
 mid.  surface     5.1313E-02  5.8252E-02 -1.2689E-01  1.4807E-02 -2.0514E-03  1.7036E-02
       8-
 mid.  surface     3.2930E-02  5.6850E-02 -8.6507E-02 -8.8768E-03 -3.7929E-03  9.3278E-04
       9-
 mid.  surface     5.1938E-02  5.1202E-02 -1.1200E-01 -7.5430E-03 -8.3176E-03 -9.8636E-05
      10-
 mid.  surface     5.3812E-02  4.3643E-02 -9.6722E-02  4.3724E-03 -2.9609E-02  5.6651E-04
      11-
 mid.  surface     5.1610E-02  3.9949E-02 -8.8093E-02  2.6268E-03 -4.2855E-02 -9.3255E-03
      12-
 mid.  surface     3.2353E-02  4.9883E-02 -6.8140E-02  2.0774E-03 -3.8441E-02 -2.6501E-02
      17-
 mid.  surface     4.8970E-02  4.5250E-02 -1.0001E-01  4.6656E-04 -3.8218E-02 -2.3876E-02
      18-
 mid.  surface     3.7989E-02  5.0477E-02 -8.2299E-02  4.8903E-03 -2.8117E-02 -8.8418E-03
      19-
 mid.  surface     3.5654E-02  5.2469E-02 -1.0359E-01 -1.3836E-03 -2.6134E-02 -2.4025E-02
      20-
 mid.  surface     5.6552E-02  5.2383E-02 -1.1177E-01  1.2470E-02  2.1309E-02  1.6346E-02
      21-
 mid.  surface     4.5983E-02  5.0147E-02 -1.1764E-01  3.5677E-03  1.8071E-02  2.2069E-02
      22-
 mid.  surface     4.3319E-02  4.7099E-02 -8.5787E-02  7.3353E-03  2.0825E-02  9.6989E-03
      23-
 mid.  surface     6.1764E-02  4.7492E-02 -1.0430E-01  1.0551E-02  3.3208E-02  1.2722E-02
      40-
 mid.  surface     5.4015E-02  4.6142E-02 -1.0634E-01  2.3857E-03  1.5203E-02 -4.7671E-03
      41-
 mid.  surface     3.5908E-02  5.1157E-02 -8.7364E-02  5.1391E-03  1.2792E-02  5.4045E-03
      85-
 mid.  surface     3.4985E-02  5.2455E-02 -1.2963E-01  1.2287E-03  2.2827E-02 -2.6096E-02
      86-
 mid.  surface     3.4475E-02  4.9922E-02 -9.3618E-02  5.8802E-03  3.6782E-02 -4.0194E-02
     100-
 mid.  surface     3.1559E-02  4.4977E-02 -8.6247E-02 -5.3657E-03 -8.2209E-03  6.2442E-03
     110-
 mid.  surface     5.2763E-02  3.9578E-02 -1.1299E-01 -5.7765E-03 -1.3096E-02 -9.1492E-03



 n o d a l  s t r e s s  c a l c u l a t i o n s   f o r   t i m e  s t e p      136   ( at time 1.37570E+01 )

 node (global)
          stress       sig-xx      sig-yy      sig-zz      sig-xy      sig-yz      sig-zx       plastic
                                                                                                 strain 
       1-
 mid.  surface    -2.6560E+09 -2.8217E+09 -2.0762E+09  2.0930E+07  5.3310E+07  5.6723E+07 -8.1532E-02
       2-
 mid.  surface    -4.4914E+09 -4.5430E+09 -4.0608E+09  1.2600E+08  3.9203E+07  3.1743E+07 -1.8869E-02
       8-
 mid.  surface     2.1595E+08  1.6626E+08 -7.7335E+07 -2.2289E+07 -1.4057E+08  1.1167E+07  1.1250E-01
       9-
 mid.  surface    -6.5316E+08 -7.2034E+08 -9.6817E+08 -2.6644E+07 -6.4694E+07  1.9147E+07  1.3753E-01
      10-
 mid.  surface     1.7611E+08  1.1418E+08 -1.6499E+08 -2.8960E+07 -6.7502E+07  8.6774E+06  1.2211E-01
      11-
 mid.  surface    -8.7213E+08 -9.1038E+08 -4.8623E+08  3.1519E+07  5.6910E+07  4.9959E+07  7.7340E-02
      12-
 mid.  surface    -3.3550E+09 -3.2834E+09 -2.0277E+09 -3.9530E+07  7.2668E+07  1.1711E+08 -7.8661E-02
      17-
 mid.  surface    -1.6770E+09 -1.7967E+09 -1.3098E+09  2.2441E+07  5.4221E+07  4.1362E+07  9.8880E-02
      18-
 mid.  surface     4.2328E+08  3.7192E+08  1.1462E+08 -2.6003E+07 -1.4109E+08 -2.4120E+07  1.1058E-01
      19-
 mid.  surface    -4.6065E+09 -4.5521E+09 -3.7323E+09  1.6532E+07  1.1946E+08  1.2426E+08  8.5700E-03
      20-
 mid.  surface     1.5382E+09  1.5451E+09  5.0085E+08  1.7436E+07 -1.1492E+08 -6.5854E+07  1.7510E-01
      21-
 mid.  surface     2.1570E+09  2.2417E+09  6.1096E+08 -6.0146E+07 -1.3297E+08 -8.9399E+07  2.8480E-01
      22-
 mid.  surface     3.2877E+09  3.3959E+09  2.1309E+09 -1.0548E+08 -1.5341E+08 -1.2613E+08  2.0372E-01
      23-
 mid.  surface     2.1919E+09  2.2169E+09  1.1614E+09  2.2122E+07 -7.7150E+07 -8.1044E+07  1.6722E-01
      40-
 mid.  surface    -4.9037E+06  2.5714E+07 -3.1786E+08  1.0706E+07  1.1561E+08  1.9485E+07  1.3210E-01
      41-
 mid.  surface     2.6209E+08  3.4243E+08 -1.7585E+07  4.6907E+05  2.6795E+07  1.4236E+07  1.1116E-01
      85-
 mid.  surface     3.3829E+09  3.4007E+09  1.1805E+09  4.6475E+07  7.8412E+06 -2.2133E+08  4.4278E-01
      86-
 mid.  surface     3.9707E+09  3.9141E+09  2.5910E+09 -4.8795E+07  4.7526E+07 -1.1292E+08  3.0705E-01
     100-
 mid.  surface    -3.5393E+08 -3.0037E+08 -6.0008E+08  7.5502E+06  1.6514E+07  3.5827E+07  1.1642E-01
     110-
 mid.  surface    -1.0952E+09 -1.0691E+09 -1.3609E+09  1.7669E+07  9.7520E+07  2.2052E+07  1.4692E-01



 n o d a l  s t r a i n  c a l c u l a t i o n s   f o r   t i m e  s t e p      136   ( at time 1.37570E+01 )

 node (global)
          strain       eps-xx      eps-yy      eps-zz      eps-xy      eps-yz      eps-zx       
       1-
 mid.  surface     6.5912E-02  6.3240E-02 -1.1382E-01  1.3637E-02 -7.9494E-03 -3.2228E-03
       2-
 mid.  surface     6.6593E-02  7.3309E-02 -1.5794E-01  2.1066E-02 -4.4989E-03  1.1608E-02
       8-
 mid.  surface     4.2935E-02  6.4243E-02 -1.0660E-01 -1.0681E-02 -1.0392E-02  2.5367E-03
       9-
 mid.  surface     6.2770E-02  5.5516E-02 -1.3099E-01 -9.9736E-03 -1.3086E-02  1.5802E-03
      10-
 mid.  surface     6.4217E-02  4.7994E-02 -1.1304E-01  1.9695E-03 -3.3184E-02  1.7309E-03
      11-
 mid.  surface     6.6532E-02  5.1657E-02 -1.1093E-01  6.7182E-03 -4.5342E-02 -1.1419E-02
      12-
 mid.  surface     3.2909E-02  5.9169E-02 -7.4113E-02 -9.0842E-04 -4.4475E-02 -3.2324E-02
      17-
 mid.  surface     6.7498E-02  5.4078E-02 -1.2634E-01  4.2379E-03 -3.8546E-02 -2.5161E-02
      18-
 mid.  surface     4.7478E-02  5.5874E-02 -9.9960E-02  3.0257E-03 -3.3808E-02 -8.4878E-03
      19-
 mid.  surface     3.8134E-02  6.3233E-02 -1.1793E-01 -5.2041E-04 -2.7638E-02 -2.4348E-02
      20-
 mid.  surface     6.6827E-02  6.5316E-02 -1.3833E-01  1.3697E-02  2.2624E-02  1.8085E-02
      21-
 mid.  surface     4.8934E-02  5.8356E-02 -1.3463E-01 -8.1992E-04  2.0692E-02  2.9880E-02
      22-
 mid.  surface     4.4024E-02  5.4185E-02 -9.4359E-02  3.9047E-04  1.7589E-02  5.7537E-03
      23-
 mid.  surface     7.2235E-02  5.8942E-02 -1.2810E-01  1.1359E-02  3.4632E-02  1.2776E-02
      40-
 mid.  surface     6.4512E-02  5.8008E-02 -1.2553E-01  3.3743E-03  1.8132E-02 -5.5348E-03
      41-
 mid.  surface     4.2012E-02  6.5667E-02 -1.0606E-01  4.7728E-03  1.4907E-02  6.1747E-03
      85-
 mid.  surface     5.1703E-02  6.4547E-02 -1.6503E-01  6.7750E-03  3.0934E-02 -2.7126E-02
      86-
 mid.  surface     5.3122E-02  5.7264E-02 -1.1849E-01  6.7386E-03  4.8688E-02 -3.9278E-02
     100-
 mid.  surface     3.9782E-02  6.1190E-02 -1.0784E-01 -4.2067E-03 -7.8428E-03  9.8864E-03
     110-
 mid.  surface     6.3526E-02  5.2864E-02 -1.3478E-01 -3.6645E-03 -1.2632E-02 -8.1693E-03



 n o d a l  s t r e s s  c a l c u l a t i o n s   f o r   t i m e  s t e p      146   ( at time 1.57475E+01 )

 node (global)
          stress       sig-xx      sig-yy      sig-zz      sig-xy      sig-yz      sig-zx       plastic
                                                                                                 strain 
       1-
 mid.  surface    -1.7546E+07 -2.3913E+08 -1.0184E+09  7.8421E+07  2.5800E+08  1.6446E+08 -2.1353E-02
       2-
 mid.  surface    -2.2688E+09 -2.3266E+09 -3.3657E+09  1.9612E+08  2.0649E+08  7.2526E+05  6.6135E-02
       8-
 mid.  surface     1.4759E+08  5.8525E+07 -7.1623E+07 -2.8846E+07 -1.7630E+08  1.1619E+07  1.3849E-01
       9-
 mid.  surface    -1.0789E+09 -1.1710E+09 -1.3964E+09 -3.7364E+07 -2.2259E+07  3.9477E+07  1.6232E-01
      10-
 mid.  surface     2.6487E+08  2.4890E+08 -7.3460E+07 -3.4502E+07 -9.5900E+07  1.6015E+07  1.4319E-01
      11-
 mid.  surface    -1.1512E+09 -1.2570E+09 -7.9199E+08  9.7935E+06  6.1880E+07  2.1469E+07  5.8230E-02
      12-
 mid.  surface    -1.9743E+09 -2.0658E+09 -1.5227E+09  5.5191E+07  1.4150E+08  1.8234E+08 -1.1455E-01
      17-
 mid.  surface    -2.3875E+09 -2.5347E+09 -2.0018E+09  2.2006E+07  8.5481E+07  5.8212E+07  8.6779E-02
      18-
 mid.  surface     3.8458E+08  3.2475E+08  1.3936E+08 -7.6236E+06 -2.2605E+08 -5.5489E+07  1.3785E-01
      19-
 mid.  surface    -3.8983E+09 -3.8505E+09 -3.7919E+09  1.2141E+08  1.8632E+08  1.5129E+08  1.0961E-02
      20-
 mid.  surface     1.4036E+09  1.4668E+09  4.6085E+08 -6.2900E+07 -7.5296E+07 -4.5875E+07  2.4243E-01
      21-
 mid.  surface     9.1716E+08  1.1073E+09  1.4732E+08 -1.3742E+08 -2.4576E+08 -1.2238E+08  3.3342E-01
      22-
 mid.  surface     2.7453E+09  2.8562E+09  2.3185E+09 -1.6448E+08 -2.3598E+08 -1.2325E+08  2.1927E-01
      23-
 mid.  surface     2.5684E+09  2.6045E+09  1.5504E+09 -6.9859E+07 -4.2910E+07 -1.3588E+08  2.2635E-01
      40-
 mid.  surface     3.1689E+08  3.6070E+08 -5.2390E+07  3.5509E+07  1.4650E+08  3.6149E+07  1.5699E-01
      41-
 mid.  surface     5.1504E+08  5.8588E+08  2.2963E+08  3.2466E+07 -3.2882E+07  1.5426E+06  1.3359E-01
      85-
 mid.  surface     3.6590E+08  5.9443E+08 -3.0430E+08 -3.8366E+07 -1.5924E+08 -3.9351E+08  5.0366E-01
      86-
 mid.  surface     1.8546E+09  1.9074E+09  1.9515E+09 -1.0304E+08 -6.9170E+07 -1.0829E+08  3.0688E-01
     100-
 mid.  surface    -1.3636E+08 -7.1445E+07 -3.1506E+08 -8.3155E+05 -3.3848E+07  2.4201E+07  1.4194E-01
     110-
 mid.  surface    -1.1304E+09 -1.0883E+09 -1.3921E+09  1.4545E+07  1.4257E+08  2.1060E+07  1.7720E-01



 n o d a l  s t r a i n  c a l c u l a t i o n s   f o r   t i m e  s t e p      146   ( at time 1.57475E+01 )

 node (global)
          strain       eps-xx      eps-yy      eps-zz      eps-xy      eps-yz      eps-zx       
       1-
 mid.  surface     7.2814E-02  7.4294E-02 -1.3362E-01  9.7864E-03 -9.5680E-03 -5.1605E-03
       2-
 mid.  surface     7.2950E-02  9.2101E-02 -1.9023E-01  2.5316E-02 -6.6371E-03  4.8053E-03
       8-
 mid.  surface     5.5279E-02  7.0287E-02 -1.2610E-01 -1.4154E-02 -1.8217E-02  4.9547E-03
       9-
 mid.  surface     7.6116E-02  5.8432E-02 -1.5375E-01 -1.4099E-02 -1.9510E-02  3.7688E-03
      10-
 mid.  surface     7.5178E-02  5.8248E-02 -1.3313E-01 -9.2608E-05 -3.6216E-02  2.4480E-03
      11-
 mid.  surface     7.7662E-02  5.4403E-02 -1.2302E-01  4.1398E-03 -4.8734E-02 -1.6005E-02
      12-
 mid.  surface     3.4313E-02  6.8448E-02 -7.9782E-02 -1.4785E-03 -5.5022E-02 -3.6497E-02
      17-
 mid.  surface     8.2704E-02  5.8358E-02 -1.4962E-01  4.9377E-03 -3.8411E-02 -2.7735E-02
      18-
 mid.  surface     6.1067E-02  6.4886E-02 -1.2322E-01  4.5263E-03 -4.1071E-02 -1.1386E-02
      19-
 mid.  surface     3.9211E-02  8.1118E-02 -1.3963E-01  3.4604E-03 -3.4851E-02 -2.5101E-02
      20-
 mid.  surface     7.2167E-02  7.6276E-02 -1.6327E-01  9.3437E-03  3.0876E-02  2.5055E-02
      21-
 mid.  surface     5.5213E-02  7.0176E-02 -1.5898E-01 -4.6885E-03  2.3333E-02  3.7618E-02
      22-
 mid.  surface     4.8523E-02  6.1438E-02 -1.0368E-01 -4.4819E-03  1.8212E-02  4.3140E-03
      23-
 mid.  surface     7.7761E-02  6.5653E-02 -1.4232E-01  4.9315E-03  3.5874E-02  9.5834E-03
      40-
 mid.  surface     7.7321E-02  7.2448E-02 -1.4888E-01  6.2683E-03  2.2365E-02 -3.5829E-03
      41-
 mid.  surface     5.1305E-02  8.2480E-02 -1.2894E-01  8.4373E-03  1.3668E-02  6.7381E-03
      85-
 mid.  surface     7.3337E-02  7.4066E-02 -2.0128E-01  1.2524E-02  4.0292E-02 -3.5911E-02
      86-
 mid.  surface     7.6324E-02  6.4036E-02 -1.4251E-01  1.0416E-02  6.3809E-02 -3.5793E-02
     100-
 mid.  surface     4.6073E-02  7.7095E-02 -1.2682E-01 -4.5879E-03 -1.2026E-02  1.1696E-02
     110-
 mid.  surface     7.4561E-02  6.6002E-02 -1.5973E-01 -2.3494E-03 -1.4608E-02 -1.0787E-02



 n o d a l  s t r e s s  c a l c u l a t i o n s   f o r   t i m e  s t e p      155   ( at time 1.77381E+01 )

 node (global)
          stress       sig-xx      sig-yy      sig-zz      sig-xy      sig-yz      sig-zx       plastic
                                                                                                 strain 
       1-
 mid.  surface    -3.1650E+09 -3.3956E+09 -2.7100E+09  1.4955E+08  1.8810E+08  8.1593E+07 -3.6682E-02
       2-
 mid.  surface     1.8007E+09  1.5987E+09 -9.5666E+08  1.1827E+08  1.6832E+08 -8.8052E+07  2.7290E-01
       8-
 mid.  surface     1.3676E+08  5.0363E+07 -8.9648E+07 -3.2183E+07 -2.2683E+08  1.4724E+07  1.6583E-01
       9-
 mid.  surface    -1.2560E+09 -1.3340E+09 -1.5670E+09 -1.9115E+07 -5.6225E+07  3.5483E+07  1.8561E-01
      10-
 mid.  surface     3.8443E+08  3.9639E+08  7.0504E+07  5.5634E+06 -8.2834E+07 -2.5206E+06  1.6937E-01
      11-
 mid.  surface     5.4971E+08  5.1697E+08  1.5533E+08  1.5391E+07  1.9194E+08  7.9911E+07  9.2614E-02
      12-
 mid.  surface    -2.0583E+09 -2.0249E+09 -1.5525E+09  4.4251E+07  3.0646E+08  1.3541E+08 -1.5302E-01
      17-
 mid.  surface    -8.0089E+08 -9.6897E+08 -1.1928E+09  1.5262E+06  1.3776E+08  7.2293E+07  1.2619E-01
      18-
 mid.  surface     2.3801E+08  1.8622E+08  2.8393E+07  5.2815E+06 -2.4987E+08 -4.0438E+07  1.7330E-01
      19-
 mid.  surface    -7.1772E+07 -6.7111E+07 -1.5353E+09  1.9576E+07  3.3754E+08  6.5124E+07  1.0852E-01
      20-
 mid.  surface    -3.0476E+08 -3.3466E+08 -6.0582E+08 -4.7357E+07 -2.4044E+08 -6.1380E+07  2.6548E-01
      21-
 mid.  surface     1.3274E+09  1.5474E+09  5.0588E+08 -1.1015E+08 -3.2886E+08 -1.1718E+08  3.8618E-01
      22-
 mid.  surface    -4.5753E+08 -2.1132E+08  6.1231E+08 -1.0265E+08 -3.1258E+08 -9.1473E+07  1.3657E-01
      23-
 mid.  surface     1.2162E+09  1.2950E+09  8.8568E+08 -4.9281E+07 -1.3685E+08 -8.1096E+07  2.4578E-01
      40-
 mid.  surface     4.0308E+08  4.9835E+08  7.9549E+07  2.2368E+07  1.8095E+08  2.7332E+07  1.8889E-01
      41-
 mid.  surface     7.3367E+08  7.6942E+08  4.3054E+08  1.2524E+07 -3.2227E+07 -7.8289E+06  1.5981E-01
      85-
 mid.  surface     4.6927E+09  4.7620E+09  2.3059E+09 -4.0227E+07 -1.8570E+08 -2.6018E+08  6.9288E-01
      86-
 mid.  surface    -1.4594E+09 -1.4336E+09  4.6729E+07 -2.0957E+07 -1.0025E+08  1.7482E+07  2.2700E-01
     100-
 mid.  surface    -6.6801E+07 -8.5464E+07 -2.6714E+08 -6.9198E+06 -2.2183E+07  8.0679E+06  1.7173E-01
     110-
 mid.  surface    -1.3149E+09 -1.3293E+09 -1.5830E+09  2.1695E+07  1.5984E+08  1.6279E+07  2.0832E-01



 n o d a l  s t r a i n  c a l c u l a t i o n s   f o r   t i m e  s t e p      155   ( at time 1.77381E+01 )

 node (global)
          strain       eps-xx      eps-yy      eps-zz      eps-xy      eps-yz      eps-zx       
       1-
 mid.  surface     1.0123E-01  8.6446E-02 -1.6543E-01  1.3471E-02 -2.0075E-02 -1.0932E-02
       2-
 mid.  surface     1.0361E-01  1.0844E-01 -2.3706E-01  3.7638E-02 -1.5594E-02  3.5093E-03
       8-
 mid.  surface     6.8354E-02  7.9162E-02 -1.4872E-01 -1.8050E-02 -2.7431E-02  8.6029E-03
       9-
 mid.  surface     8.9244E-02  6.3001E-02 -1.7405E-01 -1.5505E-02 -3.3026E-02  6.4674E-03
      10-
 mid.  surface     8.7517E-02  7.1739E-02 -1.5741E-01  1.9179E-03 -3.9815E-02  1.2939E-03
      11-
 mid.  surface     8.1707E-02  6.2324E-02 -1.3836E-01  2.9718E-04 -4.9515E-02 -1.4680E-02
      12-
 mid.  surface     2.9282E-02  7.9268E-02 -8.1009E-02 -8.5433E-03 -6.4544E-02 -3.9786E-02
      17-
 mid.  surface     9.4161E-02  6.5643E-02 -1.7366E-01  2.2167E-03 -4.0466E-02 -2.9381E-02
      18-
 mid.  surface     7.5624E-02  7.7683E-02 -1.5306E-01  6.3555E-03 -4.8143E-02 -1.3409E-02
      19-
 mid.  surface     3.9241E-02  9.5845E-02 -1.5416E-01  1.5641E-03 -3.9788E-02 -2.4686E-02
      20-
 mid.  surface     9.0114E-02  8.4968E-02 -1.9084E-01  1.1511E-02  3.4115E-02  3.0705E-02
      21-
 mid.  surface     5.9399E-02  8.7546E-02 -1.8093E-01 -2.3396E-03  3.0790E-02  4.4626E-02
      22-
 mid.  surface     4.9786E-02  7.5172E-02 -1.1163E-01 -8.5910E-03  1.8681E-02 -5.8250E-03
      23-
 mid.  surface     9.1855E-02  7.7006E-02 -1.6284E-01  4.1658E-03  3.4759E-02  1.0479E-02
      40-
 mid.  surface     8.8750E-02  8.9941E-02 -1.7672E-01  6.9437E-03  2.8334E-02 -1.8453E-03
      41-
 mid.  surface     6.3281E-02  9.9989E-02 -1.5599E-01  8.9636E-03  1.3407E-02  5.7762E-03
      85-
 mid.  surface     9.5126E-02  9.2248E-02 -2.5397E-01  1.9648E-02  5.1211E-02 -4.3987E-02
      86-
 mid.  surface     9.9643E-02  7.5912E-02 -1.8031E-01  6.5840E-03  8.4519E-02 -3.3170E-02
     100-
 mid.  surface     5.6997E-02  8.8001E-02 -1.4869E-01 -5.5347E-03 -1.3325E-02  1.1952E-02
     110-
 mid.  surface     8.7049E-02  7.3859E-02 -1.8327E-01  3.9255E-04 -2.0392E-02 -1.2574E-02



 n o d a l  s t r e s s  c a l c u l a t i o n s   f o r   t i m e  s t e p      165   ( at time 1.97286E+01 )

 node (global)
          stress       sig-xx      sig-yy      sig-zz      sig-xy      sig-yz      sig-zx       plastic
                                                                                                 strain 
       1-
 mid.  surface     2.3878E+09  2.0080E+09  1.2927E+08  6.9909E+07  1.5525E+08  9.5345E+07  1.3070E-01
       2-
 mid.  surface     1.4631E+09  1.2628E+09  1.5973E+08  4.0843E+07  2.9157E+08  3.9426E+07  3.8842E-01
       8-
 mid.  surface    -1.5874E+08 -1.9812E+08 -2.9959E+08  6.2322E+06 -2.0539E+08  3.0661E+07  2.0177E-01
       9-
 mid.  surface    -1.3443E+09 -1.3454E+09 -1.5285E+09  1.2153E+07 -1.4856E+08  1.5458E+07  2.1433E-01
      10-
 mid.  surface     1.3645E+08  1.8560E+08  4.4643E+08  5.3163E+07  5.3403E+07  4.0399E+07  1.4273E-01
      11-
 mid.  surface    -7.5033E+08 -7.5771E+08  5.9223E+07  7.0021E+07  4.6242E+08  1.7289E+08  5.1777E-02
      12-
 mid.  surface    -1.6350E+09 -1.8255E+09 -1.5893E+09  2.0669E+07  1.8069E+08  2.0171E+08 -1.5781E-01
      17-
 mid.  surface    -9.9185E+08 -1.0022E+09 -1.2599E+09  4.9280E+07  2.7659E+08  5.9492E+07  1.6677E-01
      18-
 mid.  surface    -5.3065E+08 -5.9571E+08 -2.3381E+08  4.3508E+07 -4.8900E+07  1.7194E+07  1.5405E-01
      19-
 mid.  surface    -8.1081E+08 -8.0400E+08 -1.7224E+09 -5.6546E+05  1.1954E+08  9.7323E+07  1.8009E-01
      20-
 mid.  surface     1.7239E+09  1.8850E+09 -1.2050E+08 -6.1816E+07 -4.2158E+08 -1.7403E+08  4.2693E-01
      21-
 mid.  surface    -8.6938E+08 -5.5327E+08 -6.7888E+08 -6.9825E+07 -3.2225E+08 -1.4042E+08  3.7550E-01
      22-
 mid.  surface    -6.8389E+08 -5.6366E+08  5.8809E+07 -4.7842E+07 -3.1007E+08 -9.0032E+07  7.5241E-02
      23-
 mid.  surface     1.6833E+09  1.7710E+09  1.2176E+09 -6.7413E+07 -2.5935E+08 -1.0006E+08  3.0346E-01
      40-
 mid.  surface     1.4159E+09  1.4614E+09  3.8071E+08 -5.4236E+07 -6.4092E+07  1.0309E+07  2.5709E-01
      41-
 mid.  surface     1.2426E+09  1.1674E+09  1.8696E+08 -4.3796E+07 -1.8841E+08 -2.5379E+07  2.3005E-01
      85-
 mid.  surface     1.5402E+09  1.5119E+09  2.2108E+09  3.5724E+06  7.4387E+07 -2.1236E+08  6.4452E-01
      86-
 mid.  surface     1.4566E+09  1.3071E+09  1.2977E+09  2.9093E+07 -2.1252E+06 -1.9346E+08  2.3286E-01
     100-
 mid.  surface    -2.2775E+08 -2.4098E+08 -4.4039E+08  3.8282E+05  1.2016E+08  5.2308E+07  2.0685E-01
     110-
 mid.  surface    -1.4489E+09 -1.4024E+09 -1.6872E+09 -1.5890E+07  1.8811E+08  3.3903E+07  2.4037E-01



 n o d a l  s t r a i n  c a l c u l a t i o n s   f o r   t i m e  s t e p      165   ( at time 1.97286E+01 )

 node (global)
          strain       eps-xx      eps-yy      eps-zz      eps-xy      eps-yz      eps-zx       
       1-
 mid.  surface     1.2227E-01  1.0176E-01 -1.8146E-01  1.8461E-02 -2.2807E-02 -2.6207E-02
       2-
 mid.  surface     1.3069E-01  1.2053E-01 -2.6777E-01  4.2747E-02 -1.4245E-02 -1.3032E-03
       8-
 mid.  surface     7.8612E-02  9.6931E-02 -1.8017E-01 -1.5599E-02 -3.3636E-02  1.0417E-02
       9-
 mid.  surface     9.7605E-02  7.1684E-02 -1.9197E-01 -1.1221E-02 -4.8038E-02  6.0270E-03
      10-
 mid.  surface     9.4772E-02  7.7378E-02 -1.6710E-01  1.9597E-03 -4.7828E-02  8.4350E-04
      11-
 mid.  surface     8.6553E-02  8.0061E-02 -1.6276E-01 -1.3685E-03 -4.8750E-02 -1.2663E-02
      12-
 mid.  surface     3.9971E-02  9.3347E-02 -9.8063E-02 -7.5762E-03 -7.0905E-02 -4.3873E-02
      17-
 mid.  surface     1.0479E-01  7.9821E-02 -2.0479E-01 -2.3039E-04 -4.1573E-02 -3.1611E-02
      18-
 mid.  surface     8.6367E-02  8.7599E-02 -1.7818E-01  5.1183E-03 -5.5195E-02 -1.2882E-02
      19-
 mid.  surface     5.5057E-02  1.0464E-01 -1.7915E-01  2.2881E-03 -4.0388E-02 -2.6283E-02
      20-
 mid.  surface     1.0511E-01  1.0500E-01 -2.2515E-01  1.5453E-02  4.0545E-02  2.8050E-02
      21-
 mid.  surface     7.4580E-02  9.7998E-02 -2.1338E-01 -4.9929E-03  3.0868E-02  5.2947E-02
      22-
 mid.  surface     6.0119E-02  8.9895E-02 -1.3507E-01 -1.0747E-02  9.5833E-03 -8.1278E-03
      23-
 mid.  surface     1.0330E-01  1.0088E-01 -1.9280E-01  7.9270E-03  4.0153E-02  6.4403E-03
      40-
 mid.  surface     1.0048E-01  1.0116E-01 -1.9506E-01  7.3563E-03  3.0246E-02  2.9919E-04
      41-
 mid.  surface     7.6622E-02  1.1117E-01 -1.8322E-01  1.0627E-02  2.3676E-02  9.8332E-03
      85-
 mid.  surface     1.1338E-01  1.0982E-01 -2.9734E-01  1.8828E-02  6.0132E-02 -3.6309E-02
      86-
 mid.  surface     1.1148E-01  9.2775E-02 -2.0913E-01  6.9277E-03  9.9018E-02 -4.3277E-02
     100-
 mid.  surface     6.9517E-02  1.0387E-01 -1.7978E-01 -4.8793E-03 -6.9678E-03  1.6039E-02
     110-
 mid.  surface     9.7156E-02  8.4037E-02 -2.0581E-01 -7.5243E-04 -2.8523E-02 -1.0889E-02



 n o d a l  s t r e s s  c a l c u l a t i o n s   f o r   t i m e  s t e p      175   ( at time 2.17192E+01 )

 node (global)
          stress       sig-xx      sig-yy      sig-zz      sig-xy      sig-yz      sig-zx       plastic
                                                                                                 strain 
       1-
 mid.  surface     1.0703E+09  8.1009E+08 -2.5969E+08  1.1292E+07  1.8471E+08  2.3632E+07  2.1205E-01
       2-
 mid.  surface    -3.6079E+08 -4.0033E+08 -7.7873E+08  1.4963E+07  2.7703E+08 -1.7841E+07  4.2434E-01
       8-
 mid.  surface    -2.9316E+09 -2.8718E+09 -1.9418E+09 -1.7229E+07  4.7052E+08  7.1493E+07  1.1451E-01
       9-
 mid.  surface    -4.1778E+09 -4.1529E+09 -3.1677E+09  2.2174E+07  3.3194E+08  1.1981E+07  1.3185E-01
      10-
 mid.  surface     3.5738E+06  9.9269E+07  2.6596E+08  6.5628E+07  5.4936E+08  1.1556E+08  1.2678E-01
      11-
 mid.  surface     7.4159E+08  8.1337E+08  8.5794E+08  2.8861E+07  6.8734E+08  1.8064E+08  6.2079E-02
      12-
 mid.  surface    -1.3945E+08 -4.3719E+08 -5.7500E+08  3.5653E+07  1.7461E+08  1.1568E+08 -1.2240E-01
      17-
 mid.  surface    -8.7647E+07  1.7078E+07 -1.0866E+09  3.1053E+07  5.0535E+08  9.7214E+07  2.4683E-01
      18-
 mid.  surface    -1.0300E+09 -9.8253E+08 -7.8783E+08  3.1276E+07  5.1977E+08  1.1866E+08  1.4505E-01
      19-
 mid.  surface    -4.0549E+08 -4.7349E+08 -1.4502E+09  4.1261E+07  1.3419E+08  2.8505E+07  2.5677E-01
      20-
 mid.  surface     4.9399E+08  6.2433E+08 -8.0403E+08 -4.1802E+07 -6.4375E+08 -1.9410E+08  5.1699E-01
      21-
 mid.  surface    -3.3359E+08 -1.5574E+08 -6.2842E+08  2.7438E+06 -3.5563E+08 -1.1707E+08  3.9884E-01
      22-
 mid.  surface    -1.6942E+08 -1.9635E+08  4.5011E+08 -2.5769E+07 -3.0298E+08 -5.9379E+07  3.7342E-02
      23-
 mid.  surface     1.0055E+09  1.0704E+09  1.1369E+09 -7.4229E+07 -4.9996E+08 -1.4079E+08  3.0115E-01
      40-
 mid.  surface     2.0409E+09  2.0471E+09  1.0386E+09 -2.6574E+07 -6.2094E+08 -6.4100E+07  3.4447E-01
      41-
 mid.  surface     1.8100E+09  1.7037E+09  7.4720E+08 -1.4364E+07 -6.6581E+08 -6.9927E+07  3.1776E-01
      85-
 mid.  surface    -7.1030E+08 -5.3956E+08  1.0016E+09 -5.9080E+07  1.6147E+08 -9.7546E+07  5.2717E-01
      86-
 mid.  surface    -7.7149E+07 -5.0611E+07  6.6535E+08 -2.7151E+07  9.4181E+07 -2.6506E+07  1.7565E-01
     100-
 mid.  surface     3.1135E+09  3.0056E+09  1.4925E+09 -5.6671E+06 -4.0670E+08 -1.3382E+06  3.5245E-01
     110-
 mid.  surface     1.6315E+09  1.5376E+09 -2.8678E+07 -6.8709E+06 -5.5659E+08 -6.8918E+07  3.8222E-01



 n o d a l  s t r a i n  c a l c u l a t i o n s   f o r   t i m e  s t e p      175   ( at time 2.17192E+01 )

 node (global)
          strain       eps-xx      eps-yy      eps-zz      eps-xy      eps-yz      eps-zx       
       1-
 mid.  surface     1.3854E-01  1.1728E-01 -2.0401E-01  2.7426E-02 -2.7148E-02 -3.2233E-02
       2-
 mid.  surface     1.5410E-01  1.2732E-01 -2.9543E-01  4.4156E-02 -1.3844E-02  9.2997E-04
       8-
 mid.  surface     8.5923E-02  1.2269E-01 -2.0528E-01 -1.5055E-02 -3.6182E-02  1.3744E-02
       9-
 mid.  surface     1.0691E-01  8.7456E-02 -2.1093E-01 -4.9407E-03 -6.4466E-02  6.7154E-03
      10-
 mid.  surface     1.0404E-01  8.9759E-02 -1.8577E-01  4.5892E-03 -5.5191E-02  2.0186E-03
      11-
 mid.  surface     8.8930E-02  9.1599E-02 -1.7781E-01 -6.6543E-03 -4.8640E-02 -1.0789E-02
      12-
 mid.  surface     5.5322E-02  1.0730E-01 -1.1859E-01 -3.3184E-03 -7.5836E-02 -4.2562E-02
      17-
 mid.  surface     1.0813E-01  9.1246E-02 -2.2797E-01 -7.1102E-03 -4.5862E-02 -3.4507E-02
      18-
 mid.  surface     9.7431E-02  1.0763E-01 -2.1080E-01  4.2311E-03 -6.1084E-02 -1.1266E-02
      19-
 mid.  surface     7.3072E-02  1.1098E-01 -2.0239E-01  2.1376E-03 -4.3327E-02 -2.5245E-02
      20-
 mid.  surface     1.1572E-01  1.2286E-01 -2.5381E-01  1.8656E-02  4.6992E-02  2.7631E-02
      21-
 mid.  surface     8.8760E-02  1.1028E-01 -2.4417E-01 -3.4288E-03  3.0694E-02  4.9922E-02
      22-
 mid.  surface     7.2365E-02  1.0803E-01 -1.6327E-01 -6.5536E-03  6.5151E-03 -1.1065E-02
      23-
 mid.  surface     1.1277E-01  1.2197E-01 -2.1527E-01  1.1780E-02  4.3660E-02  2.2192E-03
      40-
 mid.  surface     1.1244E-01  1.1346E-01 -2.2076E-01  9.4938E-03  3.1367E-02  4.0512E-03
      41-
 mid.  surface     9.3354E-02  1.2558E-01 -2.1629E-01  1.4737E-02  2.9531E-02  1.2099E-02
      85-
 mid.  surface     1.2599E-01  1.2381E-01 -3.3411E-01  1.5482E-02  6.7899E-02 -4.0303E-02
      86-
 mid.  surface     1.1922E-01  1.1332E-01 -2.4106E-01  6.5523E-03  1.0900E-01 -4.8302E-02
     100-
 mid.  surface     8.4616E-02  1.0835E-01 -2.0416E-01 -9.0347E-03  2.7744E-03  1.6053E-02
     110-
 mid.  surface     1.1077E-01  8.1985E-02 -2.2648E-01 -4.2829E-03 -4.3632E-02 -1.5364E-02



 n o d a l  s t r e s s  c a l c u l a t i o n s   f o r   t i m e  s t e p      185   ( at time 2.37097E+01 )

 node (global)
          stress       sig-xx      sig-yy      sig-zz      sig-xy      sig-yz      sig-zx       plastic
                                                                                                 strain 
       1-
 mid.  surface     6.7924E+08  5.3245E+08 -6.3691E+08 -3.7152E+07  1.8631E+08  5.7226E+07  2.9748E-01
       2-
 mid.  surface    -8.2957E+08 -8.1228E+08 -1.2300E+09  2.3630E+07  2.6448E+08 -3.5127E+06  4.5719E-01
       8-
 mid.  surface    -5.0748E+09 -4.9054E+09 -3.6730E+09 -2.7137E+07  6.7509E+08  1.0776E+08  1.2699E-02
       9-
 mid.  surface    -4.5803E+09 -4.5085E+09 -3.9209E+09  2.4759E+07  1.5986E+08 -4.5329E+07  9.2314E-02
      10-
 mid.  surface    -3.9795E+08 -3.0867E+08  2.4137E+08  3.5476E+07  2.1512E+08  5.7153E+07  8.5847E-02
      11-
 mid.  surface    -9.7175E+07  9.0314E+07  5.3534E+08  3.6337E+07  6.4229E+08  2.1485E+08  3.9806E-02
      12-
 mid.  surface     1.3051E+08 -1.2602E+08 -5.0872E+08 -1.1370E+07  1.2144E+08  1.0285E+08 -7.3061E-02
      17-
 mid.  surface     3.5743E+08  4.9428E+08 -1.0637E+09  4.8105E+07  5.0081E+08  8.3912E+07  3.6324E-01
      18-
 mid.  surface    -1.3326E+09 -1.2636E+09 -1.0400E+09  9.2655E+06  3.8817E+08  1.1844E+08  1.3017E-01
      19-
 mid.  surface     3.3763E+08  2.1633E+08 -1.0919E+09  3.5923E+07  6.0832E+07 -4.0234E+07  3.5061E-01
      20-
 mid.  surface     8.9365E+08  1.0473E+09 -5.1900E+08  1.5845E+06 -4.9555E+08 -1.8253E+08  6.2099E-01
      21-
 mid.  surface     5.4901E+08  5.7134E+08 -5.3356E+07  9.4507E+06 -3.4975E+08 -1.6994E+08  4.3531E-01
      22-
 mid.  surface    -2.6481E+08 -2.8314E+08  5.9550E+08 -4.3971E+07 -2.5736E+08 -3.2029E+07 -1.6418E-02
      23-
 mid.  surface     4.4592E+08  6.2240E+08  1.0682E+09 -3.2161E+07 -3.2647E+08 -7.3433E+07  2.7791E-01
      40-
 mid.  surface     2.7961E+09  2.6687E+09  1.7706E+09 -2.6613E+07 -8.0247E+08 -1.1061E+08  4.1071E-01
      41-
 mid.  surface     2.0570E+09  1.8615E+09  9.4027E+08 -2.1902E+07 -4.9719E+08 -4.4890E+07  3.9302E-01
      85-
 mid.  surface    -1.3835E+09 -1.2736E+09  3.4162E+08 -5.5913E+06  1.3830E+08 -7.4326E+07  4.0731E-01
      86-
 mid.  surface    -5.5993E+08 -5.5495E+08  1.8788E+08 -2.2404E+07  9.7399E+07 -6.9334E+05  1.1984E-01
     100-
 mid.  surface     1.9836E+09  1.9234E+09  1.3671E+09 -1.6357E+06  1.1003E+08  1.4142E+08  3.9992E-01
     110-
 mid.  surface     1.7586E+09  1.6700E+09  4.6667E+08 -1.7923E+06 -3.8208E+08  1.5524E+06  4.8428E-01



 n o d a l  s t r a i n  c a l c u l a t i o n s   f o r   t i m e  s t e p      185   ( at time 2.37097E+01 )

 node (global)
          strain       eps-xx      eps-yy      eps-zz      eps-xy      eps-yz      eps-zx       
       1-
 mid.  surface     1.5216E-01  1.3372E-01 -2.2180E-01  3.4535E-02 -3.0613E-02 -4.0254E-02
       2-
 mid.  surface     1.7362E-01  1.3807E-01 -3.2772E-01  4.5750E-02 -1.3836E-02  1.5154E-03
       8-
 mid.  surface     9.4760E-02  1.4949E-01 -2.3789E-01 -9.6930E-03 -3.9042E-02  1.3174E-02
       9-
 mid.  surface     1.1568E-01  1.0291E-01 -2.3215E-01  1.7254E-03 -7.7869E-02  4.2741E-03
      10-
 mid.  surface     1.1146E-01  9.5282E-02 -1.9565E-01  4.9967E-03 -6.3878E-02  7.3621E-04
      11-
 mid.  surface     9.3770E-02  1.0598E-01 -1.9955E-01 -7.6263E-03 -4.5032E-02 -5.8986E-03
      12-
 mid.  surface     6.8796E-02  1.2174E-01 -1.3984E-01 -8.6430E-04 -8.1092E-02 -4.1239E-02
      17-
 mid.  surface     1.1469E-01  1.0709E-01 -2.5574E-01 -9.5239E-03 -4.7205E-02 -3.3731E-02
      18-
 mid.  surface     1.0717E-01  1.2381E-01 -2.3511E-01  2.7462E-03 -6.6459E-02 -1.0335E-02
      19-
 mid.  surface     8.9813E-02  1.1803E-01 -2.2395E-01  2.1723E-03 -4.3976E-02 -2.3287E-02
      20-
 mid.  surface     1.2718E-01  1.4512E-01 -2.8521E-01  2.4607E-02  5.1966E-02  2.5722E-02
      21-
 mid.  surface     1.0445E-01  1.1830E-01 -2.7286E-01 -6.0088E-03  3.1064E-02  4.6945E-02
      22-
 mid.  surface     8.3705E-02  1.2428E-01 -1.8985E-01 -6.9671E-03 -2.4383E-03 -1.6562E-02
      23-
 mid.  surface     1.2065E-01  1.4859E-01 -2.4471E-01  1.7587E-02  4.9562E-02 -2.9108E-03
      40-
 mid.  surface     1.2224E-01  1.1839E-01 -2.3745E-01  8.5296E-03  2.4993E-02  4.2738E-03
      41-
 mid.  surface     1.0819E-01  1.3389E-01 -2.4347E-01  1.5557E-02  4.1052E-02  1.6030E-02
      85-
 mid.  surface     1.3822E-01  1.4077E-01 -3.7663E-01  1.3876E-02  7.6283E-02 -3.9584E-02
      86-
 mid.  surface     1.2715E-01  1.3082E-01 -2.6902E-01  8.9114E-03  1.2240E-01 -5.0254E-02
     100-
 mid.  surface     1.0034E-01  1.1997E-01 -2.3696E-01 -8.1378E-03  8.4411E-03  2.0276E-02
     110-
 mid.  surface     1.2259E-01  8.5588E-02 -2.5115E-01 -7.2828E-03 -5.6685E-02 -1.2055E-02



 n o d a l  s t r e s s  c a l c u l a t i o n s   f o r   t i m e  s t e p      195   ( at time 2.57002E+01 )

 node (global)
          stress       sig-xx      sig-yy      sig-zz      sig-xy      sig-yz      sig-zx       plastic
                                                                                                 strain 
       1-
 mid.  surface     7.3813E+08  5.4620E+08 -6.2053E+08 -1.3375E+07  1.5787E+08  1.1473E+07  3.8106E-01
       2-
 mid.  surface    -8.6561E+08 -9.0174E+08 -1.2982E+09  2.5089E+07  2.5055E+08 -2.1805E+07  4.9151E-01
       8-
 mid.  surface    -5.6580E+09 -5.4514E+09 -4.5027E+09  1.8123E+07  4.6573E+08  9.9348E+07 -5.5962E-02
       9-
 mid.  surface    -4.2556E+09 -4.2098E+09 -4.0692E+09  1.5212E+07 -1.2486E+08 -4.9301E+07  1.0532E-01
      10-
 mid.  surface    -4.6485E+08 -4.4800E+08 -1.5412E+07  3.5494E+07  1.5555E+08  2.6618E+07  6.1200E-02
      11-
 mid.  surface    -4.4415E+07  1.4965E+08  6.0589E+08  4.0326E+07  6.0124E+08  1.8262E+08  1.8819E-02
      12-
 mid.  surface     5.1942E+07 -2.0571E+08 -6.0200E+08  9.5753E+06  1.1175E+08  7.9653E+07 -2.6548E-02
      17-
 mid.  surface     4.7723E+08  6.8394E+08 -9.2566E+08  1.8626E+06  4.4920E+08  8.8072E+07  4.7643E-01
      18-
 mid.  surface    -2.4458E+09 -2.4121E+09 -1.9418E+09 -1.1607E+07  4.8112E+08  1.0723E+08  9.8861E-02
      19-
 mid.  surface     4.1008E+08  3.2069E+08 -1.0217E+09  2.9424E+07  5.2201E+07 -5.2864E+07  4.4022E-01
      20-
 mid.  surface     1.0028E+09  1.1988E+09 -4.4037E+08 -1.3235E+07 -4.9113E+08 -1.1818E+08  7.1907E-01
      21-
 mid.  surface     6.0971E+08  6.8047E+08  1.7383E+07 -6.2787E+06 -3.2510E+08 -1.4934E+08  4.6799E-01
      22-
 mid.  surface    -3.0874E+08 -3.3484E+08  5.5489E+08 -3.9054E+07 -2.3047E+08 -1.0515E+07 -6.8982E-02
      23-
 mid.  surface     5.0535E+08  6.4381E+08  1.0789E+09 -1.2874E+07 -3.0530E+08 -4.5434E+07  2.5274E-01
      40-
 mid.  surface     3.1162E+09  2.9484E+09  2.1762E+09 -7.5593E+06 -6.3608E+08 -1.2338E+08  4.5658E-01
      41-
 mid.  surface     1.3209E+09  1.1229E+09  6.5351E+08 -1.9923E+07 -2.1464E+08 -2.2030E+07  4.1799E-01
      85-
 mid.  surface    -1.5316E+09 -1.4368E+09  2.1723E+08 -2.1571E+07  1.4035E+08 -5.2799E+07  2.9381E-01
      86-
 mid.  surface    -5.9383E+08 -6.0334E+08  1.6075E+08 -2.2746E+07  8.9842E+07 -6.9700E+06  6.6900E-02
     100-
 mid.  surface     1.7421E+09  1.7899E+09  1.5407E+09  1.5930E+07  2.4647E+08  1.3678E+08  4.1216E-01
     110-
 mid.  surface     3.5033E+09  3.4479E+09  1.7763E+09  4.2677E+06 -5.7632E+08 -1.9879E+07  6.1406E-01



 n o d a l  s t r a i n  c a l c u l a t i o n s   f o r   t i m e  s t e p      195   ( at time 2.57002E+01 )

 node (global)
          strain       eps-xx      eps-yy      eps-zz      eps-xy      eps-yz      eps-zx       
       1-
 mid.  surface     1.6682E-01  1.4730E-01 -2.3784E-01  4.2320E-02 -3.3910E-02 -4.9034E-02
       2-
 mid.  surface     1.9431E-01  1.4660E-01 -3.5815E-01  4.7128E-02 -1.3085E-02  2.2629E-03
       8-
 mid.  surface     1.0247E-01  1.7797E-01 -2.6459E-01 -6.3667E-03 -3.9576E-02  1.3398E-02
       9-
 mid.  surface     1.2588E-01  1.2239E-01 -2.5654E-01  4.6140E-03 -8.7803E-02  3.2901E-03
      10-
 mid.  surface     1.2004E-01  1.0065E-01 -2.0840E-01  6.1692E-03 -6.9259E-02  6.2467E-04
      11-
 mid.  surface     9.6878E-02  1.1980E-01 -2.1832E-01 -8.4141E-03 -4.1666E-02 -8.5833E-04
      12-
 mid.  surface     7.8905E-02  1.3525E-01 -1.6104E-01  1.1446E-03 -8.4928E-02 -3.8897E-02
      17-
 mid.  surface     1.1985E-01  1.2179E-01 -2.8031E-01 -1.3872E-02 -4.8019E-02 -3.2739E-02
      18-
 mid.  surface     1.1668E-01  1.3790E-01 -2.5823E-01  1.4981E-03 -6.9785E-02 -9.1018E-03
      19-
 mid.  surface     1.0335E-01  1.2370E-01 -2.4587E-01  4.7725E-04 -4.4008E-02 -2.1870E-02
      20-
 mid.  surface     1.3793E-01  1.6573E-01 -3.1470E-01  2.8391E-02  5.5860E-02  2.4829E-02
      21-
 mid.  surface     1.2010E-01  1.2778E-01 -3.0159E-01 -6.7866E-03  3.0742E-02  4.1420E-02
      22-
 mid.  surface     9.6520E-02  1.4114E-01 -2.1665E-01 -5.2126E-03 -1.1077E-02 -2.1124E-02
      23-
 mid.  surface     1.2846E-01  1.7360E-01 -2.7261E-01  2.2284E-02  5.5124E-02 -7.6254E-03
      40-
 mid.  surface     1.3237E-01  1.2359E-01 -2.5717E-01  8.7112E-03  1.9641E-02  5.7190E-03
      41-
 mid.  surface     1.2333E-01  1.4152E-01 -2.6972E-01  1.6516E-02  4.9711E-02  1.8733E-02
      85-
 mid.  surface     1.4832E-01  1.5781E-01 -4.1725E-01  1.1357E-02  8.3536E-02 -3.7631E-02
      86-
 mid.  surface     1.3291E-01  1.4836E-01 -2.9471E-01  1.0499E-02  1.3472E-01 -5.2165E-02
     100-
 mid.  surface     1.1401E-01  1.2957E-01 -2.6325E-01 -8.7407E-03  1.1303E-02  2.3683E-02
     110-
 mid.  surface     1.3464E-01  8.7420E-02 -2.7573E-01 -9.9319E-03 -7.2440E-02 -1.2737E-02



 n o d a l  s t r e s s  c a l c u l a t i o n s   f o r   t i m e  s t e p      205   ( at time 2.76908E+01 )

 node (global)
          stress       sig-xx      sig-yy      sig-zz      sig-xy      sig-yz      sig-zx       plastic
                                                                                                 strain 
       1-
 mid.  surface     7.2011E+08  5.5350E+08 -6.4504E+08 -2.4445E+07  1.2164E+08 -1.5195E+07  4.6643E-01
       2-
 mid.  surface    -9.0442E+08 -9.4045E+08 -1.3440E+09  2.2990E+07  2.2756E+08 -2.3176E+07  5.2477E-01
       8-
 mid.  surface    -4.8510E+09 -4.5349E+09 -4.2381E+09  9.3966E+07  2.4779E+08  8.5667E+07 -7.3342E-02
       9-
 mid.  surface    -3.8406E+09 -3.6446E+09 -3.9953E+09 -1.0973E+07 -2.4154E+08 -3.6008E+07  1.5234E-01
      10-
 mid.  surface    -1.3759E+09 -1.4287E+09 -7.2182E+08 -1.3811E+06  1.8866E+08  2.4434E+07  1.4828E-02
      11-
 mid.  surface     1.9884E+08  3.4680E+08  8.2591E+08  6.7574E+07  5.4110E+08  2.0149E+08 -1.3461E-03
      12-
 mid.  surface    -3.4040E+07 -2.7288E+08 -6.9434E+08  1.6455E+07  9.1051E+07  6.0048E+07  2.0967E-02
      17-
 mid.  surface     5.3541E+08  8.0024E+08 -8.6414E+08 -1.2409E+06  3.9452E+08  8.8913E+07  5.9317E-01
      18-
 mid.  surface    -3.0055E+09 -3.0503E+09 -2.7299E+09  5.2826E+06  3.9296E+08  9.5721E+07  7.8306E-02
      19-
 mid.  surface     5.7054E+08  5.3273E+08 -8.5517E+08  1.9966E+07  3.0473E+07 -7.5180E+07  5.2801E-01
      20-
 mid.  surface     1.0276E+09  1.2787E+09 -4.2663E+08 -3.6285E+07 -4.4670E+08 -1.0495E+08  8.1909E-01
      21-
 mid.  surface     7.0143E+08  8.0508E+08  1.1604E+08 -2.0686E+07 -2.8568E+08 -1.5880E+08  4.9887E-01
      22-
 mid.  surface    -3.9739E+08 -4.5000E+08  4.5748E+08 -3.4084E+07 -1.9650E+08 -2.4634E+06 -1.2155E-01
      23-
 mid.  surface     4.6283E+08  5.5003E+08  1.0003E+09 -2.5016E+06 -2.6810E+08 -1.6105E+07  2.2896E-01
      40-
 mid.  surface     2.3919E+09  2.1288E+09  1.9788E+09 -5.7164E+07 -4.2316E+08 -1.2023E+08  4.5076E-01
      41-
 mid.  surface     7.0954E+08  4.3831E+08  2.0493E+08 -2.3174E+07 -1.1398E+08 -4.1880E+07  4.2322E-01
      85-
 mid.  surface    -1.7255E+09 -1.6607E+09  3.7545E+07 -1.5045E+07  1.3945E+08 -3.0515E+07  1.7849E-01
      86-
 mid.  surface    -7.1653E+08 -7.3751E+08  4.6777E+07 -2.3355E+07  8.0068E+07 -4.1647E+06  1.4146E-02
     100-
 mid.  surface     3.3955E+09  3.4646E+09  2.7658E+09  9.3398E+07  1.1587E+08  1.2592E+08  4.5839E-01
     110-
 mid.  surface     3.9471E+09  3.9565E+09  2.6281E+09 -3.6124E+07 -4.3429E+08 -6.7198E+06  7.1475E-01



 n o d a l  s t r a i n  c a l c u l a t i o n s   f o r   t i m e  s t e p      205   ( at time 2.76908E+01 )

 node (global)
          strain       eps-xx      eps-yy      eps-zz      eps-xy      eps-yz      eps-zx       
       1-
 mid.  surface     1.8080E-01  1.6107E-01 -2.5411E-01  5.0187E-02 -3.7044E-02 -5.7689E-02
       2-
 mid.  surface     2.1459E-01  1.5517E-01 -3.8857E-01  4.7556E-02 -1.1978E-02  3.8330E-03
       8-
 mid.  surface     1.1330E-01  2.0757E-01 -2.9233E-01 -2.3575E-03 -4.0150E-02  1.2691E-02
       9-
 mid.  surface     1.3544E-01  1.4443E-01 -2.8399E-01  4.1120E-03 -9.6480E-02  1.8146E-03
      10-
 mid.  surface     1.2838E-01  1.0141E-01 -2.1798E-01  5.5550E-03 -7.4596E-02  2.0894E-04
      11-
 mid.  surface     1.0063E-01  1.3675E-01 -2.3862E-01 -7.7257E-03 -3.7381E-02  6.0851E-03
      12-
 mid.  surface     8.8244E-02  1.4947E-01 -1.8316E-01  2.9273E-03 -8.7480E-02 -3.5344E-02
      17-
 mid.  surface     1.2439E-01  1.3902E-01 -3.0683E-01 -1.7576E-02 -4.6800E-02 -2.9188E-02
      18-
 mid.  surface     1.2709E-01  1.4732E-01 -2.7788E-01 -1.4759E-05 -7.2154E-02 -7.9320E-03
      19-
 mid.  surface     1.1597E-01  1.2797E-01 -2.6719E-01 -2.2596E-03 -4.2746E-02 -1.9408E-02
      20-
 mid.  surface     1.4892E-01  1.8696E-01 -3.4551E-01  3.1537E-02  5.9286E-02  2.3177E-02
      21-
 mid.  surface     1.3556E-01  1.3649E-01 -3.2812E-01 -8.0451E-03  2.9413E-02  3.3938E-02
      22-
 mid.  surface     1.0975E-01  1.5896E-01 -2.4326E-01 -3.0325E-03 -2.1354E-02 -2.5692E-02
      23-
 mid.  surface     1.3818E-01  1.9847E-01 -3.0300E-01  2.6908E-02  6.2894E-02 -1.1715E-02
      40-
 mid.  surface     1.4229E-01  1.2656E-01 -2.7437E-01  7.7829E-03  1.1107E-02  6.3667E-03
      41-
 mid.  surface     1.3789E-01  1.4721E-01 -2.9424E-01  1.5508E-02  6.1115E-02  2.1356E-02
      85-
 mid.  surface     1.5748E-01  1.7549E-01 -4.5695E-01  7.7711E-03  9.0020E-02 -3.5818E-02
      86-
 mid.  surface     1.3763E-01  1.6643E-01 -3.1933E-01  1.1370E-02  1.4664E-01 -5.3457E-02
     100-
 mid.  surface     1.2790E-01  1.4327E-01 -2.9262E-01 -7.7716E-03  1.1204E-02  2.8119E-02
     110-
 mid.  surface     1.4548E-01  9.2772E-02 -3.0354E-01 -1.1219E-02 -8.8988E-02 -1.0822E-02



 n o d a l  s t r e s s  c a l c u l a t i o n s   f o r   t i m e  s t e p      215   ( at time 2.96813E+01 )

 node (global)
          stress       sig-xx      sig-yy      sig-zz      sig-xy      sig-yz      sig-zx       plastic
                                                                                                 strain 
       1-
 mid.  surface     7.8042E+08  6.6095E+08 -5.8587E+08 -1.9327E+07  1.2209E+08 -5.4026E+07  5.5675E-01
       2-
 mid.  surface    -4.4250E+08 -4.5146E+08 -8.7424E+08  4.4928E+07  2.5245E+08 -6.6225E+07  5.5402E-01
       8-
 mid.  surface    -3.2191E+09 -2.8976E+09 -4.2074E+09  2.6593E+07  4.8841E+08  1.3120E+08  4.2581E-02
       9-
 mid.  surface    -1.8415E+09 -1.7182E+09 -3.8194E+09 -1.6793E+07  2.2869E+08  3.6991E+07  3.1621E-01
      10-
 mid.  surface     1.5089E+08  1.1449E+08 -5.1484E+07  6.2059E+06  3.9716E+08  7.7069E+07  1.7263E-02
      11-
 mid.  surface     8.3619E+08  1.0786E+09  1.1975E+09  6.1675E+07  4.8137E+08  7.7755E+07 -6.2578E-03
      12-
 mid.  surface    -5.9081E+08 -7.8499E+08 -1.4695E+09 -1.1614E+07  4.2315E+07  7.1563E+06  8.3705E-02
      17-
 mid.  surface     1.0326E+09  1.3947E+09 -5.6274E+08 -4.9540E+07  3.2594E+08 -1.5045E+07  7.3871E-01
      18-
 mid.  surface    -2.0171E+09 -1.9982E+09 -2.5072E+09 -4.6493E+07  4.4133E+08  1.1688E+08  1.2047E-01
      19-
 mid.  surface     1.1617E+08  3.7859E+06 -1.1129E+09 -8.1470E+06  3.8894E+07 -7.9625E+07  6.0931E-01
      20-
 mid.  surface     1.1821E+09  1.3983E+09 -6.7442E+07 -3.8617E+07 -4.0845E+08 -6.5784E+07  9.1910E-01
      21-
 mid.  surface     8.5209E+07  1.1819E+07  5.8643E+07 -1.1386E+07 -2.0954E+08 -4.0906E+07  4.9769E-01
      22-
 mid.  surface    -1.2229E+09 -1.3651E+09 -1.8006E+08 -1.0668E+07 -1.6648E+08  6.5172E+07 -1.9395E-01
      23-
 mid.  surface     9.6069E+08  1.0992E+09  1.3068E+09  3.7283E+07 -2.5695E+08  1.9412E+07  2.1542E-01
      40-
 mid.  surface     2.0195E+09  1.7705E+09  2.3590E+09 -4.6419E+06 -4.9534E+08 -6.9681E+07  3.8263E-01
      41-
 mid.  surface    -5.6743E+08 -7.6588E+08 -2.3545E+08 -1.1566E+07 -3.5012E+08 -4.5713E+07  3.7590E-01
      85-
 mid.  surface    -1.5272E+09 -1.4679E+09  2.4414E+08  1.4362E+07  1.6598E+08 -3.5025E+06  4.9985E-02
      86-
 mid.  surface    -5.9789E+08 -6.0757E+08  1.6820E+08 -1.4697E+06  8.3181E+07 -2.7562E+06 -4.4863E-02
     100-
 mid.  surface     8.6039E+08  9.2497E+08  1.8055E+09  8.0731E+07 -3.0367E+08  2.3202E+07  4.1183E-01
     110-
 mid.  surface     1.6107E+09  1.5417E+09  1.7045E+09  5.1511E+06 -5.1370E+08 -7.4625E+07  7.1081E-01



 n o d a l  s t r a i n  c a l c u l a t i o n s   f o r   t i m e  s t e p      215   ( at time 2.96813E+01 )

 node (global)
          strain       eps-xx      eps-yy      eps-zz      eps-xy      eps-yz      eps-zx       
       1-
 mid.  surface     1.9149E-01  1.7506E-01 -2.6359E-01  5.8015E-02 -3.8469E-02 -6.5412E-02
       2-
[...]
      23-
 mid.  surface     4.5248E-01  4.3009E-01 -8.7964E-01  1.4527E-03  2.8750E-01 -6.3633E-03
      40-
 mid.  surface     4.6674E-01  3.3588E-01 -8.6323E-01 -6.5885E-03  1.7944E-01  9.9002E-02
      41-
 mid.  surface     5.0494E-01  4.7986E-01 -1.0792E+00 -2.4338E-02  3.2776E-01  1.2048E-01
      85-
 mid.  surface     4.9229E-01  4.8794E-01 -9.7355E-01 -5.5176E-02 -2.1205E-02  3.9199E-01
      86-
 mid.  surface     4.4838E-01  5.1501E-01 -9.2226E-01 -6.6298E-03  3.1094E-02  5.4810E-01
     100-
 mid.  surface     5.3876E-01  4.8787E-01 -9.7150E-01 -1.7908E-02  6.1875E-01 -4.0158E-02
     110-
 mid.  surface     4.9423E-01  2.9512E-01 -8.3394E-01  1.0095E-02  3.4287E-02 -9.2537E-02



 n o d a l  s t r e s s  c a l c u l a t i o n s   f o r   t i m e  s t e p      474   ( at time 9.27398E+01 )

 node (global)
          stress       sig-xx      sig-yy      sig-zz      sig-xy      sig-yz      sig-zx       plastic
                                                                                                 strain 
       1-
 mid.  surface     1.1661E+08 -2.2743E+08  1.1082E+08  5.7260E+07 -7.8950E+06  1.2422E+08  7.0726E-01
       2-
 mid.  surface     1.7641E+08 -3.4406E+08  1.6765E+08  8.6621E+07 -1.1943E+07  1.8792E+08  5.1206E-01
       8-
 mid.  surface     3.4122E+09  1.5637E+09  7.5754E+08 -3.3218E+08  5.1325E+08  4.8976E+07  1.1439E+00
       9-
 mid.  surface    -2.2703E+09 -1.4677E+09 -1.3490E+09 -1.3172E+08  2.8791E+08  7.4466E+07  3.6935E+00
      10-
 mid.  surface    -2.7279E+09 -1.3299E+09 -7.8304E+08  3.6401E+08 -1.4623E+08  2.3873E+06 -1.0552E+00
      11-
 mid.  surface    -7.3617E+08 -2.5343E+06 -2.0693E+08  2.0136E+08 -9.1380E+07  1.6122E+07 -1.9946E+00
      12-
 mid.  surface     6.6573E+08  6.9988E+08  3.2560E+06 -1.5068E+08 -8.2029E+07 -1.4345E+08  2.3429E+00
      17-
 mid.  surface     1.1302E+09  4.5550E+08  6.4534E+08 -1.8474E+08  8.4005E+07 -1.4905E+07  1.1904E+00
      18-
 mid.  surface     2.4046E+09  1.1196E+09  6.1710E+08 -3.3451E+08  1.3407E+08 -2.2557E+06  1.6447E+00
      19-
 mid.  surface     4.6505E+08  1.8506E+08  4.2803E+08  4.2447E+07 -6.6535E+07 -5.3787E+06  1.5697E+00
      20-
 mid.  surface     6.9851E+08  1.3712E+08 -2.0981E+07 -2.6018E+08  1.5051E+08  6.4209E+07  1.4101E+00
      21-
 mid.  surface    -1.4748E+08  2.9530E+07  3.2683E+08  7.7016E+07 -2.5973E+06 -8.7659E+07  8.6573E-01
      22-
 mid.  surface    -8.0716E+07  4.3702E+08 -5.8256E+08 -2.0150E+08  1.9094E+07 -1.6121E+08  1.4646E+00
      23-
 mid.  surface    -1.6886E+09 -7.9466E+08 -9.0261E+08  2.2728E+08  8.8928E+05  1.0998E+08 -1.2217E+00
      40-
 mid.  surface    -3.3227E+09 -1.6201E+09 -8.8203E+08  4.8837E+08 -3.5966E+08 -2.9834E+07 -8.5999E-01
      41-
 mid.  surface     2.0270E+09  8.1700E+08  3.6152E+08 -3.0390E+08  8.1540E+07 -1.0187E+07  2.1274E+00
      85-
 mid.  surface     1.1661E+08 -2.2743E+08  1.1082E+08  5.7260E+07 -7.8950E+06  1.2422E+08  2.4573E-01
      86-
 mid.  surface    -1.2631E+08  2.4636E+08 -1.2004E+08 -6.2024E+07  8.5520E+06 -1.3455E+08 -3.9100E-01
     100-
 mid.  surface     2.7546E+09  1.5153E+09  1.0916E+09 -8.3471E+07  8.6392E+07 -1.5466E+07 -1.5183E-01
     110-
 mid.  surface    -2.8599E+09 -1.5111E+09 -1.0495E+09  9.1275E+07 -9.4814E+07  1.6687E+07  1.1200E+00



 n o d a l  s t r a i n  c a l c u l a t i o n s   f o r   t i m e  s t e p      474   ( at time 9.27398E+01 )

 node (global)
          strain       eps-xx      eps-yy      eps-zz      eps-xy      eps-yz      eps-zx       
       1-
 mid.  surface     4.9277E-01  5.2036E-01 -1.0619E+00 -2.4298E-02 -1.0390E-01  4.1502E-02
       2-
 mid.  surface     4.8989E-01  4.8073E-01 -1.0155E+00 -8.9661E-02 -8.0647E-02 -1.1812E-01
       8-
 mid.  surface     5.3629E-01  6.0729E-01 -8.8480E-01 -1.1622E-03 -1.3538E-01  7.2483E-02
       9-
 mid.  surface     5.3146E-01  1.4681E-01 -6.4271E-01 -1.3767E-02 -1.2381E-01  3.6252E-02
      10-
 mid.  surface     4.9641E-01  1.7711E-01 -6.6107E-01  8.5182E-04 -2.9326E-01  6.4414E-02
      11-
 mid.  surface     4.3750E-01  4.7354E-01 -9.3828E-01 -3.8143E-02 -1.5876E-01 -9.2157E-02
      12-
 mid.  surface     4.5849E-01  5.5973E-01 -9.7600E-01 -5.3667E-03 -4.8795E-02 -9.9717E-02
      17-
 mid.  surface     4.7856E-01  4.7895E-01 -9.9867E-01 -1.0518E-01 -2.4540E-01 -1.0048E-01
      18-
 mid.  surface     5.3326E-01  4.9796E-01 -9.1553E-01 -2.6343E-02 -3.2948E-01  4.3395E-02
      19-
 mid.  surface     4.4950E-01  4.6013E-01 -9.1377E-01 -7.5437E-02 -6.3245E-02 -1.3120E-01
      20-
 mid.  surface     4.9700E-01  4.9619E-01 -1.0256E+00 -3.9012E-02  1.3688E-01 -8.3500E-02
      21-
 mid.  surface     4.8246E-01  4.3570E-01 -8.8742E-01 -5.3413E-02  2.4307E-01  1.2001E-01
      22-
 mid.  surface     4.6193E-01  5.3203E-01 -8.9164E-01  4.2667E-03  3.5010E-01  2.6125E-01
      23-
 mid.  surface     4.8070E-01  4.4892E-01 -9.5367E-01  9.7888E-03  3.1433E-01  3.2294E-02
      40-
 mid.  surface     4.8791E-01  3.1698E-01 -8.4844E-01 -1.6060E-02  5.8328E-02  8.6477E-02
      41-
 mid.  surface     5.1786E-01  4.7527E-01 -1.0210E+00 -4.5436E-02  3.8424E-01  1.5138E-01
      85-
 mid.  surface     4.6972E-01  4.8657E-01 -9.3142E-01 -6.2819E-02 -2.8643E-02  3.8149E-01
      86-
 mid.  surface     4.4551E-01  5.2247E-01 -9.3768E-01 -9.4056E-03  5.0588E-02  5.7056E-01
     100-
 mid.  surface     5.6428E-01  5.5058E-01 -1.0645E+00 -1.6941E-04  5.9646E-01 -2.6884E-02
     110-
 mid.  surface     5.0862E-01  2.9752E-01 -9.3856E-01  5.1941E-03 -3.6630E-03 -7.8656E-02



 n o d a l  s t r e s s  c a l c u l a t i o n s   f o r   t i m e  s t e p      511   ( at time 9.58946E+01 )

 node (global)
          stress       sig-xx      sig-yy      sig-zz      sig-xy      sig-yz      sig-zx       plastic
                                                                                                 strain 
       1-
 mid.  surface    -2.6671E+08 -2.6671E+08 -2.6671E+08  0.0000E+00  0.0000E+00  0.0000E+00  7.0726E-01
       2-
 mid.  surface    -8.8405E+08 -8.8405E+08 -8.8405E+08  0.0000E+00  0.0000E+00  0.0000E+00  5.1206E-01
       8-
 mid.  surface     6.3119E+08  2.4144E+08  2.1797E+08 -8.7338E+07  2.7277E+08  1.6434E+07  1.1799E+00
       9-
 mid.  surface     1.7196E+09  6.5777E+08  5.9384E+08 -2.3794E+08  7.4313E+08  4.4771E+07  3.7915E+00
      10-
 mid.  surface     3.1560E+08  1.2072E+08  1.0899E+08 -4.3669E+07  1.3639E+08  8.2168E+06  7.5620E-01
      11-
 mid.  surface     0.0000E+00  0.0000E+00  0.0000E+00  0.0000E+00  0.0000E+00  0.0000E+00  0.0000E+00
      12-
 mid.  surface     5.1820E+07  5.1820E+07  5.1820E+07  0.0000E+00  0.0000E+00  0.0000E+00  2.6223E-01
      17-
 mid.  surface     0.0000E+00  0.0000E+00  0.0000E+00  0.0000E+00  0.0000E+00  0.0000E+00  0.0000E+00
      18-
 mid.  surface    -2.9136E+08 -1.1145E+08 -1.0062E+08  4.0315E+07 -1.2591E+08 -7.5857E+06  3.6774E-01
      19-
 mid.  surface    -3.9644E+08 -3.9644E+08 -3.9644E+08  0.0000E+00  0.0000E+00  0.0000E+00  5.6016E-01
      20-
 mid.  surface     0.0000E+00  0.0000E+00  0.0000E+00  0.0000E+00  0.0000E+00  0.0000E+00  0.0000E+00
      21-
 mid.  surface     1.7238E+08  1.7238E+08  1.7238E+08  0.0000E+00  0.0000E+00  0.0000E+00  2.4000E-01
      22-
 mid.  surface     4.8105E+08  4.8105E+08  4.8105E+08  0.0000E+00  0.0000E+00  0.0000E+00 -1.8833E-01
      23-
 mid.  surface     0.0000E+00  0.0000E+00  0.0000E+00  0.0000E+00  0.0000E+00  0.0000E+00  0.0000E+00
      40-
 mid.  surface    -2.9136E+08 -1.1145E+08 -1.0062E+08  4.0315E+07 -1.2591E+08 -7.5857E+06 -1.8426E-01
      41-
 mid.  surface    -4.4076E+08 -1.6860E+08 -1.5221E+08  6.0987E+07 -1.9047E+08 -1.1475E+07 -8.6574E-01
      85-
 mid.  surface    -2.5582E+07 -2.5582E+07 -2.5582E+07  0.0000E+00  0.0000E+00  0.0000E+00  2.4573E-01
      86-
 mid.  surface     6.3005E+08  6.3005E+08  6.3005E+08  0.0000E+00  0.0000E+00  0.0000E+00 -3.9100E-01
     100-
 mid.  surface    -5.8271E+08 -2.2290E+08 -2.0123E+08  8.0629E+07 -2.5182E+08 -1.5171E+07 -1.8503E-01
     110-
 mid.  surface     6.3120E+08  2.4144E+08  2.1798E+08 -8.7338E+07  2.7277E+08  1.6434E+07  1.1560E+00



 n o d a l  s t r a i n  c a l c u l a t i o n s   f o r   t i m e  s t e p      511   ( at time 9.58946E+01 )

 node (global)
          strain       eps-xx      eps-yy      eps-zz      eps-xy      eps-yz      eps-zx       
       1-
 mid.  surface     4.4244E-01  4.9232E-01 -9.7523E-01 -6.4743E-02 -1.2695E-01  7.1559E-03
       2-
 mid.  surface     4.0615E-01  4.4503E-01 -9.0048E-01 -1.6052E-01 -1.4185E-01 -2.6775E-01
       8-
 mid.  surface     5.5322E-01  5.8933E-01 -8.9140E-01  2.1173E-02 -1.4017E-01  4.8302E-02
       9-
 mid.  surface     5.3402E-01  2.0735E-01 -6.6274E-01 -2.1712E-03 -1.7367E-01  3.3972E-02
      10-
 mid.  surface     2.7410E-01  6.1708E-02 -3.2168E-01  5.6387E-03 -1.6355E-01 -2.6201E-02
      11-
 mid.  surface     0.0000E+00  0.0000E+00  0.0000E+00  0.0000E+00  0.0000E+00  0.0000E+00
      12-
 mid.  surface     2.2663E-01  3.0289E-01 -4.7063E-01  2.5896E-02 -9.3579E-02 -2.4744E-01
      17-
 mid.  surface     0.0000E+00  0.0000E+00  0.0000E+00  0.0000E+00  0.0000E+00  0.0000E+00
      18-
 mid.  surface     2.8755E-01  2.5264E-01 -4.6819E-01  2.2972E-02 -1.3873E-01 -1.0658E-02
      19-
 mid.  surface     2.2249E-01  2.7699E-01 -4.9260E-01 -1.2180E-02 -6.7128E-02 -2.6024E-01
      20-
 mid.  surface     0.0000E+00  0.0000E+00  0.0000E+00  0.0000E+00  0.0000E+00  0.0000E+00
      21-
 mid.  surface     2.5793E-01  2.7404E-01 -4.9188E-01 -9.8395E-03  1.9002E-01  1.0174E-01
      22-
 mid.  surface     2.5230E-01  2.8921E-01 -4.4263E-01  1.6300E-02  2.3789E-01  2.2513E-01
      23-
 mid.  surface     0.0000E+00  0.0000E+00  0.0000E+00  0.0000E+00  0.0000E+00  0.0000E+00
      40-
 mid.  surface     2.6455E-01  1.5588E-01 -5.1064E-01  6.9045E-03 -3.8300E-02  1.7339E-02
      41-
 mid.  surface     2.8690E-01  2.8056E-01 -6.2508E-01 -5.8276E-03  2.0436E-01  1.0317E-01
      85-
 mid.  surface     4.4788E-01  4.9578E-01 -8.6639E-01 -1.0391E-01 -6.1486E-02  5.9244E-01
      86-
 mid.  surface     4.4639E-01  5.4338E-01 -9.1147E-01 -2.7405E-02  5.7930E-02  8.4849E-01
     100-
 mid.  surface     5.9141E-01  5.3564E-01 -1.1371E+00  1.4105E-02  5.4810E-01 -2.4256E-02
     110-
 mid.  surface     5.1912E-01  3.0377E-01 -9.8116E-01 -3.5951E-03 -4.6495E-02 -1.7263E-02



 n o d a l  s t r e s s  c a l c u l a t i o n s   f o r   t i m e  s t e p      515   ( at time 9.90493E+01 )

 node (global)
          stress       sig-xx      sig-yy      sig-zz      sig-xy      sig-yz      sig-zx       plastic
                                                                                                 strain 
       1-
 mid.  surface    -2.5967E+08 -3.1359E+08 -3.1579E+08  3.5832E+07 -2.9279E+07 -9.8806E+07  7.0726E-01
       2-
 mid.  surface    -2.6735E+08 -3.4109E+08 -1.9065E+08 -1.2880E+07 -4.3857E+06  1.8799E+07  5.1206E-01
       8-
 mid.  surface     0.0000E+00  0.0000E+00  0.0000E+00  0.0000E+00  0.0000E+00  0.0000E+00  1.1799E+00
       9-
 mid.  surface     0.0000E+00  0.0000E+00  0.0000E+00  0.0000E+00  0.0000E+00  0.0000E+00  3.7915E+00
      10-
 mid.  surface     0.0000E+00  0.0000E+00  0.0000E+00  0.0000E+00  0.0000E+00  0.0000E+00  7.5620E-01
      11-
 mid.  surface     0.0000E+00  0.0000E+00  0.0000E+00  0.0000E+00  0.0000E+00  0.0000E+00  0.0000E+00
      12-
 mid.  surface    -9.6499E+07 -1.1790E+08 -1.4820E+08  2.9140E+07 -3.8898E+05 -5.1563E+07  2.6223E-01
      17-
 mid.  surface     0.0000E+00  0.0000E+00  0.0000E+00  0.0000E+00  0.0000E+00  0.0000E+00  0.0000E+00
      18-
 mid.  surface     0.0000E+00  0.0000E+00  0.0000E+00  0.0000E+00  0.0000E+00  0.0000E+00  3.6774E-01
      19-
 mid.  surface    -1.2547E+08 -1.6097E+08 -9.2939E+07 -3.6773E+06  1.3150E+06  8.8677E+06  5.6016E-01
      20-
 mid.  surface     0.0000E+00  0.0000E+00  0.0000E+00  0.0000E+00  0.0000E+00  0.0000E+00  0.0000E+00
      21-
 mid.  surface     1.4159E+08  1.7178E+08  1.6625E+08 -1.7330E+07  1.4860E+07  4.8577E+07  2.4000E-01
      22-
 mid.  surface     1.4543E+08  1.8554E+08  1.0368E+08  7.0261E+06  2.4136E+06 -1.0226E+07 -1.8833E-01
      23-
 mid.  surface     0.0000E+00  0.0000E+00  0.0000E+00  0.0000E+00  0.0000E+00  0.0000E+00  0.0000E+00
      40-
 mid.  surface     0.0000E+00  0.0000E+00  0.0000E+00  0.0000E+00  0.0000E+00  0.0000E+00 -1.8426E-01
      41-
 mid.  surface     0.0000E+00  0.0000E+00  0.0000E+00  0.0000E+00  0.0000E+00  0.0000E+00 -8.6574E-01
      85-
 mid.  surface     2.1651E+08  2.6578E+08  3.1312E+08 -5.7108E+07  1.2194E+06  1.0147E+08  2.4573E-01
      86-
 mid.  surface     2.3109E+08  3.0133E+08  1.8998E+08 -6.0745E+06 -2.0727E+07 -1.6579E+07 -3.9100E-01
     100-
 mid.  surface     0.0000E+00  0.0000E+00  0.0000E+00  0.0000E+00  0.0000E+00  0.0000E+00 -1.8503E-01
     110-
 mid.  surface     0.0000E+00  0.0000E+00  0.0000E+00  0.0000E+00  0.0000E+00  0.0000E+00  1.1560E+00



 n o d a l  s t r a i n  c a l c u l a t i o n s   f o r   t i m e  s t e p      515   ( at time 9.90493E+01 )

 node (global)
          strain       eps-xx      eps-yy      eps-zz      eps-xy      eps-yz      eps-zx       
       1-
 mid.  surface     4.4299E-01  4.9292E-01 -9.7579E-01 -6.3984E-02 -1.2574E-01  1.1423E-02
       2-
 mid.  surface     4.0677E-01  4.4587E-01 -8.9920E-01 -1.6036E-01 -1.3982E-01 -2.6865E-01
       8-
 mid.  surface     5.5263E-01  5.9003E-01 -8.9035E-01  2.0913E-02 -1.4084E-01  4.9727E-02
       9-
 mid.  surface     5.3338E-01  2.0736E-01 -6.6169E-01 -2.3691E-03 -1.7269E-01  3.5857E-02
      10-
 mid.  surface     2.7395E-01  6.1568E-02 -3.2167E-01  5.5352E-03 -1.6224E-01 -2.6097E-02
      11-
 mid.  surface     0.0000E+00  0.0000E+00  0.0000E+00  0.0000E+00  0.0000E+00  0.0000E+00
      12-
 mid.  surface     2.2642E-01  3.0296E-01 -4.7133E-01  2.5957E-02 -9.2920E-02 -2.4482E-01
      17-
 mid.  surface     0.0000E+00  0.0000E+00  0.0000E+00  0.0000E+00  0.0000E+00  0.0000E+00
      18-
 mid.  surface     2.8743E-01  2.5294E-01 -4.6823E-01  2.3011E-02 -1.3817E-01 -1.0714E-02
      19-
 mid.  surface     2.2235E-01  2.7715E-01 -4.9151E-01 -1.2556E-02 -6.6340E-02 -2.6050E-01
      20-
 mid.  surface     0.0000E+00  0.0000E+00  0.0000E+00  0.0000E+00  0.0000E+00  0.0000E+00
      21-
 mid.  surface     2.5794E-01  2.7422E-01 -4.9198E-01 -9.8642E-03  1.8884E-01  9.8756E-02
      22-
 mid.  surface     2.5176E-01  2.8914E-01 -4.4361E-01  1.6092E-02  2.3662E-01  2.2592E-01
      23-
 mid.  surface     0.0000E+00  0.0000E+00  0.0000E+00  0.0000E+00  0.0000E+00  0.0000E+00
      40-
 mid.  surface     2.6480E-01  1.5566E-01 -5.1124E-01  6.9383E-03 -3.8017E-02  1.6848E-02
      41-
 mid.  surface     2.8710E-01  2.8057E-01 -6.2532E-01 -5.8878E-03  2.0386E-01  1.0257E-01
      85-
 mid.  surface     4.4846E-01  4.9642E-01 -8.6582E-01 -1.0383E-01 -6.0334E-02  5.8862E-01
      86-
 mid.  surface     4.4703E-01  5.4366E-01 -9.1290E-01 -2.6858E-02  5.6896E-02  8.4899E-01
     100-
 mid.  surface     5.9168E-01  5.3547E-01 -1.1369E+00  1.4355E-02  5.4605E-01 -2.4061E-02
     110-
 mid.  surface     5.1936E-01  3.0311E-01 -9.8099E-01 -3.5763E-03 -4.7221E-02 -1.7018E-02



 n o d a l  s t r e s s  c a l c u l a t i o n s   f o r   t i m e  s t e p      521   ( at time 1.00000E+02 )

 node (global)
          stress       sig-xx      sig-yy      sig-zz      sig-xy      sig-yz      sig-zx       plastic
                                                                                                 strain 
       1-
 mid.  surface    -2.0693E+08 -2.7828E+08 -1.6085E+08  4.8783E+06 -3.6389E+07 -2.0959E+07  7.0726E-01
       2-
 mid.  surface    -1.7624E+08 -2.4099E+08 -1.6828E+08  2.1918E+07 -6.2041E+06 -3.5271E+07  5.1206E-01
       8-
 mid.  surface     0.0000E+00  0.0000E+00  0.0000E+00  0.0000E+00  0.0000E+00  0.0000E+00  1.1799E+00
       9-
 mid.  surface     0.0000E+00  0.0000E+00  0.0000E+00  0.0000E+00  0.0000E+00  0.0000E+00  3.7915E+00
      10-
 mid.  surface     0.0000E+00  0.0000E+00  0.0000E+00  0.0000E+00  0.0000E+00  0.0000E+00  7.5620E-01
      11-
 mid.  surface     0.0000E+00  0.0000E+00  0.0000E+00  0.0000E+00  0.0000E+00  0.0000E+00  0.0000E+00
      12-
 mid.  surface    -8.8118E+07 -1.2050E+08 -8.4140E+07  1.0959E+07 -3.1021E+06 -1.7635E+07  2.6223E-01
      17-
 mid.  surface     0.0000E+00  0.0000E+00  0.0000E+00  0.0000E+00  0.0000E+00  0.0000E+00  0.0000E+00
      18-
 mid.  surface     0.0000E+00  0.0000E+00  0.0000E+00  0.0000E+00  0.0000E+00  0.0000E+00  3.6774E-01
      19-
 mid.  surface    -8.4341E+07 -1.1591E+08 -8.5055E+07  1.3056E+07  6.1301E+05 -1.9397E+07  5.6016E-01
      20-
 mid.  surface     0.0000E+00  0.0000E+00  0.0000E+00  0.0000E+00  0.0000E+00  0.0000E+00  0.0000E+00
      21-
 mid.  surface     1.1120E+08  1.4971E+08  8.7773E+07 -3.3801E+06  1.8497E+07  1.2007E+07  2.4000E-01
      22-
 mid.  surface     9.5854E+07  1.3107E+08  9.1490E+07 -1.1900E+07  3.4040E+06  1.9163E+07 -1.8833E-01
      23-
 mid.  surface     0.0000E+00  0.0000E+00  0.0000E+00  0.0000E+00  0.0000E+00  0.0000E+00  0.0000E+00
      40-
 mid.  surface     0.0000E+00  0.0000E+00  0.0000E+00  0.0000E+00  0.0000E+00  0.0000E+00 -1.8426E-01
      41-
 mid.  surface     0.0000E+00  0.0000E+00  0.0000E+00  0.0000E+00  0.0000E+00  0.0000E+00 -8.6574E-01
      85-
 mid.  surface     1.9171E+08  2.6214E+08  1.8298E+08 -2.3800E+07  6.8080E+06  3.8326E+07  2.4573E-01
      86-
 mid.  surface     1.6419E+08  2.2871E+08  1.8964E+08 -3.9079E+07 -2.0256E+07  5.1157E+07 -3.9100E-01
     100-
 mid.  surface     0.0000E+00  0.0000E+00  0.0000E+00  0.0000E+00  0.0000E+00  0.0000E+00 -1.8503E-01
     110-
 mid.  surface     0.0000E+00  0.0000E+00  0.0000E+00  0.0000E+00  0.0000E+00  0.0000E+00  1.1560E+00



 n o d a l  s t r a i n  c a l c u l a t i o n s   f o r   t i m e  s t e p      521   ( at time 1.00000E+02 )

 node (global)
          strain       eps-xx      eps-yy      eps-zz      eps-xy      eps-yz      eps-zx       
       1-
 mid.  surface     4.4288E-01  4.9315E-01 -9.7569E-01 -6.4012E-02 -1.2566E-01  1.1930E-02
       2-
 mid.  surface     4.0663E-01  4.4625E-01 -8.9950E-01 -1.6032E-01 -1.3963E-01 -2.6892E-01
       8-
 mid.  surface     5.5254E-01  5.9016E-01 -8.9026E-01  2.0876E-02 -1.4098E-01  4.9955E-02
       9-
 mid.  surface     5.3325E-01  2.0743E-01 -6.6145E-01 -2.3756E-03 -1.7271E-01  3.6209E-02
      10-
 mid.  surface     2.7392E-01  6.1553E-02 -3.2160E-01  5.5247E-03 -1.6201E-01 -2.6071E-02
      11-
 mid.  surface     0.0000E+00  0.0000E+00  0.0000E+00  0.0000E+00  0.0000E+00  0.0000E+00
      12-
 mid.  surface     2.2623E-01  3.0298E-01 -4.7102E-01  2.5920E-02 -9.2754E-02 -2.4460E-01
      17-
 mid.  surface     0.0000E+00  0.0000E+00  0.0000E+00  0.0000E+00  0.0000E+00  0.0000E+00
      18-
 mid.  surface     2.8741E-01  2.5296E-01 -4.6826E-01  2.3014E-02 -1.3801E-01 -1.0749E-02
      19-
 mid.  surface     2.2217E-01  2.7720E-01 -4.9131E-01 -1.2609E-02 -6.6294E-02 -2.6059E-01
      20-
 mid.  surface     0.0000E+00  0.0000E+00  0.0000E+00  0.0000E+00  0.0000E+00  0.0000E+00
      21-
 mid.  surface     2.5803E-01  2.7422E-01 -4.9220E-01 -9.8340E-03  1.8862E-01  9.8667E-02
      22-
 mid.  surface     2.5180E-01  2.8904E-01 -4.4361E-01  1.6066E-02  2.3636E-01  2.2599E-01
      23-
 mid.  surface     0.0000E+00  0.0000E+00  0.0000E+00  0.0000E+00  0.0000E+00  0.0000E+00
      40-
 mid.  surface     2.6484E-01  1.5561E-01 -5.1130E-01  6.9469E-03 -3.8012E-02  1.6746E-02
      41-
 mid.  surface     2.8714E-01  2.8056E-01 -6.2541E-01 -5.9062E-03  2.0382E-01  1.0247E-01
      85-
 mid.  surface     4.4886E-01  4.9666E-01 -8.6668E-01 -1.0359E-01 -6.0057E-02  5.8869E-01
      86-
 mid.  surface     4.4739E-01  5.4371E-01 -9.1341E-01 -2.6703E-02  5.6976E-02  8.4927E-01
     100-
 mid.  surface     5.9174E-01  5.3542E-01 -1.1370E+00  1.4392E-02  5.4572E-01 -2.4082E-02
     110-
 mid.  surface     5.1938E-01  3.0305E-01 -9.8093E-01 -3.5586E-03 -4.7506E-02 -1.6904E-02
