 LS-DYNA keyword deck by LS-PrePost                                      
                    ls-dyna smp d R14 R14.1.1s_1_ef50e1 date 06/16/2024

{BEGIN LEGEND}
 Entity #        Title
        1                                                                                     
        2                                                                                     
        3                                                                                     
        4                                                                                     
        5                                                                                     
        6                                                                                     
        7                                                                                     
        8                                                                                     
        9                                                                                     
       10                                                                                     
       11                                                                                     
       12                                                                                     
       13                                                                                     
       14                                                                                     
       15                                                                                     
       16                                                                                     
       17                                                                                     
       18                                                                                     
       19                                                                                     
      167                                                                                     
      168                                                                                     
      169                                                                                     
      170                                                                                     
      197                                                                                     
      198                                                                                     
      225                                                                                     
      226                                                                                     
      279                                                                                     
      280                                                                                     
      281                                                                                     
      282                                                                                     
      296                                                                                     
      323                                                                                     
      324                                                                                     
      338                                                                                     
      352                                                                                     
      366                                                                                     
      380                                                                                     
      608                                                                                     
      609                                                                                     
      610                                                                                     
      611                                                                                     
      804                                                                                     
      806                                                                                     
      808                                                                                     
      810                                                                                     
      852                                                                                     
      854                                                                                     
      856                                                                                     
      858                                                                                     
      864                                                                                     
      866                                                                                     
      868                                                                                     
      870                                                                                     
      880                                                                                     
      882                                                                                     
      884                                                                                     
      886                                                                                     
{END LEGEND}




 n o d a l   p r i n t   o u t   f o r   t i m e  s t e p       1                              ( at time 0.0000000E+00 )

 nodal point  x-disp     y-disp      z-disp      x-vel       y-vel       z-vel      x-accl      y-accl      z-accl      x-coor      y-coor      z-coor
        1  0.00000E+00 0.00000E+00 0.00000E+00 0.00000E+00 0.00000E+00 0.00000E+00 0.00000E+00 0.00000E+00 0.00000E+00 3.17500E-03 0.00000E+00-1.78000E-18
        2  0.00000E+00 0.00000E+00 0.00000E+00 0.00000E+00 0.00000E+00 0.00000E+00 0.00000E+00 0.00000E+00 0.00000E+00 2.38130E-03 0.00000E+00 0.00000E+00
        3  0.00000E+00 0.00000E+00 0.00000E+00 0.00000E+00 0.00000E+00 0.00000E+00 0.00000E+00 0.00000E+00 0.00000E+00 1.58750E-03 0.00000E+00 0.00000E+00
        4  0.00000E+00 0.00000E+00 0.00000E+00 0.00000E+00 0.00000E+00 0.00000E+00 0.00000E+00 0.00000E+00 0.00000E+00 7.93750E-04 0.00000E+00 0.00000E+00
        5  0.00000E+00 0.00000E+00 0.00000E+00 0.00000E+00 0.00000E+00 0.00000E+00 0.00000E+00 0.00000E+00 0.00000E+00 0.00000E+00 0.00000E+00 0.00000E+00
        6  0.00000E+00 0.00000E+00 0.00000E+00 0.00000E+00 0.00000E+00 0.00000E+00 0.00000E+00 0.00000E+00 0.00000E+00 4.86000E-20 7.93750E-04 0.00000E+00
        7  0.00000E+00 0.00000E+00 0.00000E+00 0.00000E+00 0.00000E+00 0.00000E+00 0.00000E+00 0.00000E+00 0.00000E+00 9.72100E-20 1.58750E-03 0.00000E+00
        8  0.00000E+00 0.00000E+00 0.00000E+00 0.00000E+00 0.00000E+00 0.00000E+00 0.00000E+00 0.00000E+00 0.00000E+00 1.45800E-19 2.38130E-03 0.00000E+00
        9  0.00000E+00 0.00000E+00 0.00000E+00 0.00000E+00 0.00000E+00 0.00000E+00 0.00000E+00 0.00000E+00 0.00000E+00 1.94400E-19 3.17500E-03 0.00000E+00
       10  0.00000E+00 0.00000E+00 0.00000E+00 0.00000E+00 0.00000E+00 0.00000E+00 0.00000E+00 0.00000E+00 0.00000E+00 1.21500E-03 2.93330E-03 0.00000E+00
       11  0.00000E+00 0.00000E+00 0.00000E+00 0.00000E+00 0.00000E+00 0.00000E+00 0.00000E+00 0.00000E+00 0.00000E+00 2.24510E-03 2.24510E-03 0.00000E+00
       12  0.00000E+00 0.00000E+00 0.00000E+00 0.00000E+00 0.00000E+00 0.00000E+00 0.00000E+00 0.00000E+00 0.00000E+00 2.93330E-03 1.21500E-03 0.00000E+00
       13  0.00000E+00 0.00000E+00 0.00000E+00 0.00000E+00 0.00000E+00 0.00000E+00 0.00000E+00 0.00000E+00 0.00000E+00 1.30830E-03 1.35190E-03 0.00000E+00
       14  0.00000E+00 0.00000E+00 0.00000E+00 0.00000E+00 0.00000E+00 0.00000E+00 0.00000E+00 0.00000E+00 0.00000E+00 1.48830E-03 7.06977E-04 0.00000E+00
       15  0.00000E+00 0.00000E+00 0.00000E+00 0.00000E+00 0.00000E+00 0.00000E+00 0.00000E+00 0.00000E+00 0.00000E+00 6.69510E-04 1.50700E-03 0.00000E+00
       16  0.00000E+00 0.00000E+00 0.00000E+00 0.00000E+00 0.00000E+00 0.00000E+00 0.00000E+00 0.00000E+00 0.00000E+00 7.53638E-04 7.82337E-04 0.00000E+00
       17  0.00000E+00 0.00000E+00 0.00000E+00 0.00000E+00 0.00000E+00 0.00000E+00 0.00000E+00 0.00000E+00 0.00000E+00 1.73630E-03 1.76750E-03 0.00000E+00
       18  0.00000E+00 0.00000E+00 0.00000E+00 0.00000E+00 0.00000E+00 0.00000E+00 0.00000E+00 0.00000E+00 0.00000E+00 9.20131E-04 2.19110E-03 0.00000E+00
       19  0.00000E+00 0.00000E+00 0.00000E+00 0.00000E+00 0.00000E+00 0.00000E+00 0.00000E+00 0.00000E+00 0.00000E+00 2.16330E-03 9.50859E-04 0.00000E+00
      167  0.00000E+00 0.00000E+00 0.00000E+00 0.00000E+00 0.00000E+00 0.00000E+00 0.00000E+00 0.00000E+00 0.00000E+00 3.12470E-03 3.18070E-03 2.54000E-02
      168  0.00000E+00 0.00000E+00 0.00000E+00 0.00000E+00 0.00000E+00 0.00000E+00 0.00000E+00 0.00000E+00 0.00000E+00 2.35430E-03 2.43270E-03 2.54000E-02
      169  0.00000E+00 0.00000E+00 0.00000E+00 0.00000E+00 0.00000E+00 0.00000E+00 0.00000E+00 0.00000E+00 0.00000E+00 2.67800E-03 1.27200E-03 2.54000E-02
      170  0.00000E+00 0.00000E+00 0.00000E+00 0.00000E+00 0.00000E+00 0.00000E+00 0.00000E+00 0.00000E+00 0.00000E+00 3.89280E-03 1.71090E-03 2.54000E-02
      197  0.00000E+00 0.00000E+00 0.00000E+00 0.00000E+00 0.00000E+00 0.00000E+00 0.00000E+00 0.00000E+00 0.00000E+00 1.20460E-03 2.71160E-03 2.54000E-02
      198  0.00000E+00 0.00000E+00 0.00000E+00 0.00000E+00 0.00000E+00 0.00000E+00 0.00000E+00 0.00000E+00 0.00000E+00 1.65560E-03 3.94280E-03 2.54000E-02
      225  0.00000E+00 0.00000E+00 0.00000E+00 0.00000E+00 0.00000E+00 0.00000E+00 0.00000E+00 0.00000E+00 0.00000E+00 2.85750E-03 0.00000E+00 2.54000E-02
      226  0.00000E+00 0.00000E+00 0.00000E+00 0.00000E+00 0.00000E+00 0.00000E+00 0.00000E+00 0.00000E+00 0.00000E+00 4.28630E-03 0.00000E+00 2.54000E-02
      279  0.00000E+00 0.00000E+00 0.00000E+00 0.00000E+00 0.00000E+00 0.00000E+00 0.00000E+00 0.00000E+00 0.00000E+00 1.42880E-03 0.00000E+00 2.54000E-02
      280  0.00000E+00 0.00000E+00 0.00000E+00 0.00000E+00 0.00000E+00 0.00000E+00 0.00000E+00 0.00000E+00 0.00000E+00 1.35620E-03 1.40780E-03 2.54000E-02
      281  0.00000E+00 0.00000E+00 0.00000E+00 0.00000E+00 0.00000E+00 0.00000E+00 0.00000E+00 0.00000E+00 0.00000E+00 8.74900E-20 1.42880E-03 2.54000E-02
      282  0.00000E+00 0.00000E+00 0.00000E+00 0.00000E+00 0.00000E+00 0.00000E+00 0.00000E+00 0.00000E+00 0.00000E+00 0.00000E+00 0.00000E+00 2.54000E-02
      296  0.00000E+00 0.00000E+00 0.00000E+00 0.00000E+00 0.00000E+00 0.00000E+00 0.00000E+00 0.00000E+00 0.00000E+00 1.75000E-19 2.85750E-03 2.54000E-02
      323  0.00000E+00 0.00000E+00 0.00000E+00 0.00000E+00 0.00000E+00 0.00000E+00 0.00000E+00 0.00000E+00 0.00000E+00 4.04110E-03 4.04120E-03 2.54000E-02
      324  0.00000E+00 0.00000E+00 0.00000E+00 0.00000E+00 0.00000E+00 0.00000E+00 0.00000E+00 0.00000E+00 0.00000E+00 2.18670E-03 5.28010E-03 2.54000E-02
      338  0.00000E+00 0.00000E+00 0.00000E+00 0.00000E+00 0.00000E+00 0.00000E+00 0.00000E+00 0.00000E+00 0.00000E+00 5.28000E-03 2.18690E-03 2.54000E-02
      352  0.00000E+00 0.00000E+00 0.00000E+00 0.00000E+00 0.00000E+00 0.00000E+00 0.00000E+00 0.00000E+00 0.00000E+00 2.62500E-19 4.28630E-03 2.54000E-02
      366  0.00000E+00 0.00000E+00 0.00000E+00 0.00000E+00 0.00000E+00 0.00000E+00 0.00000E+00 0.00000E+00 0.00000E+00 5.71500E-03 0.00000E+00 2.54000E-02
      380  0.00000E+00 0.00000E+00 0.00000E+00 0.00000E+00 0.00000E+00 0.00000E+00 0.00000E+00 0.00000E+00 0.00000E+00 3.49900E-19 5.71500E-03 2.54000E-02
      608  0.00000E+00 0.00000E+00 0.00000E+00 0.00000E+00 0.00000E+00 0.00000E+00 0.00000E+00 0.00000E+00 0.00000E+00 1.27000E-02 0.00000E+00 2.54000E-02
      609  0.00000E+00 0.00000E+00 0.00000E+00 0.00000E+00 0.00000E+00 0.00000E+00 0.00000E+00 0.00000E+00 0.00000E+00 1.09538E-02 0.00000E+00 2.54000E-02
      610  0.00000E+00 0.00000E+00 0.00000E+00 0.00000E+00 0.00000E+00 0.00000E+00 0.00000E+00 0.00000E+00 0.00000E+00 9.20750E-03 0.00000E+00 2.54000E-02
      611  0.00000E+00 0.00000E+00 0.00000E+00 0.00000E+00 0.00000E+00 0.00000E+00 0.00000E+00 0.00000E+00 0.00000E+00 7.46130E-03 0.00000E+00 2.54000E-02
      804  0.00000E+00 0.00000E+00 0.00000E+00 0.00000E+00 0.00000E+00 0.00000E+00 0.00000E+00 0.00000E+00 0.00000E+00 6.90200E-03 2.83400E-03 2.54000E-02
      806  0.00000E+00 0.00000E+00 0.00000E+00 0.00000E+00 0.00000E+00 0.00000E+00 0.00000E+00 0.00000E+00 0.00000E+00 5.27800E-03 5.27380E-03 2.54000E-02
      808  0.00000E+00 0.00000E+00 0.00000E+00 0.00000E+00 0.00000E+00 0.00000E+00 0.00000E+00 0.00000E+00 0.00000E+00 2.83770E-03 6.90050E-03 2.54000E-02
      810  0.00000E+00 0.00000E+00 0.00000E+00 0.00000E+00 0.00000E+00 0.00000E+00 0.00000E+00 0.00000E+00 0.00000E+00 4.56900E-19 7.46130E-03 2.54000E-02
      852  0.00000E+00 0.00000E+00 0.00000E+00 0.00000E+00 0.00000E+00 0.00000E+00 0.00000E+00 0.00000E+00 0.00000E+00 8.52400E-03 3.48110E-03 2.54000E-02
      854  0.00000E+00 0.00000E+00 0.00000E+00 0.00000E+00 0.00000E+00 0.00000E+00 0.00000E+00 0.00000E+00 0.00000E+00 6.51500E-03 6.50640E-03 2.54000E-02
      856  0.00000E+00 0.00000E+00 0.00000E+00 0.00000E+00 0.00000E+00 0.00000E+00 0.00000E+00 0.00000E+00 0.00000E+00 3.48870E-03 8.52100E-03 2.54000E-02
      858  0.00000E+00 0.00000E+00 0.00000E+00 0.00000E+00 0.00000E+00 0.00000E+00 0.00000E+00 0.00000E+00 0.00000E+00 5.63800E-19 9.20750E-03 2.54000E-02
      864  0.00000E+00 0.00000E+00 0.00000E+00 0.00000E+00 0.00000E+00 0.00000E+00 0.00000E+00 0.00000E+00 0.00000E+00 1.01461E-02 4.12810E-03 2.54000E-02
      866  0.00000E+00 0.00000E+00 0.00000E+00 0.00000E+00 0.00000E+00 0.00000E+00 0.00000E+00 0.00000E+00 0.00000E+00 7.75190E-03 7.73900E-03 2.54000E-02
      868  0.00000E+00 0.00000E+00 0.00000E+00 0.00000E+00 0.00000E+00 0.00000E+00 0.00000E+00 0.00000E+00 0.00000E+00 4.13970E-03 1.01414E-02 2.54000E-02
      870  0.00000E+00 0.00000E+00 0.00000E+00 0.00000E+00 0.00000E+00 0.00000E+00 0.00000E+00 0.00000E+00 0.00000E+00 6.70700E-19 1.09538E-02 2.54000E-02
      880  0.00000E+00 0.00000E+00 0.00000E+00 0.00000E+00 0.00000E+00 0.00000E+00 0.00000E+00 0.00000E+00 0.00000E+00 1.17681E-02 4.77520E-03 2.54000E-02
      882  0.00000E+00 0.00000E+00 0.00000E+00 0.00000E+00 0.00000E+00 0.00000E+00 0.00000E+00 0.00000E+00 0.00000E+00 8.98890E-03 8.97160E-03 2.54000E-02
      884  0.00000E+00 0.00000E+00 0.00000E+00 0.00000E+00 0.00000E+00 0.00000E+00 0.00000E+00 0.00000E+00 0.00000E+00 4.79070E-03 1.17618E-02 2.54000E-02
      886  0.00000E+00 0.00000E+00 0.00000E+00 0.00000E+00 0.00000E+00 0.00000E+00 0.00000E+00 0.00000E+00 0.00000E+00 7.77700E-19 1.27000E-02 2.54000E-02



 n o d a l   p r i n t   o u t   f o r   t i m e  s t e p      10                              ( at time 1.2924466E+00 )

 nodal point  x-disp     y-disp      z-disp      x-vel       y-vel       z-vel      x-accl      y-accl      z-accl      x-coor      y-coor      z-coor
        1  3.35958E-06 0.00000E+00 0.00000E+00 0.00000E+00 0.00000E+00 0.00000E+00 0.00000E+00 0.00000E+00 0.00000E+00 3.17836E-03 0.00000E+00-1.78000E-18
        2  1.91692E-06 0.00000E+00 0.00000E+00 0.00000E+00 0.00000E+00 0.00000E+00 0.00000E+00 0.00000E+00 0.00000E+00 2.38322E-03 0.00000E+00 0.00000E+00
        3  1.07047E-06 0.00000E+00 0.00000E+00 0.00000E+00 0.00000E+00 0.00000E+00 0.00000E+00 0.00000E+00 0.00000E+00 1.58857E-03 0.00000E+00 0.00000E+00
        4  4.89103E-07 0.00000E+00 0.00000E+00 0.00000E+00 0.00000E+00 0.00000E+00 0.00000E+00 0.00000E+00 0.00000E+00 7.94239E-04 0.00000E+00 0.00000E+00
        5  0.00000E+00 0.00000E+00 0.00000E+00 0.00000E+00 0.00000E+00 0.00000E+00 0.00000E+00 0.00000E+00 0.00000E+00 0.00000E+00 0.00000E+00 0.00000E+00
        6  0.00000E+00 4.59935E-07 0.00000E+00 0.00000E+00 0.00000E+00 0.00000E+00 0.00000E+00 0.00000E+00 0.00000E+00 4.86000E-20 7.94210E-04 0.00000E+00
        7  0.00000E+00 1.06212E-06 0.00000E+00 0.00000E+00 0.00000E+00 0.00000E+00 0.00000E+00 0.00000E+00 0.00000E+00 9.72100E-20 1.58856E-03 0.00000E+00
        8  0.00000E+00 2.03976E-06 0.00000E+00 0.00000E+00 0.00000E+00 0.00000E+00 0.00000E+00 0.00000E+00 0.00000E+00 1.45800E-19 2.38334E-03 0.00000E+00
        9  0.00000E+00 3.62690E-06 0.00000E+00 0.00000E+00 0.00000E+00 0.00000E+00 0.00000E+00 0.00000E+00 0.00000E+00 1.94400E-19 3.17863E-03 0.00000E+00
       10  1.25427E-06 3.46470E-06 0.00000E+00 0.00000E+00 0.00000E+00 0.00000E+00 0.00000E+00 0.00000E+00 0.00000E+00 1.21625E-03 2.93676E-03 0.00000E+00
       11  2.53906E-06 3.07583E-06 0.00000E+00 0.00000E+00 0.00000E+00 0.00000E+00 0.00000E+00 0.00000E+00 0.00000E+00 2.24764E-03 2.24818E-03 0.00000E+00
       12  3.19221E-06 1.73640E-06 0.00000E+00 0.00000E+00 0.00000E+00 0.00000E+00 0.00000E+00 0.00000E+00 0.00000E+00 2.93649E-03 1.21674E-03 0.00000E+00
       13  1.15907E-06 1.15602E-06 0.00000E+00 0.00000E+00 0.00000E+00 0.00000E+00 0.00000E+00 0.00000E+00 0.00000E+00 1.30946E-03 1.35306E-03 0.00000E+00
       14  1.11139E-06 5.55697E-07 0.00000E+00 0.00000E+00 0.00000E+00 0.00000E+00 0.00000E+00 0.00000E+00 0.00000E+00 1.48941E-03 7.07533E-04 0.00000E+00
       15  5.49610E-07 1.09714E-06 0.00000E+00 0.00000E+00 0.00000E+00 0.00000E+00 0.00000E+00 0.00000E+00 0.00000E+00 6.70060E-04 1.50810E-03 0.00000E+00
       16  5.19003E-07 5.24809E-07 0.00000E+00 0.00000E+00 0.00000E+00 0.00000E+00 0.00000E+00 0.00000E+00 0.00000E+00 7.54157E-04 7.82862E-04 0.00000E+00
       17  1.81942E-06 1.68515E-06 0.00000E+00 0.00000E+00 0.00000E+00 0.00000E+00 0.00000E+00 0.00000E+00 0.00000E+00 1.73812E-03 1.76919E-03 0.00000E+00
       18  9.10550E-07 1.89582E-06 0.00000E+00 0.00000E+00 0.00000E+00 0.00000E+00 0.00000E+00 0.00000E+00 0.00000E+00 9.21041E-04 2.19300E-03 0.00000E+00
       19  1.90630E-06 7.90292E-07 0.00000E+00 0.00000E+00 0.00000E+00 0.00000E+00 0.00000E+00 0.00000E+00 0.00000E+00 2.16521E-03 9.51649E-04 0.00000E+00
      167  2.85950E-07 3.21165E-07-2.58489E-05 0.00000E+00 0.00000E+00 0.00000E+00 0.00000E+00 0.00000E+00 0.00000E+00 3.12499E-03 3.18102E-03 2.53742E-02
      168  1.95830E-07 2.36208E-07-2.58489E-05 0.00000E+00 0.00000E+00 0.00000E+00 0.00000E+00 0.00000E+00 0.00000E+00 2.35450E-03 2.43294E-03 2.53742E-02
      169  2.18196E-07 9.30410E-08-2.58489E-05 0.00000E+00 0.00000E+00 0.00000E+00 0.00000E+00 0.00000E+00 0.00000E+00 2.67822E-03 1.27209E-03 2.53742E-02
      170  2.82214E-07 1.70424E-07-2.58489E-05 0.00000E+00 0.00000E+00 0.00000E+00 0.00000E+00 0.00000E+00 0.00000E+00 3.89308E-03 1.71107E-03 2.53742E-02
      197  7.15742E-08 2.36175E-07-2.58489E-05 0.00000E+00 0.00000E+00 0.00000E+00 0.00000E+00 0.00000E+00 0.00000E+00 1.20467E-03 2.71184E-03 2.53742E-02
      198  1.38886E-07 2.96426E-07-2.58489E-05 0.00000E+00 0.00000E+00 0.00000E+00 0.00000E+00 0.00000E+00 0.00000E+00 1.65574E-03 3.94310E-03 2.53742E-02
      225  2.49790E-07 0.00000E+00-2.58489E-05 0.00000E+00 0.00000E+00 0.00000E+00 0.00000E+00 0.00000E+00 0.00000E+00 2.85775E-03 0.00000E+00 2.53742E-02
      226  3.87258E-07 0.00000E+00-2.58489E-05 0.00000E+00 0.00000E+00 0.00000E+00 0.00000E+00 0.00000E+00 0.00000E+00 4.28669E-03 0.00000E+00 2.53742E-02
      279  1.22405E-07 0.00000E+00-2.58489E-05 0.00000E+00 0.00000E+00 0.00000E+00 0.00000E+00 0.00000E+00 0.00000E+00 1.42892E-03 0.00000E+00 2.53742E-02
      280  1.27932E-07 1.71543E-07-2.58489E-05 0.00000E+00 0.00000E+00 0.00000E+00 0.00000E+00 0.00000E+00 0.00000E+00 1.35633E-03 1.40797E-03 2.53742E-02
      281  0.00000E+00 1.52268E-07-2.58489E-05 0.00000E+00 0.00000E+00 0.00000E+00 0.00000E+00 0.00000E+00 0.00000E+00 8.74900E-20 1.42895E-03 2.53742E-02
      282  0.00000E+00 0.00000E+00-2.58489E-05 0.00000E+00 0.00000E+00 0.00000E+00 0.00000E+00 0.00000E+00 0.00000E+00 0.00000E+00 0.00000E+00 2.53742E-02
      296  0.00000E+00 2.94182E-07-2.58489E-05 0.00000E+00 0.00000E+00 0.00000E+00 0.00000E+00 0.00000E+00 0.00000E+00 1.75000E-19 2.85779E-03 2.53742E-02
      323  3.32654E-07 3.52779E-07-2.58489E-05 0.00000E+00 0.00000E+00 0.00000E+00 0.00000E+00 0.00000E+00 0.00000E+00 4.04143E-03 4.04155E-03 2.53742E-02
      324  1.82939E-07 4.57031E-07-2.58489E-05 0.00000E+00 0.00000E+00 0.00000E+00 0.00000E+00 0.00000E+00 0.00000E+00 2.18688E-03 5.28056E-03 2.53742E-02
      338  4.27892E-07 2.01427E-07-2.58489E-05 0.00000E+00 0.00000E+00 0.00000E+00 0.00000E+00 0.00000E+00 0.00000E+00 5.28043E-03 2.18710E-03 2.53742E-02
      352  0.00000E+00 4.32681E-07-2.58489E-05 0.00000E+00 0.00000E+00 0.00000E+00 0.00000E+00 0.00000E+00 0.00000E+00 2.62500E-19 4.28673E-03 2.53742E-02
      366  4.53651E-07 0.00000E+00-2.58489E-05 0.00000E+00 0.00000E+00 0.00000E+00 0.00000E+00 0.00000E+00 0.00000E+00 5.71545E-03 0.00000E+00 2.53742E-02
      380  0.00000E+00 5.12851E-07-2.58489E-05 0.00000E+00 0.00000E+00 0.00000E+00 0.00000E+00 0.00000E+00 0.00000E+00 3.49900E-19 5.71551E-03 2.53742E-02
      608  9.64991E-07 0.00000E+00-2.58489E-05 0.00000E+00 0.00000E+00 0.00000E+00 0.00000E+00 0.00000E+00 0.00000E+00 1.27010E-02 0.00000E+00 2.53742E-02
      609  8.31975E-07 0.00000E+00-2.58489E-05 0.00000E+00 0.00000E+00 0.00000E+00 0.00000E+00 0.00000E+00 0.00000E+00 1.09546E-02 0.00000E+00 2.53742E-02
      610  7.22694E-07 0.00000E+00-2.58489E-05 0.00000E+00 0.00000E+00 0.00000E+00 0.00000E+00 0.00000E+00 0.00000E+00 9.20822E-03 0.00000E+00 2.53742E-02
      611  6.04492E-07 0.00000E+00-2.58489E-05 0.00000E+00 0.00000E+00 0.00000E+00 0.00000E+00 0.00000E+00 0.00000E+00 7.46190E-03 0.00000E+00 2.53742E-02
      804  5.71713E-07 2.75944E-07-2.58489E-05 0.00000E+00 0.00000E+00 0.00000E+00 0.00000E+00 0.00000E+00 0.00000E+00 6.90257E-03 2.83428E-03 2.53742E-02
      806  4.55844E-07 5.04059E-07-2.58489E-05 0.00000E+00 0.00000E+00 0.00000E+00 0.00000E+00 0.00000E+00 0.00000E+00 5.27846E-03 5.27430E-03 2.53742E-02
      808  2.48285E-07 6.44698E-07-2.58489E-05 0.00000E+00 0.00000E+00 0.00000E+00 0.00000E+00 0.00000E+00 0.00000E+00 2.83795E-03 6.90114E-03 2.53742E-02
      810  0.00000E+00 7.03785E-07-2.58489E-05 0.00000E+00 0.00000E+00 0.00000E+00 0.00000E+00 0.00000E+00 0.00000E+00 4.56900E-19 7.46200E-03 2.53742E-02
      852  6.87676E-07 3.35377E-07-2.58489E-05 0.00000E+00 0.00000E+00 0.00000E+00 0.00000E+00 0.00000E+00 0.00000E+00 8.52469E-03 3.48144E-03 2.53742E-02
      854  5.57685E-07 6.19943E-07-2.58489E-05 0.00000E+00 0.00000E+00 0.00000E+00 0.00000E+00 0.00000E+00 0.00000E+00 6.51556E-03 6.50702E-03 2.53742E-02
      856  3.08477E-07 7.91675E-07-2.58489E-05 0.00000E+00 0.00000E+00 0.00000E+00 0.00000E+00 0.00000E+00 0.00000E+00 3.48901E-03 8.52179E-03 2.53742E-02
      858  0.00000E+00 8.52289E-07-2.58489E-05 0.00000E+00 0.00000E+00 0.00000E+00 0.00000E+00 0.00000E+00 0.00000E+00 5.63800E-19 9.20835E-03 2.53742E-02
      864  8.00727E-07 3.91700E-07-2.58489E-05 0.00000E+00 0.00000E+00 0.00000E+00 0.00000E+00 0.00000E+00 0.00000E+00 1.01469E-02 4.12849E-03 2.53742E-02
      866  6.57789E-07 7.39180E-07-2.58489E-05 0.00000E+00 0.00000E+00 0.00000E+00 0.00000E+00 0.00000E+00 0.00000E+00 7.75256E-03 7.73974E-03 2.53742E-02
      868  3.65403E-07 9.49970E-07-2.58489E-05 0.00000E+00 0.00000E+00 0.00000E+00 0.00000E+00 0.00000E+00 0.00000E+00 4.14007E-03 1.01423E-02 2.53742E-02
      870  0.00000E+00 1.02268E-06-2.58489E-05 0.00000E+00 0.00000E+00 0.00000E+00 0.00000E+00 0.00000E+00 0.00000E+00 6.70700E-19 1.09548E-02 2.53742E-02
      880  9.16667E-07 4.49002E-07-2.58489E-05 0.00000E+00 0.00000E+00 0.00000E+00 0.00000E+00 0.00000E+00 0.00000E+00 1.17690E-02 4.77565E-03 2.53742E-02
      882  7.62592E-07 8.69407E-07-2.58489E-05 0.00000E+00 0.00000E+00 0.00000E+00 0.00000E+00 0.00000E+00 0.00000E+00 8.98966E-03 8.97247E-03 2.53742E-02
      884  4.66461E-07 1.24213E-06-2.58489E-05 0.00000E+00 0.00000E+00 0.00000E+00 0.00000E+00 0.00000E+00 0.00000E+00 4.79117E-03 1.17630E-02 2.53742E-02
      886  0.00000E+00 1.42062E-06-2.58489E-05 0.00000E+00 0.00000E+00 0.00000E+00 0.00000E+00 0.00000E+00 0.00000E+00 7.77700E-19 1.27014E-02 2.53742E-02



 n o d a l   p r i n t   o u t   f o r   t i m e  s t e p      89                              ( at time 2.5483898E+00 )

 nodal point  x-disp     y-disp      z-disp      x-vel       y-vel       z-vel      x-accl      y-accl      z-accl      x-coor      y-coor      z-coor
        1  1.10695E-05 0.00000E+00 0.00000E+00 0.00000E+00 0.00000E+00 0.00000E+00 0.00000E+00 0.00000E+00 0.00000E+00 3.18607E-03 0.00000E+00-1.78000E-18
        2  4.62270E-06 0.00000E+00 0.00000E+00 0.00000E+00 0.00000E+00 0.00000E+00 0.00000E+00 0.00000E+00 0.00000E+00 2.38592E-03 0.00000E+00 0.00000E+00
        3  1.76662E-06 0.00000E+00 0.00000E+00 0.00000E+00 0.00000E+00 0.00000E+00 0.00000E+00 0.00000E+00 0.00000E+00 1.58927E-03 0.00000E+00 0.00000E+00
        4  8.61210E-07 0.00000E+00 0.00000E+00 0.00000E+00 0.00000E+00 0.00000E+00 0.00000E+00 0.00000E+00 0.00000E+00 7.94611E-04 0.00000E+00 0.00000E+00
        5  0.00000E+00 0.00000E+00 0.00000E+00 0.00000E+00 0.00000E+00 0.00000E+00 0.00000E+00 0.00000E+00 0.00000E+00 0.00000E+00 0.00000E+00 0.00000E+00
        6  0.00000E+00 1.65152E-06 0.00000E+00 0.00000E+00 0.00000E+00 0.00000E+00 0.00000E+00 0.00000E+00 0.00000E+00 4.86000E-20 7.95402E-04 0.00000E+00
        7  0.00000E+00 4.34538E-06 0.00000E+00 0.00000E+00 0.00000E+00 0.00000E+00 0.00000E+00 0.00000E+00 0.00000E+00 9.72100E-20 1.59185E-03 0.00000E+00
        8  0.00000E+00 9.03615E-06 0.00000E+00 0.00000E+00 0.00000E+00 0.00000E+00 0.00000E+00 0.00000E+00 0.00000E+00 1.45800E-19 2.39034E-03 0.00000E+00
        9  0.00000E+00 1.55620E-05 0.00000E+00 0.00000E+00 0.00000E+00 0.00000E+00 0.00000E+00 0.00000E+00 0.00000E+00 1.94400E-19 3.19056E-03 0.00000E+00
       10  6.99012E-06 1.66384E-05 0.00000E+00 0.00000E+00 0.00000E+00 0.00000E+00 0.00000E+00 0.00000E+00 0.00000E+00 1.22199E-03 2.94994E-03 0.00000E+00
       11  1.45951E-05 1.69800E-05 0.00000E+00 0.00000E+00 0.00000E+00 0.00000E+00 0.00000E+00 0.00000E+00 0.00000E+00 2.25970E-03 2.26208E-03 0.00000E+00
       12  1.97587E-05 1.16235E-05 0.00000E+00 0.00000E+00 0.00000E+00 0.00000E+00 0.00000E+00 0.00000E+00 0.00000E+00 2.95306E-03 1.22662E-03 0.00000E+00
       13  8.76348E-06 9.58875E-06 0.00000E+00 0.00000E+00 0.00000E+00 0.00000E+00 0.00000E+00 0.00000E+00 0.00000E+00 1.31706E-03 1.36149E-03 0.00000E+00
       14  9.76183E-06 5.82182E-06 0.00000E+00 0.00000E+00 0.00000E+00 0.00000E+00 0.00000E+00 0.00000E+00 0.00000E+00 1.49806E-03 7.12799E-04 0.00000E+00
       15  4.02745E-06 6.41453E-06 0.00000E+00 0.00000E+00 0.00000E+00 0.00000E+00 0.00000E+00 0.00000E+00 0.00000E+00 6.73538E-04 1.51341E-03 0.00000E+00
       16  4.36177E-06 3.10763E-06 0.00000E+00 0.00000E+00 0.00000E+00 0.00000E+00 0.00000E+00 0.00000E+00 0.00000E+00 7.57999E-04 7.85445E-04 0.00000E+00
       17  1.24481E-05 1.20703E-05 0.00000E+00 0.00000E+00 0.00000E+00 0.00000E+00 0.00000E+00 0.00000E+00 0.00000E+00 1.74875E-03 1.77957E-03 0.00000E+00
       18  5.74737E-06 1.05790E-05 0.00000E+00 0.00000E+00 0.00000E+00 0.00000E+00 0.00000E+00 0.00000E+00 0.00000E+00 9.25878E-04 2.20168E-03 0.00000E+00
       19  1.49838E-05 7.46976E-06 0.00000E+00 0.00000E+00 0.00000E+00 0.00000E+00 0.00000E+00 0.00000E+00 0.00000E+00 2.17828E-03 9.58328E-04 0.00000E+00
      167  1.05469E-07 1.19422E-06-5.09678E-05 0.00000E+00 0.00000E+00 0.00000E+00 0.00000E+00 0.00000E+00 0.00000E+00 3.12481E-03 3.18189E-03 2.53490E-02
      168  1.20272E-07 8.58870E-07-5.09678E-05 0.00000E+00 0.00000E+00 0.00000E+00 0.00000E+00 0.00000E+00 0.00000E+00 2.35442E-03 2.43356E-03 2.53490E-02
      169 -3.15601E-07 1.66750E-06-5.09678E-05 0.00000E+00 0.00000E+00 0.00000E+00 0.00000E+00 0.00000E+00 0.00000E+00 2.67768E-03 1.27367E-03 2.53490E-02
      170 -6.52783E-07 1.25888E-06-5.09678E-05 0.00000E+00 0.00000E+00 0.00000E+00 0.00000E+00 0.00000E+00 0.00000E+00 3.89215E-03 1.71216E-03 2.53490E-02
      197 -1.70121E-08 7.60073E-07-5.09678E-05 0.00000E+00 0.00000E+00 0.00000E+00 0.00000E+00 0.00000E+00 0.00000E+00 1.20458E-03 2.71236E-03 2.53490E-02
      198 -8.69312E-08 4.45540E-07-5.09678E-05 0.00000E+00 0.00000E+00 0.00000E+00 0.00000E+00 0.00000E+00 0.00000E+00 1.65551E-03 3.94325E-03 2.53490E-02
      225  2.42714E-06 0.00000E+00-5.09678E-05 0.00000E+00 0.00000E+00 0.00000E+00 0.00000E+00 0.00000E+00 0.00000E+00 2.85993E-03 0.00000E+00 2.53490E-02
      226  1.39405E-06 0.00000E+00-5.09678E-05 0.00000E+00 0.00000E+00 0.00000E+00 0.00000E+00 0.00000E+00 0.00000E+00 4.28769E-03 0.00000E+00 2.53490E-02
      279  2.96376E-06 0.00000E+00-5.09678E-05 0.00000E+00 0.00000E+00 0.00000E+00 0.00000E+00 0.00000E+00 0.00000E+00 1.43176E-03 0.00000E+00 2.53490E-02
      280  1.66772E-07 1.65441E-06-5.09678E-05 0.00000E+00 0.00000E+00 0.00000E+00 0.00000E+00 0.00000E+00 0.00000E+00 1.35637E-03 1.40945E-03 2.53490E-02
      281  0.00000E+00 1.61703E-06-5.09678E-05 0.00000E+00 0.00000E+00 0.00000E+00 0.00000E+00 0.00000E+00 0.00000E+00 8.74900E-20 1.43042E-03 2.53490E-02
      282  0.00000E+00 0.00000E+00-5.09678E-05 0.00000E+00 0.00000E+00 0.00000E+00 0.00000E+00 0.00000E+00 0.00000E+00 0.00000E+00 0.00000E+00 2.53490E-02
      296  0.00000E+00 1.06293E-06-5.09678E-05 0.00000E+00 0.00000E+00 0.00000E+00 0.00000E+00 0.00000E+00 0.00000E+00 1.75000E-19 2.85856E-03 2.53490E-02
      323  1.98502E-07 1.00146E-06-5.09678E-05 0.00000E+00 0.00000E+00 0.00000E+00 0.00000E+00 0.00000E+00 0.00000E+00 4.04130E-03 4.04220E-03 2.53490E-02
      324  7.22626E-08 6.41690E-07-5.09678E-05 0.00000E+00 0.00000E+00 0.00000E+00 0.00000E+00 0.00000E+00 0.00000E+00 2.18677E-03 5.28074E-03 2.53490E-02
      338  2.33025E-08 1.33659E-06-5.09678E-05 0.00000E+00 0.00000E+00 0.00000E+00 0.00000E+00 0.00000E+00 0.00000E+00 5.28002E-03 2.18824E-03 2.53490E-02
      352  0.00000E+00 1.56787E-06-5.09678E-05 0.00000E+00 0.00000E+00 0.00000E+00 0.00000E+00 0.00000E+00 0.00000E+00 2.62500E-19 4.28787E-03 2.53490E-02
      366  6.70529E-07 0.00000E+00-5.09678E-05 0.00000E+00 0.00000E+00 0.00000E+00 0.00000E+00 0.00000E+00 0.00000E+00 5.71567E-03 0.00000E+00 2.53490E-02
      380  0.00000E+00 1.14512E-06-5.09678E-05 0.00000E+00 0.00000E+00 0.00000E+00 0.00000E+00 0.00000E+00 0.00000E+00 3.49900E-19 5.71615E-03 2.53490E-02
      608 -3.32779E-07 0.00000E+00-5.09678E-05 0.00000E+00 0.00000E+00 0.00000E+00 0.00000E+00 0.00000E+00 0.00000E+00 1.26997E-02 0.00000E+00 2.53490E-02
      609 -1.41569E-08 0.00000E+00-5.09678E-05 0.00000E+00 0.00000E+00 0.00000E+00 0.00000E+00 0.00000E+00 0.00000E+00 1.09538E-02 0.00000E+00 2.53490E-02
      610  9.31106E-08 0.00000E+00-5.09678E-05 0.00000E+00 0.00000E+00 0.00000E+00 0.00000E+00 0.00000E+00 0.00000E+00 9.20759E-03 0.00000E+00 2.53490E-02
      611  2.31011E-07 0.00000E+00-5.09678E-05 0.00000E+00 0.00000E+00 0.00000E+00 0.00000E+00 0.00000E+00 0.00000E+00 7.46153E-03 0.00000E+00 2.53490E-02
      804  1.91984E-07 1.39867E-06-5.09678E-05 0.00000E+00 0.00000E+00 0.00000E+00 0.00000E+00 0.00000E+00 0.00000E+00 6.90219E-03 2.83540E-03 2.53490E-02
      806  4.46675E-07 1.15720E-06-5.09678E-05 0.00000E+00 0.00000E+00 0.00000E+00 0.00000E+00 0.00000E+00 0.00000E+00 5.27845E-03 5.27496E-03 2.53490E-02
      808  2.69311E-07 9.29833E-07-5.09678E-05 0.00000E+00 0.00000E+00 0.00000E+00 0.00000E+00 0.00000E+00 0.00000E+00 2.83797E-03 6.90143E-03 2.53490E-02
      810  0.00000E+00 1.41918E-06-5.09678E-05 0.00000E+00 0.00000E+00 0.00000E+00 0.00000E+00 0.00000E+00 0.00000E+00 4.56900E-19 7.46272E-03 2.53490E-02
      852  3.17908E-07 1.52265E-06-5.09678E-05 0.00000E+00 0.00000E+00 0.00000E+00 0.00000E+00 0.00000E+00 0.00000E+00 8.52432E-03 3.48262E-03 2.53490E-02
      854  6.22672E-07 1.19904E-06-5.09678E-05 0.00000E+00 0.00000E+00 0.00000E+00 0.00000E+00 0.00000E+00 0.00000E+00 6.51562E-03 6.50760E-03 2.53490E-02
      856  4.55553E-07 1.11903E-06-5.09678E-05 0.00000E+00 0.00000E+00 0.00000E+00 0.00000E+00 0.00000E+00 0.00000E+00 3.48916E-03 8.52212E-03 2.53490E-02
      858  0.00000E+00 1.84712E-06-5.09678E-05 0.00000E+00 0.00000E+00 0.00000E+00 0.00000E+00 0.00000E+00 0.00000E+00 5.63800E-19 9.20935E-03 2.53490E-02
      864  4.10582E-07 1.61359E-06-5.09678E-05 0.00000E+00 0.00000E+00 0.00000E+00 0.00000E+00 0.00000E+00 0.00000E+00 1.01465E-02 4.12971E-03 2.53490E-02
      866  8.68233E-07 1.25690E-06-5.09678E-05 0.00000E+00 0.00000E+00 0.00000E+00 0.00000E+00 0.00000E+00 0.00000E+00 7.75277E-03 7.74026E-03 2.53490E-02
      868  4.61372E-07 1.28256E-06-5.09678E-05 0.00000E+00 0.00000E+00 0.00000E+00 0.00000E+00 0.00000E+00 0.00000E+00 4.14016E-03 1.01427E-02 2.53490E-02
      870  0.00000E+00 2.21515E-06-5.09678E-05 0.00000E+00 0.00000E+00 0.00000E+00 0.00000E+00 0.00000E+00 0.00000E+00 6.70700E-19 1.09560E-02 2.53490E-02
      880  1.43458E-07 1.36944E-06-5.09678E-05 0.00000E+00 0.00000E+00 0.00000E+00 0.00000E+00 0.00000E+00 0.00000E+00 1.17682E-02 4.77657E-03 2.53490E-02
      882  7.08519E-07 1.22806E-06-5.09678E-05 0.00000E+00 0.00000E+00 0.00000E+00 0.00000E+00 0.00000E+00 0.00000E+00 8.98961E-03 8.97283E-03 2.53490E-02
      884  6.92628E-07 2.13930E-06-5.09678E-05 0.00000E+00 0.00000E+00 0.00000E+00 0.00000E+00 0.00000E+00 0.00000E+00 4.79139E-03 1.17639E-02 2.53490E-02
      886  0.00000E+00 2.83508E-06-5.09678E-05 0.00000E+00 0.00000E+00 0.00000E+00 0.00000E+00 0.00000E+00 0.00000E+00 7.77700E-19 1.27028E-02 2.53490E-02



 n o d a l   p r i n t   o u t   f o r   t i m e  s t e p      95                              ( at time 3.8043330E+00 )

 nodal point  x-disp     y-disp      z-disp      x-vel       y-vel       z-vel      x-accl      y-accl      z-accl      x-coor      y-coor      z-coor
        1  2.93066E-05 0.00000E+00 0.00000E+00 0.00000E+00 0.00000E+00 0.00000E+00 0.00000E+00 0.00000E+00 0.00000E+00 3.20431E-03 0.00000E+00-1.78000E-18
        2  1.69911E-05 0.00000E+00 0.00000E+00 0.00000E+00 0.00000E+00 0.00000E+00 0.00000E+00 0.00000E+00 0.00000E+00 2.39829E-03 0.00000E+00 0.00000E+00
        3  9.44374E-06 0.00000E+00 0.00000E+00 0.00000E+00 0.00000E+00 0.00000E+00 0.00000E+00 0.00000E+00 0.00000E+00 1.59694E-03 0.00000E+00 0.00000E+00
        4  4.73107E-06 0.00000E+00 0.00000E+00 0.00000E+00 0.00000E+00 0.00000E+00 0.00000E+00 0.00000E+00 0.00000E+00 7.98481E-04 0.00000E+00 0.00000E+00
        5  0.00000E+00 0.00000E+00 0.00000E+00 0.00000E+00 0.00000E+00 0.00000E+00 0.00000E+00 0.00000E+00 0.00000E+00 0.00000E+00 0.00000E+00 0.00000E+00
        6  0.00000E+00 5.51953E-06 0.00000E+00 0.00000E+00 0.00000E+00 0.00000E+00 0.00000E+00 0.00000E+00 0.00000E+00 4.86000E-20 7.99270E-04 0.00000E+00
        7  0.00000E+00 1.26020E-05 0.00000E+00 0.00000E+00 0.00000E+00 0.00000E+00 0.00000E+00 0.00000E+00 0.00000E+00 9.72100E-20 1.60010E-03 0.00000E+00
        8  0.00000E+00 2.27938E-05 0.00000E+00 0.00000E+00 0.00000E+00 0.00000E+00 0.00000E+00 0.00000E+00 0.00000E+00 1.45800E-19 2.40409E-03 0.00000E+00
        9  0.00000E+00 3.49676E-05 0.00000E+00 0.00000E+00 0.00000E+00 0.00000E+00 0.00000E+00 0.00000E+00 0.00000E+00 1.94400E-19 3.20997E-03 0.00000E+00
       10  1.56840E-05 3.51706E-05 0.00000E+00 0.00000E+00 0.00000E+00 0.00000E+00 0.00000E+00 0.00000E+00 0.00000E+00 1.23068E-03 2.96847E-03 0.00000E+00
       11  2.92775E-05 3.16939E-05 0.00000E+00 0.00000E+00 0.00000E+00 0.00000E+00 0.00000E+00 0.00000E+00 0.00000E+00 2.27438E-03 2.27679E-03 0.00000E+00
       12  3.76676E-05 2.02316E-05 0.00000E+00 0.00000E+00 0.00000E+00 0.00000E+00 0.00000E+00 0.00000E+00 0.00000E+00 2.97097E-03 1.23523E-03 0.00000E+00
       13  1.86428E-05 1.89127E-05 0.00000E+00 0.00000E+00 0.00000E+00 0.00000E+00 0.00000E+00 0.00000E+00 0.00000E+00 1.32694E-03 1.37081E-03 0.00000E+00
       14  1.99985E-05 1.11981E-05 0.00000E+00 0.00000E+00 0.00000E+00 0.00000E+00 0.00000E+00 0.00000E+00 0.00000E+00 1.50830E-03 7.18175E-04 0.00000E+00
       15  9.30564E-06 1.56508E-05 0.00000E+00 0.00000E+00 0.00000E+00 0.00000E+00 0.00000E+00 0.00000E+00 0.00000E+00 6.78816E-04 1.52265E-03 0.00000E+00
       16  9.62146E-06 7.90099E-06 0.00000E+00 0.00000E+00 0.00000E+00 0.00000E+00 0.00000E+00 0.00000E+00 0.00000E+00 7.63259E-04 7.90238E-04 0.00000E+00
       17  2.50474E-05 2.39196E-05 0.00000E+00 0.00000E+00 0.00000E+00 0.00000E+00 0.00000E+00 0.00000E+00 0.00000E+00 1.76135E-03 1.79142E-03 0.00000E+00
       18  1.28251E-05 2.43750E-05 0.00000E+00 0.00000E+00 0.00000E+00 0.00000E+00 0.00000E+00 0.00000E+00 0.00000E+00 9.32956E-04 2.21548E-03 0.00000E+00
       19  2.92170E-05 1.40642E-05 0.00000E+00 0.00000E+00 0.00000E+00 0.00000E+00 0.00000E+00 0.00000E+00 0.00000E+00 2.19252E-03 9.64923E-04 0.00000E+00
      167  1.32728E-07 1.08984E-06-7.60867E-05 0.00000E+00 0.00000E+00 0.00000E+00 0.00000E+00 0.00000E+00 0.00000E+00 3.12483E-03 3.18179E-03 2.53239E-02
      168  1.79634E-07 8.10770E-07-7.60867E-05 0.00000E+00 0.00000E+00 0.00000E+00 0.00000E+00 0.00000E+00 0.00000E+00 2.35448E-03 2.43351E-03 2.53239E-02
      169 -3.84745E-07 1.79510E-06-7.60867E-05 0.00000E+00 0.00000E+00 0.00000E+00 0.00000E+00 0.00000E+00 0.00000E+00 2.67762E-03 1.27380E-03 2.53239E-02
      170 -4.60729E-07 1.26494E-06-7.60867E-05 0.00000E+00 0.00000E+00 0.00000E+00 0.00000E+00 0.00000E+00 0.00000E+00 3.89234E-03 1.71216E-03 2.53239E-02
      197  4.09502E-08 7.90645E-07-7.60867E-05 0.00000E+00 0.00000E+00 0.00000E+00 0.00000E+00 0.00000E+00 0.00000E+00 1.20464E-03 2.71239E-03 2.53239E-02
      198 -2.17955E-08 5.83766E-07-7.60867E-05 0.00000E+00 0.00000E+00 0.00000E+00 0.00000E+00 0.00000E+00 0.00000E+00 1.65558E-03 3.94338E-03 2.53239E-02
      225  2.87324E-06 0.00000E+00-7.60867E-05 0.00000E+00 0.00000E+00 0.00000E+00 0.00000E+00 0.00000E+00 0.00000E+00 2.86037E-03 0.00000E+00 2.53239E-02
      226  1.57767E-06 0.00000E+00-7.60867E-05 0.00000E+00 0.00000E+00 0.00000E+00 0.00000E+00 0.00000E+00 0.00000E+00 4.28788E-03 0.00000E+00 2.53239E-02
      279  3.08329E-06 0.00000E+00-7.60867E-05 0.00000E+00 0.00000E+00 0.00000E+00 0.00000E+00 0.00000E+00 0.00000E+00 1.43188E-03 0.00000E+00 2.53239E-02
      280  4.54952E-08 1.50069E-06-7.60867E-05 0.00000E+00 0.00000E+00 0.00000E+00 0.00000E+00 0.00000E+00 0.00000E+00 1.35625E-03 1.40930E-03 2.53239E-02
      281  0.00000E+00 1.41060E-06-7.60867E-05 0.00000E+00 0.00000E+00 0.00000E+00 0.00000E+00 0.00000E+00 0.00000E+00 8.74900E-20 1.43021E-03 2.53239E-02
      282  0.00000E+00 0.00000E+00-7.60867E-05 0.00000E+00 0.00000E+00 0.00000E+00 0.00000E+00 0.00000E+00 0.00000E+00 0.00000E+00 0.00000E+00 2.53239E-02
      296  0.00000E+00 1.03073E-06-7.60867E-05 0.00000E+00 0.00000E+00 0.00000E+00 0.00000E+00 0.00000E+00 0.00000E+00 1.75000E-19 2.85853E-03 2.53239E-02
      323  2.30496E-07 9.89937E-07-7.60867E-05 0.00000E+00 0.00000E+00 0.00000E+00 0.00000E+00 0.00000E+00 0.00000E+00 4.04133E-03 4.04219E-03 2.53239E-02
      324  9.12851E-08 7.17090E-07-7.60867E-05 0.00000E+00 0.00000E+00 0.00000E+00 0.00000E+00 0.00000E+00 0.00000E+00 2.18679E-03 5.28082E-03 2.53239E-02
      338  1.58180E-07 1.27785E-06-7.60867E-05 0.00000E+00 0.00000E+00 0.00000E+00 0.00000E+00 0.00000E+00 0.00000E+00 5.28016E-03 2.18818E-03 2.53239E-02
      352  0.00000E+00 1.61533E-06-7.60867E-05 0.00000E+00 0.00000E+00 0.00000E+00 0.00000E+00 0.00000E+00 0.00000E+00 2.62500E-19 4.28792E-03 2.53239E-02
      366  7.38990E-07 0.00000E+00-7.60867E-05 0.00000E+00 0.00000E+00 0.00000E+00 0.00000E+00 0.00000E+00 0.00000E+00 5.71574E-03 0.00000E+00 2.53239E-02
      380  0.00000E+00 1.28839E-06-7.60867E-05 0.00000E+00 0.00000E+00 0.00000E+00 0.00000E+00 0.00000E+00 0.00000E+00 3.49900E-19 5.71629E-03 2.53239E-02
      608 -2.12753E-07 0.00000E+00-7.60867E-05 0.00000E+00 0.00000E+00 0.00000E+00 0.00000E+00 0.00000E+00 0.00000E+00 1.26998E-02 0.00000E+00 2.53239E-02
      609  9.35351E-08 0.00000E+00-7.60867E-05 0.00000E+00 0.00000E+00 0.00000E+00 0.00000E+00 0.00000E+00 0.00000E+00 1.09539E-02 0.00000E+00 2.53239E-02
      610  1.85635E-07 0.00000E+00-7.60867E-05 0.00000E+00 0.00000E+00 0.00000E+00 0.00000E+00 0.00000E+00 0.00000E+00 9.20769E-03 0.00000E+00 2.53239E-02
      611  3.10052E-07 0.00000E+00-7.60867E-05 0.00000E+00 0.00000E+00 0.00000E+00 0.00000E+00 0.00000E+00 0.00000E+00 7.46161E-03 0.00000E+00 2.53239E-02
      804  3.01702E-07 1.30515E-06-7.60867E-05 0.00000E+00 0.00000E+00 0.00000E+00 0.00000E+00 0.00000E+00 0.00000E+00 6.90230E-03 2.83531E-03 2.53239E-02
      806  4.79930E-07 1.15151E-06-7.60867E-05 0.00000E+00 0.00000E+00 0.00000E+00 0.00000E+00 0.00000E+00 0.00000E+00 5.27848E-03 5.27495E-03 2.53239E-02
      808  2.89530E-07 9.87592E-07-7.60867E-05 0.00000E+00 0.00000E+00 0.00000E+00 0.00000E+00 0.00000E+00 0.00000E+00 2.83799E-03 6.90149E-03 2.53239E-02
      810  0.00000E+00 1.56349E-06-7.60867E-05 0.00000E+00 0.00000E+00 0.00000E+00 0.00000E+00 0.00000E+00 0.00000E+00 4.56900E-19 7.46286E-03 2.53239E-02
      852  4.12943E-07 1.43657E-06-7.60867E-05 0.00000E+00 0.00000E+00 0.00000E+00 0.00000E+00 0.00000E+00 0.00000E+00 8.52441E-03 3.48254E-03 2.53239E-02
      854  6.55974E-07 1.23201E-06-7.60867E-05 0.00000E+00 0.00000E+00 0.00000E+00 0.00000E+00 0.00000E+00 0.00000E+00 6.51566E-03 6.50763E-03 2.53239E-02
      856  4.63712E-07 1.18373E-06-7.60867E-05 0.00000E+00 0.00000E+00 0.00000E+00 0.00000E+00 0.00000E+00 0.00000E+00 3.48916E-03 8.52218E-03 2.53239E-02
      858  0.00000E+00 1.93239E-06-7.60867E-05 0.00000E+00 0.00000E+00 0.00000E+00 0.00000E+00 0.00000E+00 0.00000E+00 5.63800E-19 9.20943E-03 2.53239E-02
      864  4.98511E-07 1.52773E-06-7.60867E-05 0.00000E+00 0.00000E+00 0.00000E+00 0.00000E+00 0.00000E+00 0.00000E+00 1.01466E-02 4.12963E-03 2.53239E-02
      866  8.98004E-07 1.32750E-06-7.60867E-05 0.00000E+00 0.00000E+00 0.00000E+00 0.00000E+00 0.00000E+00 0.00000E+00 7.75280E-03 7.74033E-03 2.53239E-02
      868  4.86342E-07 1.36891E-06-7.60867E-05 0.00000E+00 0.00000E+00 0.00000E+00 0.00000E+00 0.00000E+00 0.00000E+00 4.14019E-03 1.01428E-02 2.53239E-02
      870  0.00000E+00 2.35499E-06-7.60867E-05 0.00000E+00 0.00000E+00 0.00000E+00 0.00000E+00 0.00000E+00 0.00000E+00 6.70700E-19 1.09562E-02 2.53239E-02
      880  2.30335E-07 1.30617E-06-7.60867E-05 0.00000E+00 0.00000E+00 0.00000E+00 0.00000E+00 0.00000E+00 0.00000E+00 1.17683E-02 4.77651E-03 2.53239E-02
      882  7.47953E-07 1.31290E-06-7.60867E-05 0.00000E+00 0.00000E+00 0.00000E+00 0.00000E+00 0.00000E+00 0.00000E+00 8.98965E-03 8.97291E-03 2.53239E-02
      884  7.35889E-07 2.24652E-06-7.60867E-05 0.00000E+00 0.00000E+00 0.00000E+00 0.00000E+00 0.00000E+00 0.00000E+00 4.79144E-03 1.17640E-02 2.53239E-02
      886  0.00000E+00 3.03266E-06-7.60867E-05 0.00000E+00 0.00000E+00 0.00000E+00 0.00000E+00 0.00000E+00 0.00000E+00 7.77700E-19 1.27030E-02 2.53239E-02



 n o d a l   p r i n t   o u t   f o r   t i m e  s t e p     103                              ( at time 5.7948689E+00 )

 nodal point  x-disp     y-disp      z-disp      x-vel       y-vel       z-vel      x-accl      y-accl      z-accl      x-coor      y-coor      z-coor
        1  5.38797E-05 0.00000E+00 0.00000E+00 0.00000E+00 0.00000E+00 0.00000E+00 0.00000E+00 0.00000E+00 0.00000E+00 3.22888E-03 0.00000E+00-1.78000E-18
        2  3.37193E-05 0.00000E+00 0.00000E+00 0.00000E+00 0.00000E+00 0.00000E+00 0.00000E+00 0.00000E+00 0.00000E+00 2.41502E-03 0.00000E+00 0.00000E+00
        3  1.98199E-05 0.00000E+00 0.00000E+00 0.00000E+00 0.00000E+00 0.00000E+00 0.00000E+00 0.00000E+00 0.00000E+00 1.60732E-03 0.00000E+00 0.00000E+00
        4  9.72196E-06 0.00000E+00 0.00000E+00 0.00000E+00 0.00000E+00 0.00000E+00 0.00000E+00 0.00000E+00 0.00000E+00 8.03472E-04 0.00000E+00 0.00000E+00
        5  0.00000E+00 0.00000E+00 0.00000E+00 0.00000E+00 0.00000E+00 0.00000E+00 0.00000E+00 0.00000E+00 0.00000E+00 0.00000E+00 0.00000E+00 0.00000E+00
        6  0.00000E+00 1.11881E-05 0.00000E+00 0.00000E+00 0.00000E+00 0.00000E+00 0.00000E+00 0.00000E+00 0.00000E+00 4.86000E-20 8.04938E-04 0.00000E+00
        7  0.00000E+00 2.39936E-05 0.00000E+00 0.00000E+00 0.00000E+00 0.00000E+00 0.00000E+00 0.00000E+00 0.00000E+00 9.72100E-20 1.61149E-03 0.00000E+00
        8  0.00000E+00 4.03782E-05 0.00000E+00 0.00000E+00 0.00000E+00 0.00000E+00 0.00000E+00 0.00000E+00 0.00000E+00 1.45800E-19 2.42168E-03 0.00000E+00
        9  0.00000E+00 5.94563E-05 0.00000E+00 0.00000E+00 0.00000E+00 0.00000E+00 0.00000E+00 0.00000E+00 0.00000E+00 1.94400E-19 3.23446E-03 0.00000E+00
       10  2.59524E-05 5.86079E-05 0.00000E+00 0.00000E+00 0.00000E+00 0.00000E+00 0.00000E+00 0.00000E+00 0.00000E+00 1.24095E-03 2.99191E-03 0.00000E+00
       11  4.73989E-05 5.02457E-05 0.00000E+00 0.00000E+00 0.00000E+00 0.00000E+00 0.00000E+00 0.00000E+00 0.00000E+00 2.29250E-03 2.29535E-03 0.00000E+00
       12  6.03246E-05 3.11401E-05 0.00000E+00 0.00000E+00 0.00000E+00 0.00000E+00 0.00000E+00 0.00000E+00 0.00000E+00 2.99362E-03 1.24614E-03 0.00000E+00
       13  3.01011E-05 2.99373E-05 0.00000E+00 0.00000E+00 0.00000E+00 0.00000E+00 0.00000E+00 0.00000E+00 0.00000E+00 1.33840E-03 1.38184E-03 0.00000E+00
       14  3.21392E-05 1.73672E-05 0.00000E+00 0.00000E+00 0.00000E+00 0.00000E+00 0.00000E+00 0.00000E+00 0.00000E+00 1.52044E-03 7.24344E-04 0.00000E+00
       15  1.54884E-05 2.76465E-05 0.00000E+00 0.00000E+00 0.00000E+00 0.00000E+00 0.00000E+00 0.00000E+00 0.00000E+00 6.84999E-04 1.53465E-03 0.00000E+00
       16  1.59470E-05 1.43082E-05 0.00000E+00 0.00000E+00 0.00000E+00 0.00000E+00 0.00000E+00 0.00000E+00 0.00000E+00 7.69585E-04 7.96645E-04 0.00000E+00
       17  3.98632E-05 3.82940E-05 0.00000E+00 0.00000E+00 0.00000E+00 0.00000E+00 0.00000E+00 0.00000E+00 0.00000E+00 1.77616E-03 1.80579E-03 0.00000E+00
       18  2.10870E-05 4.16528E-05 0.00000E+00 0.00000E+00 0.00000E+00 0.00000E+00 0.00000E+00 0.00000E+00 0.00000E+00 9.41218E-04 2.23275E-03 0.00000E+00
       19  4.65324E-05 2.21743E-05 0.00000E+00 0.00000E+00 0.00000E+00 0.00000E+00 0.00000E+00 0.00000E+00 0.00000E+00 2.20983E-03 9.73033E-04 0.00000E+00
      167  2.28782E-07 1.26716E-06-1.15897E-04 0.00000E+00 0.00000E+00 0.00000E+00 0.00000E+00 0.00000E+00 0.00000E+00 3.12493E-03 3.18197E-03 2.52841E-02
      168  2.49168E-07 7.78708E-07-1.15897E-04 0.00000E+00 0.00000E+00 0.00000E+00 0.00000E+00 0.00000E+00 0.00000E+00 2.35455E-03 2.43348E-03 2.52841E-02
      169 -3.66911E-07 1.73362E-06-1.15897E-04 0.00000E+00 0.00000E+00 0.00000E+00 0.00000E+00 0.00000E+00 0.00000E+00 2.67763E-03 1.27373E-03 2.52841E-02
      170 -4.21652E-07 1.34841E-06-1.15897E-04 0.00000E+00 0.00000E+00 0.00000E+00 0.00000E+00 0.00000E+00 0.00000E+00 3.89238E-03 1.71225E-03 2.52841E-02
      197  1.06178E-07 9.06492E-07-1.15897E-04 0.00000E+00 0.00000E+00 0.00000E+00 0.00000E+00 0.00000E+00 0.00000E+00 1.20471E-03 2.71251E-03 2.52841E-02
      198  3.70368E-08 6.58671E-07-1.15897E-04 0.00000E+00 0.00000E+00 0.00000E+00 0.00000E+00 0.00000E+00 0.00000E+00 1.65564E-03 3.94346E-03 2.52841E-02
      225  3.19836E-06 0.00000E+00-1.15897E-04 0.00000E+00 0.00000E+00 0.00000E+00 0.00000E+00 0.00000E+00 0.00000E+00 2.86070E-03 0.00000E+00 2.52841E-02
      226  1.76608E-06 0.00000E+00-1.15897E-04 0.00000E+00 0.00000E+00 0.00000E+00 0.00000E+00 0.00000E+00 0.00000E+00 4.28807E-03 0.00000E+00 2.52841E-02
      279  3.27071E-06 0.00000E+00-1.15897E-04 0.00000E+00 0.00000E+00 0.00000E+00 0.00000E+00 0.00000E+00 0.00000E+00 1.43207E-03 0.00000E+00 2.52841E-02
      280  5.24302E-08 1.41205E-06-1.15897E-04 0.00000E+00 0.00000E+00 0.00000E+00 0.00000E+00 0.00000E+00 0.00000E+00 1.35625E-03 1.40921E-03 2.52841E-02
      281  0.00000E+00 1.83261E-06-1.15897E-04 0.00000E+00 0.00000E+00 0.00000E+00 0.00000E+00 0.00000E+00 0.00000E+00 8.74900E-20 1.43063E-03 2.52841E-02
      282  0.00000E+00 0.00000E+00-1.15897E-04 0.00000E+00 0.00000E+00 0.00000E+00 0.00000E+00 0.00000E+00 0.00000E+00 0.00000E+00 0.00000E+00 2.52841E-02
      296  0.00000E+00 1.50866E-06-1.15897E-04 0.00000E+00 0.00000E+00 0.00000E+00 0.00000E+00 0.00000E+00 0.00000E+00 1.75000E-19 2.85901E-03 2.52841E-02
      323  3.04767E-07 1.19160E-06-1.15897E-04 0.00000E+00 0.00000E+00 0.00000E+00 0.00000E+00 0.00000E+00 0.00000E+00 4.04140E-03 4.04239E-03 2.52841E-02
      324  1.16016E-07 8.28571E-07-1.15897E-04 0.00000E+00 0.00000E+00 0.00000E+00 0.00000E+00 0.00000E+00 0.00000E+00 2.18682E-03 5.28093E-03 2.52841E-02
      338  2.33899E-07 1.42336E-06-1.15897E-04 0.00000E+00 0.00000E+00 0.00000E+00 0.00000E+00 0.00000E+00 0.00000E+00 5.28023E-03 2.18832E-03 2.52841E-02
      352  0.00000E+00 1.90203E-06-1.15897E-04 0.00000E+00 0.00000E+00 0.00000E+00 0.00000E+00 0.00000E+00 0.00000E+00 2.62500E-19 4.28820E-03 2.52841E-02
      366  7.96785E-07 0.00000E+00-1.15897E-04 0.00000E+00 0.00000E+00 0.00000E+00 0.00000E+00 0.00000E+00 0.00000E+00 5.71580E-03 0.00000E+00 2.52841E-02
      380  0.00000E+00 1.57303E-06-1.15897E-04 0.00000E+00 0.00000E+00 0.00000E+00 0.00000E+00 0.00000E+00 0.00000E+00 3.49900E-19 5.71657E-03 2.52841E-02
      608 -1.77349E-07 0.00000E+00-1.15897E-04 0.00000E+00 0.00000E+00 0.00000E+00 0.00000E+00 0.00000E+00 0.00000E+00 1.26998E-02 0.00000E+00 2.52841E-02
      609  1.51530E-07 0.00000E+00-1.15897E-04 0.00000E+00 0.00000E+00 0.00000E+00 0.00000E+00 0.00000E+00 0.00000E+00 1.09540E-02 0.00000E+00 2.52841E-02
      610  2.34692E-07 0.00000E+00-1.15897E-04 0.00000E+00 0.00000E+00 0.00000E+00 0.00000E+00 0.00000E+00 0.00000E+00 9.20773E-03 0.00000E+00 2.52841E-02
      611  3.49697E-07 0.00000E+00-1.15897E-04 0.00000E+00 0.00000E+00 0.00000E+00 0.00000E+00 0.00000E+00 0.00000E+00 7.46165E-03 0.00000E+00 2.52841E-02
      804  3.78543E-07 1.44829E-06-1.15897E-04 0.00000E+00 0.00000E+00 0.00000E+00 0.00000E+00 0.00000E+00 0.00000E+00 6.90238E-03 2.83545E-03 2.52841E-02
      806  5.89487E-07 1.35613E-06-1.15897E-04 0.00000E+00 0.00000E+00 0.00000E+00 0.00000E+00 0.00000E+00 0.00000E+00 5.27859E-03 5.27516E-03 2.52841E-02
      808  3.51399E-07 1.13124E-06-1.15897E-04 0.00000E+00 0.00000E+00 0.00000E+00 0.00000E+00 0.00000E+00 0.00000E+00 2.83805E-03 6.90163E-03 2.52841E-02
      810  0.00000E+00 1.96555E-06-1.15897E-04 0.00000E+00 0.00000E+00 0.00000E+00 0.00000E+00 0.00000E+00 0.00000E+00 4.56900E-19 7.46327E-03 2.52841E-02
      852  4.96789E-07 1.58549E-06-1.15897E-04 0.00000E+00 0.00000E+00 0.00000E+00 0.00000E+00 0.00000E+00 0.00000E+00 8.52450E-03 3.48269E-03 2.52841E-02
      854  7.85999E-07 1.44670E-06-1.15897E-04 0.00000E+00 0.00000E+00 0.00000E+00 0.00000E+00 0.00000E+00 0.00000E+00 6.51579E-03 6.50785E-03 2.52841E-02
      856  5.22150E-07 1.39307E-06-1.15897E-04 0.00000E+00 0.00000E+00 0.00000E+00 0.00000E+00 0.00000E+00 0.00000E+00 3.48922E-03 8.52239E-03 2.52841E-02
      858  0.00000E+00 2.32623E-06-1.15897E-04 0.00000E+00 0.00000E+00 0.00000E+00 0.00000E+00 0.00000E+00 0.00000E+00 5.63800E-19 9.20983E-03 2.52841E-02
      864  6.08569E-07 1.67949E-06-1.15897E-04 0.00000E+00 0.00000E+00 0.00000E+00 0.00000E+00 0.00000E+00 0.00000E+00 1.01467E-02 4.12978E-03 2.52841E-02
      866  1.06797E-06 1.51074E-06-1.15897E-04 0.00000E+00 0.00000E+00 0.00000E+00 0.00000E+00 0.00000E+00 0.00000E+00 7.75297E-03 7.74051E-03 2.52841E-02
      868  5.72681E-07 1.65383E-06-1.15897E-04 0.00000E+00 0.00000E+00 0.00000E+00 0.00000E+00 0.00000E+00 0.00000E+00 4.14027E-03 1.01431E-02 2.52841E-02
      870  0.00000E+00 2.67482E-06-1.15897E-04 0.00000E+00 0.00000E+00 0.00000E+00 0.00000E+00 0.00000E+00 0.00000E+00 6.70700E-19 1.09565E-02 2.52841E-02
      880  3.53350E-07 1.43457E-06-1.15897E-04 0.00000E+00 0.00000E+00 0.00000E+00 0.00000E+00 0.00000E+00 0.00000E+00 1.17685E-02 4.77663E-03 2.52841E-02
      882  8.79947E-07 1.53546E-06-1.15897E-04 0.00000E+00 0.00000E+00 0.00000E+00 0.00000E+00 0.00000E+00 0.00000E+00 8.98978E-03 8.97314E-03 2.52841E-02
      884  8.99680E-07 2.49764E-06-1.15897E-04 0.00000E+00 0.00000E+00 0.00000E+00 0.00000E+00 0.00000E+00 0.00000E+00 4.79160E-03 1.17643E-02 2.52841E-02
      886  0.00000E+00 3.29753E-06-1.15897E-04 0.00000E+00 0.00000E+00 0.00000E+00 0.00000E+00 0.00000E+00 0.00000E+00 7.77700E-19 1.27033E-02 2.52841E-02



 n o d a l   p r i n t   o u t   f o r   t i m e  s t e p     111                              ( at time 7.7854047E+00 )

 nodal point  x-disp     y-disp      z-disp      x-vel       y-vel       z-vel      x-accl      y-accl      z-accl      x-coor      y-coor      z-coor
        1  8.08425E-05 0.00000E+00 0.00000E+00 0.00000E+00 0.00000E+00 0.00000E+00 0.00000E+00 0.00000E+00 0.00000E+00 3.25584E-03 0.00000E+00-1.78000E-18
        2  5.29618E-05 0.00000E+00 0.00000E+00 0.00000E+00 0.00000E+00 0.00000E+00 0.00000E+00 0.00000E+00 0.00000E+00 2.43426E-03 0.00000E+00 0.00000E+00
        3  3.20927E-05 0.00000E+00 0.00000E+00 0.00000E+00 0.00000E+00 0.00000E+00 0.00000E+00 0.00000E+00 0.00000E+00 1.61959E-03 0.00000E+00 0.00000E+00
        4  1.57650E-05 0.00000E+00 0.00000E+00 0.00000E+00 0.00000E+00 0.00000E+00 0.00000E+00 0.00000E+00 0.00000E+00 8.09515E-04 0.00000E+00 0.00000E+00
        5  0.00000E+00 0.00000E+00 0.00000E+00 0.00000E+00 0.00000E+00 0.00000E+00 0.00000E+00 0.00000E+00 0.00000E+00 0.00000E+00 0.00000E+00 0.00000E+00
        6  0.00000E+00 1.74599E-05 0.00000E+00 0.00000E+00 0.00000E+00 0.00000E+00 0.00000E+00 0.00000E+00 0.00000E+00 4.86000E-20 8.11210E-04 0.00000E+00
        7  0.00000E+00 3.64851E-05 0.00000E+00 0.00000E+00 0.00000E+00 0.00000E+00 0.00000E+00 0.00000E+00 0.00000E+00 9.72100E-20 1.62399E-03 0.00000E+00
        8  0.00000E+00 5.93770E-05 0.00000E+00 0.00000E+00 0.00000E+00 0.00000E+00 0.00000E+00 0.00000E+00 0.00000E+00 1.45800E-19 2.44068E-03 0.00000E+00
        9  0.00000E+00 8.55014E-05 0.00000E+00 0.00000E+00 0.00000E+00 0.00000E+00 0.00000E+00 0.00000E+00 0.00000E+00 1.94400E-19 3.26050E-03 0.00000E+00
       10  3.63541E-05 8.38184E-05 0.00000E+00 0.00000E+00 0.00000E+00 0.00000E+00 0.00000E+00 0.00000E+00 0.00000E+00 1.25135E-03 3.01712E-03 0.00000E+00
       11  6.61630E-05 6.95699E-05 0.00000E+00 0.00000E+00 0.00000E+00 0.00000E+00 0.00000E+00 0.00000E+00 0.00000E+00 2.31126E-03 2.31467E-03 0.00000E+00
       12  8.42182E-05 4.20056E-05 0.00000E+00 0.00000E+00 0.00000E+00 0.00000E+00 0.00000E+00 0.00000E+00 0.00000E+00 3.01752E-03 1.25701E-03 0.00000E+00
       13  4.31151E-05 4.24293E-05 0.00000E+00 0.00000E+00 0.00000E+00 0.00000E+00 0.00000E+00 0.00000E+00 0.00000E+00 1.35142E-03 1.39433E-03 0.00000E+00
       14  4.55525E-05 2.37177E-05 0.00000E+00 0.00000E+00 0.00000E+00 0.00000E+00 0.00000E+00 0.00000E+00 0.00000E+00 1.53385E-03 7.30695E-04 0.00000E+00
       15  2.18409E-05 4.09700E-05 0.00000E+00 0.00000E+00 0.00000E+00 0.00000E+00 0.00000E+00 0.00000E+00 0.00000E+00 6.91351E-04 1.54797E-03 0.00000E+00
       16  2.23915E-05 2.08879E-05 0.00000E+00 0.00000E+00 0.00000E+00 0.00000E+00 0.00000E+00 0.00000E+00 0.00000E+00 7.76029E-04 8.03225E-04 0.00000E+00
       17  5.56506E-05 5.39254E-05 0.00000E+00 0.00000E+00 0.00000E+00 0.00000E+00 0.00000E+00 0.00000E+00 0.00000E+00 1.79195E-03 1.82143E-03 0.00000E+00
       18  2.98188E-05 6.05922E-05 0.00000E+00 0.00000E+00 0.00000E+00 0.00000E+00 0.00000E+00 0.00000E+00 0.00000E+00 9.49950E-04 2.25169E-03 0.00000E+00
       19  6.52909E-05 3.07274E-05 0.00000E+00 0.00000E+00 0.00000E+00 0.00000E+00 0.00000E+00 0.00000E+00 0.00000E+00 2.22859E-03 9.81586E-04 0.00000E+00
      167  2.76981E-07 1.27560E-06-1.55708E-04 0.00000E+00 0.00000E+00 0.00000E+00 0.00000E+00 0.00000E+00 0.00000E+00 3.12498E-03 3.18198E-03 2.52443E-02
      168  2.98726E-07 7.51924E-07-1.55708E-04 0.00000E+00 0.00000E+00 0.00000E+00 0.00000E+00 0.00000E+00 0.00000E+00 2.35460E-03 2.43345E-03 2.52443E-02
      169 -3.08562E-07 1.67218E-06-1.55708E-04 0.00000E+00 0.00000E+00 0.00000E+00 0.00000E+00 0.00000E+00 0.00000E+00 2.67769E-03 1.27367E-03 2.52443E-02
      170 -3.80117E-07 1.36641E-06-1.55708E-04 0.00000E+00 0.00000E+00 0.00000E+00 0.00000E+00 0.00000E+00 0.00000E+00 3.89242E-03 1.71227E-03 2.52443E-02
      197  1.65416E-07 1.01400E-06-1.55708E-04 0.00000E+00 0.00000E+00 0.00000E+00 0.00000E+00 0.00000E+00 0.00000E+00 1.20477E-03 2.71261E-03 2.52443E-02
      198  7.64744E-08 7.56924E-07-1.55708E-04 0.00000E+00 0.00000E+00 0.00000E+00 0.00000E+00 0.00000E+00 0.00000E+00 1.65568E-03 3.94356E-03 2.52443E-02
      225  3.24191E-06 0.00000E+00-1.55708E-04 0.00000E+00 0.00000E+00 0.00000E+00 0.00000E+00 0.00000E+00 0.00000E+00 2.86074E-03 0.00000E+00 2.52443E-02
      226  1.76788E-06 0.00000E+00-1.55708E-04 0.00000E+00 0.00000E+00 0.00000E+00 0.00000E+00 0.00000E+00 0.00000E+00 4.28807E-03 0.00000E+00 2.52443E-02
      279  3.37151E-06 0.00000E+00-1.55708E-04 0.00000E+00 0.00000E+00 0.00000E+00 0.00000E+00 0.00000E+00 0.00000E+00 1.43217E-03 0.00000E+00 2.52443E-02
      280  1.00678E-07 1.30499E-06-1.55708E-04 0.00000E+00 0.00000E+00 0.00000E+00 0.00000E+00 0.00000E+00 0.00000E+00 1.35630E-03 1.40910E-03 2.52443E-02
      281  0.00000E+00 1.99242E-06-1.55708E-04 0.00000E+00 0.00000E+00 0.00000E+00 0.00000E+00 0.00000E+00 0.00000E+00 8.74900E-20 1.43079E-03 2.52443E-02
      282  0.00000E+00 0.00000E+00-1.55708E-04 0.00000E+00 0.00000E+00 0.00000E+00 0.00000E+00 0.00000E+00 0.00000E+00 0.00000E+00 0.00000E+00 2.52443E-02
      296  0.00000E+00 1.78960E-06-1.55708E-04 0.00000E+00 0.00000E+00 0.00000E+00 0.00000E+00 0.00000E+00 0.00000E+00 1.75000E-19 2.85929E-03 2.52443E-02
      323  3.53815E-07 1.26210E-06-1.55708E-04 0.00000E+00 0.00000E+00 0.00000E+00 0.00000E+00 0.00000E+00 0.00000E+00 4.04145E-03 4.04246E-03 2.52443E-02
      324  1.63702E-07 9.19462E-07-1.55708E-04 0.00000E+00 0.00000E+00 0.00000E+00 0.00000E+00 0.00000E+00 0.00000E+00 2.18686E-03 5.28102E-03 2.52443E-02
      338  2.65619E-07 1.47516E-06-1.55708E-04 0.00000E+00 0.00000E+00 0.00000E+00 0.00000E+00 0.00000E+00 0.00000E+00 5.28027E-03 2.18838E-03 2.52443E-02
      352  0.00000E+00 2.13330E-06-1.55708E-04 0.00000E+00 0.00000E+00 0.00000E+00 0.00000E+00 0.00000E+00 0.00000E+00 2.62500E-19 4.28843E-03 2.52443E-02
      366  7.83385E-07 0.00000E+00-1.55708E-04 0.00000E+00 0.00000E+00 0.00000E+00 0.00000E+00 0.00000E+00 0.00000E+00 5.71578E-03 0.00000E+00 2.52443E-02
      380  0.00000E+00 1.85139E-06-1.55708E-04 0.00000E+00 0.00000E+00 0.00000E+00 0.00000E+00 0.00000E+00 0.00000E+00 3.49900E-19 5.71685E-03 2.52443E-02
      608 -2.27364E-07 0.00000E+00-1.55708E-04 0.00000E+00 0.00000E+00 0.00000E+00 0.00000E+00 0.00000E+00 0.00000E+00 1.26998E-02 0.00000E+00 2.52443E-02
      609  1.33711E-07 0.00000E+00-1.55708E-04 0.00000E+00 0.00000E+00 0.00000E+00 0.00000E+00 0.00000E+00 0.00000E+00 1.09539E-02 0.00000E+00 2.52443E-02
      610  2.24018E-07 0.00000E+00-1.55708E-04 0.00000E+00 0.00000E+00 0.00000E+00 0.00000E+00 0.00000E+00 0.00000E+00 9.20772E-03 0.00000E+00 2.52443E-02
      611  3.32114E-07 0.00000E+00-1.55708E-04 0.00000E+00 0.00000E+00 0.00000E+00 0.00000E+00 0.00000E+00 0.00000E+00 7.46163E-03 0.00000E+00 2.52443E-02
      804  4.17182E-07 1.52824E-06-1.55708E-04 0.00000E+00 0.00000E+00 0.00000E+00 0.00000E+00 0.00000E+00 0.00000E+00 6.90242E-03 2.83553E-03 2.52443E-02
      806  6.39431E-07 1.43641E-06-1.55708E-04 0.00000E+00 0.00000E+00 0.00000E+00 0.00000E+00 0.00000E+00 0.00000E+00 5.27864E-03 5.27524E-03 2.52443E-02
      808  3.82973E-07 1.23795E-06-1.55708E-04 0.00000E+00 0.00000E+00 0.00000E+00 0.00000E+00 0.00000E+00 0.00000E+00 2.83808E-03 6.90174E-03 2.52443E-02
      810  0.00000E+00 2.21778E-06-1.55708E-04 0.00000E+00 0.00000E+00 0.00000E+00 0.00000E+00 0.00000E+00 0.00000E+00 4.56900E-19 7.46352E-03 2.52443E-02
      852  5.37128E-07 1.67032E-06-1.55708E-04 0.00000E+00 0.00000E+00 0.00000E+00 0.00000E+00 0.00000E+00 0.00000E+00 8.52454E-03 3.48277E-03 2.52443E-02
      854  8.48580E-07 1.52639E-06-1.55708E-04 0.00000E+00 0.00000E+00 0.00000E+00 0.00000E+00 0.00000E+00 0.00000E+00 6.51585E-03 6.50793E-03 2.52443E-02
      856  5.59955E-07 1.51600E-06-1.55708E-04 0.00000E+00 0.00000E+00 0.00000E+00 0.00000E+00 0.00000E+00 0.00000E+00 3.48926E-03 8.52252E-03 2.52443E-02
      858  0.00000E+00 2.56726E-06-1.55708E-04 0.00000E+00 0.00000E+00 0.00000E+00 0.00000E+00 0.00000E+00 0.00000E+00 5.63800E-19 9.21007E-03 2.52443E-02
      864  6.52920E-07 1.76461E-06-1.55708E-04 0.00000E+00 0.00000E+00 0.00000E+00 0.00000E+00 0.00000E+00 0.00000E+00 1.01468E-02 4.12986E-03 2.52443E-02
      866  1.14541E-06 1.56942E-06-1.55708E-04 0.00000E+00 0.00000E+00 0.00000E+00 0.00000E+00 0.00000E+00 0.00000E+00 7.75305E-03 7.74057E-03 2.52443E-02
      868  6.02274E-07 1.75813E-06-1.55708E-04 0.00000E+00 0.00000E+00 0.00000E+00 0.00000E+00 0.00000E+00 0.00000E+00 4.14030E-03 1.01432E-02 2.52443E-02
      870  0.00000E+00 2.92234E-06-1.55708E-04 0.00000E+00 0.00000E+00 0.00000E+00 0.00000E+00 0.00000E+00 0.00000E+00 6.70700E-19 1.09567E-02 2.52443E-02
      880  3.89532E-07 1.47591E-06-1.55708E-04 0.00000E+00 0.00000E+00 0.00000E+00 0.00000E+00 0.00000E+00 0.00000E+00 1.17685E-02 4.77668E-03 2.52443E-02
      882  9.19531E-07 1.63473E-06-1.55708E-04 0.00000E+00 0.00000E+00 0.00000E+00 0.00000E+00 0.00000E+00 0.00000E+00 8.98982E-03 8.97323E-03 2.52443E-02
      884  9.83359E-07 2.56828E-06-1.55708E-04 0.00000E+00 0.00000E+00 0.00000E+00 0.00000E+00 0.00000E+00 0.00000E+00 4.79168E-03 1.17644E-02 2.52443E-02
      886  0.00000E+00 3.48010E-06-1.55708E-04 0.00000E+00 0.00000E+00 0.00000E+00 0.00000E+00 0.00000E+00 0.00000E+00 7.77700E-19 1.27035E-02 2.52443E-02



 n o d a l   p r i n t   o u t   f o r   t i m e  s t e p     120                              ( at time 9.7759406E+00 )

 nodal point  x-disp     y-disp      z-disp      x-vel       y-vel       z-vel      x-accl      y-accl      z-accl      x-coor      y-coor      z-coor
        1  1.12707E-04 0.00000E+00 0.00000E+00 0.00000E+00 0.00000E+00 0.00000E+00 0.00000E+00 0.00000E+00 0.00000E+00 3.28771E-03 0.00000E+00-1.78000E-18
        2  7.45079E-05 0.00000E+00 0.00000E+00 0.00000E+00 0.00000E+00 0.00000E+00 0.00000E+00 0.00000E+00 0.00000E+00 2.45581E-03 0.00000E+00 0.00000E+00
        3  4.60543E-05 0.00000E+00 0.00000E+00 0.00000E+00 0.00000E+00 0.00000E+00 0.00000E+00 0.00000E+00 0.00000E+00 1.63355E-03 0.00000E+00 0.00000E+00
        4  2.29959E-05 0.00000E+00 0.00000E+00 0.00000E+00 0.00000E+00 0.00000E+00 0.00000E+00 0.00000E+00 0.00000E+00 8.16746E-04 0.00000E+00 0.00000E+00
        5  0.00000E+00 0.00000E+00 0.00000E+00 0.00000E+00 0.00000E+00 0.00000E+00 0.00000E+00 0.00000E+00 0.00000E+00 0.00000E+00 0.00000E+00 0.00000E+00
        6  0.00000E+00 2.36481E-05 0.00000E+00 0.00000E+00 0.00000E+00 0.00000E+00 0.00000E+00 0.00000E+00 0.00000E+00 4.86000E-20 8.17398E-04 0.00000E+00
        7  0.00000E+00 5.23423E-05 0.00000E+00 0.00000E+00 0.00000E+00 0.00000E+00 0.00000E+00 0.00000E+00 0.00000E+00 9.72100E-20 1.63984E-03 0.00000E+00
        8  0.00000E+00 8.12368E-05 0.00000E+00 0.00000E+00 0.00000E+00 0.00000E+00 0.00000E+00 0.00000E+00 0.00000E+00 1.45800E-19 2.46254E-03 0.00000E+00
        9  0.00000E+00 1.13669E-04 0.00000E+00 0.00000E+00 0.00000E+00 0.00000E+00 0.00000E+00 0.00000E+00 0.00000E+00 1.94400E-19 3.28867E-03 0.00000E+00
       10  4.72095E-05 1.11084E-04 0.00000E+00 0.00000E+00 0.00000E+00 0.00000E+00 0.00000E+00 0.00000E+00 0.00000E+00 1.26221E-03 3.04438E-03 0.00000E+00
       11  8.61997E-05 9.17934E-05 0.00000E+00 0.00000E+00 0.00000E+00 0.00000E+00 0.00000E+00 0.00000E+00 0.00000E+00 2.33130E-03 2.33689E-03 0.00000E+00
       12  1.11641E-04 5.57396E-05 0.00000E+00 0.00000E+00 0.00000E+00 0.00000E+00 0.00000E+00 0.00000E+00 0.00000E+00 3.04494E-03 1.27074E-03 0.00000E+00
       13  5.77994E-05 5.86298E-05 0.00000E+00 0.00000E+00 0.00000E+00 0.00000E+00 0.00000E+00 0.00000E+00 0.00000E+00 1.36610E-03 1.41053E-03 0.00000E+00
       14  6.05025E-05 2.96580E-05 0.00000E+00 0.00000E+00 0.00000E+00 0.00000E+00 0.00000E+00 0.00000E+00 0.00000E+00 1.54880E-03 7.36635E-04 0.00000E+00
       15  2.93091E-05 5.69062E-05 0.00000E+00 0.00000E+00 0.00000E+00 0.00000E+00 0.00000E+00 0.00000E+00 0.00000E+00 6.98819E-04 1.56391E-03 0.00000E+00
       16  2.98604E-05 2.85456E-05 0.00000E+00 0.00000E+00 0.00000E+00 0.00000E+00 0.00000E+00 0.00000E+00 0.00000E+00 7.83498E-04 8.10883E-04 0.00000E+00
       17  7.33491E-05 7.25540E-05 0.00000E+00 0.00000E+00 0.00000E+00 0.00000E+00 0.00000E+00 0.00000E+00 0.00000E+00 1.80965E-03 1.84005E-03 0.00000E+00
       18  3.91534E-05 8.25297E-05 0.00000E+00 0.00000E+00 0.00000E+00 0.00000E+00 0.00000E+00 0.00000E+00 0.00000E+00 9.59284E-04 2.27363E-03 0.00000E+00
       19  8.58877E-05 4.09298E-05 0.00000E+00 0.00000E+00 0.00000E+00 0.00000E+00 0.00000E+00 0.00000E+00 0.00000E+00 2.24919E-03 9.91788E-04 0.00000E+00
      167  3.24731E-07 1.27659E-06-1.95519E-04 0.00000E+00 0.00000E+00 0.00000E+00 0.00000E+00 0.00000E+00 0.00000E+00 3.12502E-03 3.18198E-03 2.52045E-02
      168  3.39084E-07 7.11756E-07-1.95519E-04 0.00000E+00 0.00000E+00 0.00000E+00 0.00000E+00 0.00000E+00 0.00000E+00 2.35464E-03 2.43341E-03 2.52045E-02
      169 -2.52402E-07 1.56760E-06-1.95519E-04 0.00000E+00 0.00000E+00 0.00000E+00 0.00000E+00 0.00000E+00 0.00000E+00 2.67775E-03 1.27357E-03 2.52045E-02
      170 -3.40280E-07 1.31648E-06-1.95519E-04 0.00000E+00 0.00000E+00 0.00000E+00 0.00000E+00 0.00000E+00 0.00000E+00 3.89246E-03 1.71222E-03 2.52045E-02
      197  1.94714E-07 1.06292E-06-1.95519E-04 0.00000E+00 0.00000E+00 0.00000E+00 0.00000E+00 0.00000E+00 0.00000E+00 1.20479E-03 2.71266E-03 2.52045E-02
      198  1.12461E-07 8.29473E-07-1.95519E-04 0.00000E+00 0.00000E+00 0.00000E+00 0.00000E+00 0.00000E+00 0.00000E+00 1.65571E-03 3.94363E-03 2.52045E-02
      225  3.00941E-06 0.00000E+00-1.95519E-04 0.00000E+00 0.00000E+00 0.00000E+00 0.00000E+00 0.00000E+00 0.00000E+00 2.86051E-03 0.00000E+00 2.52045E-02
      226  1.63357E-06 0.00000E+00-1.95519E-04 0.00000E+00 0.00000E+00 0.00000E+00 0.00000E+00 0.00000E+00 0.00000E+00 4.28793E-03 0.00000E+00 2.52045E-02
      279  3.22346E-06 0.00000E+00-1.95519E-04 0.00000E+00 0.00000E+00 0.00000E+00 0.00000E+00 0.00000E+00 0.00000E+00 1.43202E-03 0.00000E+00 2.52045E-02
      280  1.42752E-07 1.05728E-06-1.95519E-04 0.00000E+00 0.00000E+00 0.00000E+00 0.00000E+00 0.00000E+00 0.00000E+00 1.35634E-03 1.40886E-03 2.52045E-02
      281  0.00000E+00 2.08869E-06-1.95519E-04 0.00000E+00 0.00000E+00 0.00000E+00 0.00000E+00 0.00000E+00 0.00000E+00 8.74900E-20 1.43089E-03 2.52045E-02
      282  0.00000E+00 0.00000E+00-1.95519E-04 0.00000E+00 0.00000E+00 0.00000E+00 0.00000E+00 0.00000E+00 0.00000E+00 0.00000E+00 0.00000E+00 2.52045E-02
      296  0.00000E+00 2.08196E-06-1.95519E-04 0.00000E+00 0.00000E+00 0.00000E+00 0.00000E+00 0.00000E+00 0.00000E+00 1.75000E-19 2.85958E-03 2.52045E-02
      323  3.90130E-07 1.26807E-06-1.95519E-04 0.00000E+00 0.00000E+00 0.00000E+00 0.00000E+00 0.00000E+00 0.00000E+00 4.04149E-03 4.04247E-03 2.52045E-02
      324  2.09732E-07 9.86263E-07-1.95519E-04 0.00000E+00 0.00000E+00 0.00000E+00 0.00000E+00 0.00000E+00 0.00000E+00 2.18691E-03 5.28109E-03 2.52045E-02
      338  2.90951E-07 1.46802E-06-1.95519E-04 0.00000E+00 0.00000E+00 0.00000E+00 0.00000E+00 0.00000E+00 0.00000E+00 5.28029E-03 2.18837E-03 2.52045E-02
      352  0.00000E+00 2.34657E-06-1.95519E-04 0.00000E+00 0.00000E+00 0.00000E+00 0.00000E+00 0.00000E+00 0.00000E+00 2.62500E-19 4.28865E-03 2.52045E-02
      366  7.47618E-07 0.00000E+00-1.95519E-04 0.00000E+00 0.00000E+00 0.00000E+00 0.00000E+00 0.00000E+00 0.00000E+00 5.71575E-03 0.00000E+00 2.52045E-02
      380  0.00000E+00 2.10100E-06-1.95519E-04 0.00000E+00 0.00000E+00 0.00000E+00 0.00000E+00 0.00000E+00 0.00000E+00 3.49900E-19 5.71710E-03 2.52045E-02
      608 -1.60425E-07 0.00000E+00-1.95519E-04 0.00000E+00 0.00000E+00 0.00000E+00 0.00000E+00 0.00000E+00 0.00000E+00 1.26998E-02 0.00000E+00 2.52045E-02
      609  1.84895E-07 0.00000E+00-1.95519E-04 0.00000E+00 0.00000E+00 0.00000E+00 0.00000E+00 0.00000E+00 0.00000E+00 1.09540E-02 0.00000E+00 2.52045E-02
      610  2.47694E-07 0.00000E+00-1.95519E-04 0.00000E+00 0.00000E+00 0.00000E+00 0.00000E+00 0.00000E+00 0.00000E+00 9.20775E-03 0.00000E+00 2.52045E-02
      611  3.34335E-07 0.00000E+00-1.95519E-04 0.00000E+00 0.00000E+00 0.00000E+00 0.00000E+00 0.00000E+00 0.00000E+00 7.46163E-03 0.00000E+00 2.52045E-02
      804  4.59291E-07 1.53097E-06-1.95519E-04 0.00000E+00 0.00000E+00 0.00000E+00 0.00000E+00 0.00000E+00 0.00000E+00 6.90246E-03 2.83553E-03 2.52045E-02
      806  6.75019E-07 1.45292E-06-1.95519E-04 0.00000E+00 0.00000E+00 0.00000E+00 0.00000E+00 0.00000E+00 0.00000E+00 5.27868E-03 5.27525E-03 2.52045E-02
      808  4.06040E-07 1.30397E-06-1.95519E-04 0.00000E+00 0.00000E+00 0.00000E+00 0.00000E+00 0.00000E+00 0.00000E+00 2.83811E-03 6.90180E-03 2.52045E-02
      810  0.00000E+00 2.38455E-06-1.95519E-04 0.00000E+00 0.00000E+00 0.00000E+00 0.00000E+00 0.00000E+00 0.00000E+00 4.56900E-19 7.46368E-03 2.52045E-02
      852  5.94859E-07 1.66869E-06-1.95519E-04 0.00000E+00 0.00000E+00 0.00000E+00 0.00000E+00 0.00000E+00 0.00000E+00 8.52459E-03 3.48277E-03 2.52045E-02
      854  8.95068E-07 1.53259E-06-1.95519E-04 0.00000E+00 0.00000E+00 0.00000E+00 0.00000E+00 0.00000E+00 0.00000E+00 6.51590E-03 6.50793E-03 2.52045E-02
      856  5.84352E-07 1.56133E-06-1.95519E-04 0.00000E+00 0.00000E+00 0.00000E+00 0.00000E+00 0.00000E+00 0.00000E+00 3.48928E-03 8.52256E-03 2.52045E-02
      858  0.00000E+00 2.68405E-06-1.95519E-04 0.00000E+00 0.00000E+00 0.00000E+00 0.00000E+00 0.00000E+00 0.00000E+00 5.63800E-19 9.21018E-03 2.52045E-02
      864  7.21272E-07 1.76944E-06-1.95519E-04 0.00000E+00 0.00000E+00 0.00000E+00 0.00000E+00 0.00000E+00 0.00000E+00 1.01468E-02 4.12987E-03 2.52045E-02
      866  1.20441E-06 1.56993E-06-1.95519E-04 0.00000E+00 0.00000E+00 0.00000E+00 0.00000E+00 0.00000E+00 0.00000E+00 7.75310E-03 7.74057E-03 2.52045E-02
      868  6.22012E-07 1.80538E-06-1.95519E-04 0.00000E+00 0.00000E+00 0.00000E+00 0.00000E+00 0.00000E+00 0.00000E+00 4.14032E-03 1.01432E-02 2.52045E-02
      870  0.00000E+00 3.01357E-06-1.95519E-04 0.00000E+00 0.00000E+00 0.00000E+00 0.00000E+00 0.00000E+00 0.00000E+00 6.70700E-19 1.09568E-02 2.52045E-02
      880  4.63271E-07 1.47539E-06-1.95519E-04 0.00000E+00 0.00000E+00 0.00000E+00 0.00000E+00 0.00000E+00 0.00000E+00 1.17686E-02 4.77668E-03 2.52045E-02
      882  9.79036E-07 1.66276E-06-1.95519E-04 0.00000E+00 0.00000E+00 0.00000E+00 0.00000E+00 0.00000E+00 0.00000E+00 8.98988E-03 8.97326E-03 2.52045E-02
      884  1.02504E-06 2.63030E-06-1.95519E-04 0.00000E+00 0.00000E+00 0.00000E+00 0.00000E+00 0.00000E+00 0.00000E+00 4.79173E-03 1.17644E-02 2.52045E-02
      886  0.00000E+00 3.55793E-06-1.95519E-04 0.00000E+00 0.00000E+00 0.00000E+00 0.00000E+00 0.00000E+00 0.00000E+00 7.77700E-19 1.27036E-02 2.52045E-02



 n o d a l   p r i n t   o u t   f o r   t i m e  s t e p     128                              ( at time 1.1766476E+01 )

 nodal point  x-disp     y-disp      z-disp      x-vel       y-vel       z-vel      x-accl      y-accl      z-accl      x-coor      y-coor      z-coor
        1  1.46968E-04 0.00000E+00 0.00000E+00 0.00000E+00 0.00000E+00 0.00000E+00 0.00000E+00 0.00000E+00 0.00000E+00 3.32197E-03 0.00000E+00-1.78000E-18
        2  9.90633E-05 0.00000E+00 0.00000E+00 0.00000E+00 0.00000E+00 0.00000E+00 0.00000E+00 0.00000E+00 0.00000E+00 2.48036E-03 0.00000E+00 0.00000E+00
        3  6.23844E-05 0.00000E+00 0.00000E+00 0.00000E+00 0.00000E+00 0.00000E+00 0.00000E+00 0.00000E+00 0.00000E+00 1.64988E-03 0.00000E+00 0.00000E+00
        4  2.99402E-05 0.00000E+00 0.00000E+00 0.00000E+00 0.00000E+00 0.00000E+00 0.00000E+00 0.00000E+00 0.00000E+00 8.23690E-04 0.00000E+00 0.00000E+00
        5  0.00000E+00 0.00000E+00 0.00000E+00 0.00000E+00 0.00000E+00 0.00000E+00 0.00000E+00 0.00000E+00 0.00000E+00 0.00000E+00 0.00000E+00 0.00000E+00
        6  0.00000E+00 3.08745E-05 0.00000E+00 0.00000E+00 0.00000E+00 0.00000E+00 0.00000E+00 0.00000E+00 0.00000E+00 4.86000E-20 8.24625E-04 0.00000E+00
        7  0.00000E+00 6.77831E-05 0.00000E+00 0.00000E+00 0.00000E+00 0.00000E+00 0.00000E+00 0.00000E+00 0.00000E+00 9.72100E-20 1.65528E-03 0.00000E+00
        8  0.00000E+00 1.06008E-04 0.00000E+00 0.00000E+00 0.00000E+00 0.00000E+00 0.00000E+00 0.00000E+00 0.00000E+00 1.45800E-19 2.48731E-03 0.00000E+00
        9  0.00000E+00 1.44023E-04 0.00000E+00 0.00000E+00 0.00000E+00 0.00000E+00 0.00000E+00 0.00000E+00 0.00000E+00 1.94400E-19 3.31902E-03 0.00000E+00
       10  5.98068E-05 1.40186E-04 0.00000E+00 0.00000E+00 0.00000E+00 0.00000E+00 0.00000E+00 0.00000E+00 0.00000E+00 1.27481E-03 3.07349E-03 0.00000E+00
       11  1.09473E-04 1.15163E-04 0.00000E+00 0.00000E+00 0.00000E+00 0.00000E+00 0.00000E+00 0.00000E+00 0.00000E+00 2.35457E-03 2.36026E-03 0.00000E+00
       12  1.40287E-04 6.80185E-05 0.00000E+00 0.00000E+00 0.00000E+00 0.00000E+00 0.00000E+00 0.00000E+00 0.00000E+00 3.07359E-03 1.28302E-03 0.00000E+00
       13  7.44710E-05 7.43335E-05 0.00000E+00 0.00000E+00 0.00000E+00 0.00000E+00 0.00000E+00 0.00000E+00 0.00000E+00 1.38277E-03 1.42623E-03 0.00000E+00
       14  7.80243E-05 3.81079E-05 0.00000E+00 0.00000E+00 0.00000E+00 0.00000E+00 0.00000E+00 0.00000E+00 0.00000E+00 1.56632E-03 7.45085E-04 0.00000E+00
       15  3.81328E-05 7.53058E-05 0.00000E+00 0.00000E+00 0.00000E+00 0.00000E+00 0.00000E+00 0.00000E+00 0.00000E+00 7.07643E-04 1.58231E-03 0.00000E+00
       16  3.83622E-05 3.49256E-05 0.00000E+00 0.00000E+00 0.00000E+00 0.00000E+00 0.00000E+00 0.00000E+00 0.00000E+00 7.92000E-04 8.17263E-04 0.00000E+00
       17  9.34166E-05 9.17689E-05 0.00000E+00 0.00000E+00 0.00000E+00 0.00000E+00 0.00000E+00 0.00000E+00 0.00000E+00 1.82972E-03 1.85927E-03 0.00000E+00
       18  5.07759E-05 1.07184E-04 0.00000E+00 0.00000E+00 0.00000E+00 0.00000E+00 0.00000E+00 0.00000E+00 0.00000E+00 9.70907E-04 2.29828E-03 0.00000E+00
       19  1.09317E-04 5.20201E-05 0.00000E+00 0.00000E+00 0.00000E+00 0.00000E+00 0.00000E+00 0.00000E+00 0.00000E+00 2.27262E-03 1.00288E-03 0.00000E+00
      167  3.34748E-07 1.24273E-06-2.35330E-04 0.00000E+00 0.00000E+00 0.00000E+00 0.00000E+00 0.00000E+00 0.00000E+00 3.12503E-03 3.18194E-03 2.51647E-02
      168  3.02707E-07 6.52670E-07-2.35330E-04 0.00000E+00 0.00000E+00 0.00000E+00 0.00000E+00 0.00000E+00 0.00000E+00 2.35460E-03 2.43335E-03 2.51647E-02
      169 -2.54430E-07 1.47286E-06-2.35330E-04 0.00000E+00 0.00000E+00 0.00000E+00 0.00000E+00 0.00000E+00 0.00000E+00 2.67775E-03 1.27347E-03 2.51647E-02
      170 -3.76183E-07 1.21372E-06-2.35330E-04 0.00000E+00 0.00000E+00 0.00000E+00 0.00000E+00 0.00000E+00 0.00000E+00 3.89242E-03 1.71211E-03 2.51647E-02
      197  1.88623E-07 9.73361E-07-2.35330E-04 0.00000E+00 0.00000E+00 0.00000E+00 0.00000E+00 0.00000E+00 0.00000E+00 1.20479E-03 2.71257E-03 2.51647E-02
      198  1.03138E-07 7.51832E-07-2.35330E-04 0.00000E+00 0.00000E+00 0.00000E+00 0.00000E+00 0.00000E+00 0.00000E+00 1.65570E-03 3.94355E-03 2.51647E-02
      225  2.89949E-06 0.00000E+00-2.35330E-04 0.00000E+00 0.00000E+00 0.00000E+00 0.00000E+00 0.00000E+00 0.00000E+00 2.86040E-03 0.00000E+00 2.51647E-02
      226  1.52439E-06 0.00000E+00-2.35330E-04 0.00000E+00 0.00000E+00 0.00000E+00 0.00000E+00 0.00000E+00 0.00000E+00 4.28782E-03 0.00000E+00 2.51647E-02
      279  3.14310E-06 0.00000E+00-2.35330E-04 0.00000E+00 0.00000E+00 0.00000E+00 0.00000E+00 0.00000E+00 0.00000E+00 1.43194E-03 0.00000E+00 2.51647E-02
      280  1.60942E-07 8.46907E-07-2.35330E-04 0.00000E+00 0.00000E+00 0.00000E+00 0.00000E+00 0.00000E+00 0.00000E+00 1.35636E-03 1.40865E-03 2.51647E-02
      281  0.00000E+00 2.02688E-06-2.35330E-04 0.00000E+00 0.00000E+00 0.00000E+00 0.00000E+00 0.00000E+00 0.00000E+00 8.74900E-20 1.43083E-03 2.51647E-02
      282  0.00000E+00 0.00000E+00-2.35330E-04 0.00000E+00 0.00000E+00 0.00000E+00 0.00000E+00 0.00000E+00 0.00000E+00 0.00000E+00 0.00000E+00 2.51647E-02
      296  0.00000E+00 2.19672E-06-2.35330E-04 0.00000E+00 0.00000E+00 0.00000E+00 0.00000E+00 0.00000E+00 0.00000E+00 1.75000E-19 2.85970E-03 2.51647E-02
      323  3.79637E-07 1.25399E-06-2.35330E-04 0.00000E+00 0.00000E+00 0.00000E+00 0.00000E+00 0.00000E+00 0.00000E+00 4.04148E-03 4.04245E-03 2.51647E-02
      324  2.04522E-07 9.49966E-07-2.35330E-04 0.00000E+00 0.00000E+00 0.00000E+00 0.00000E+00 0.00000E+00 0.00000E+00 2.18690E-03 5.28105E-03 2.51647E-02
      338  2.35243E-07 1.42394E-06-2.35330E-04 0.00000E+00 0.00000E+00 0.00000E+00 0.00000E+00 0.00000E+00 0.00000E+00 5.28024E-03 2.18832E-03 2.51647E-02
      352  0.00000E+00 2.38480E-06-2.35330E-04 0.00000E+00 0.00000E+00 0.00000E+00 0.00000E+00 0.00000E+00 0.00000E+00 2.62500E-19 4.28868E-03 2.51647E-02
      366  6.57760E-07 0.00000E+00-2.35330E-04 0.00000E+00 0.00000E+00 0.00000E+00 0.00000E+00 0.00000E+00 0.00000E+00 5.71566E-03 0.00000E+00 2.51647E-02
      380  0.00000E+00 2.16840E-06-2.35330E-04 0.00000E+00 0.00000E+00 0.00000E+00 0.00000E+00 0.00000E+00 0.00000E+00 3.49900E-19 5.71717E-03 2.51647E-02
      608 -3.34776E-07 0.00000E+00-2.35330E-04 0.00000E+00 0.00000E+00 0.00000E+00 0.00000E+00 0.00000E+00 0.00000E+00 1.26997E-02 0.00000E+00 2.51647E-02
      609  3.89749E-08 0.00000E+00-2.35330E-04 0.00000E+00 0.00000E+00 0.00000E+00 0.00000E+00 0.00000E+00 0.00000E+00 1.09538E-02 0.00000E+00 2.51647E-02
      610  1.20511E-07 0.00000E+00-2.35330E-04 0.00000E+00 0.00000E+00 0.00000E+00 0.00000E+00 0.00000E+00 0.00000E+00 9.20762E-03 0.00000E+00 2.51647E-02
      611  2.30451E-07 0.00000E+00-2.35330E-04 0.00000E+00 0.00000E+00 0.00000E+00 0.00000E+00 0.00000E+00 0.00000E+00 7.46153E-03 0.00000E+00 2.51647E-02
      804  3.95797E-07 1.51154E-06-2.35330E-04 0.00000E+00 0.00000E+00 0.00000E+00 0.00000E+00 0.00000E+00 0.00000E+00 6.90240E-03 2.83551E-03 2.51647E-02
      806  6.51828E-07 1.43897E-06-2.35330E-04 0.00000E+00 0.00000E+00 0.00000E+00 0.00000E+00 0.00000E+00 0.00000E+00 5.27865E-03 5.27524E-03 2.51647E-02
      808  3.93295E-07 1.29162E-06-2.35330E-04 0.00000E+00 0.00000E+00 0.00000E+00 0.00000E+00 0.00000E+00 0.00000E+00 2.83809E-03 6.90179E-03 2.51647E-02
      810  0.00000E+00 2.42914E-06-2.35330E-04 0.00000E+00 0.00000E+00 0.00000E+00 0.00000E+00 0.00000E+00 0.00000E+00 4.56900E-19 7.46373E-03 2.51647E-02
      852  5.21639E-07 1.66260E-06-2.35330E-04 0.00000E+00 0.00000E+00 0.00000E+00 0.00000E+00 0.00000E+00 0.00000E+00 8.52452E-03 3.48276E-03 2.51647E-02
      854  8.58267E-07 1.52132E-06-2.35330E-04 0.00000E+00 0.00000E+00 0.00000E+00 0.00000E+00 0.00000E+00 0.00000E+00 6.51586E-03 6.50792E-03 2.51647E-02
      856  5.78604E-07 1.56415E-06-2.35330E-04 0.00000E+00 0.00000E+00 0.00000E+00 0.00000E+00 0.00000E+00 0.00000E+00 3.48928E-03 8.52256E-03 2.51647E-02
      858  0.00000E+00 2.73784E-06-2.35330E-04 0.00000E+00 0.00000E+00 0.00000E+00 0.00000E+00 0.00000E+00 0.00000E+00 5.63800E-19 9.21024E-03 2.51647E-02
      864  6.42484E-07 1.75570E-06-2.35330E-04 0.00000E+00 0.00000E+00 0.00000E+00 0.00000E+00 0.00000E+00 0.00000E+00 1.01467E-02 4.12986E-03 2.51647E-02
      866  1.15351E-06 1.55037E-06-2.35330E-04 0.00000E+00 0.00000E+00 0.00000E+00 0.00000E+00 0.00000E+00 0.00000E+00 7.75305E-03 7.74055E-03 2.51647E-02
      868  6.11469E-07 1.82489E-06-2.35330E-04 0.00000E+00 0.00000E+00 0.00000E+00 0.00000E+00 0.00000E+00 0.00000E+00 4.14031E-03 1.01432E-02 2.51647E-02
      870  0.00000E+00 3.06595E-06-2.35330E-04 0.00000E+00 0.00000E+00 0.00000E+00 0.00000E+00 0.00000E+00 0.00000E+00 6.70700E-19 1.09569E-02 2.51647E-02
      880  3.50235E-07 1.44814E-06-2.35330E-04 0.00000E+00 0.00000E+00 0.00000E+00 0.00000E+00 0.00000E+00 0.00000E+00 1.17685E-02 4.77665E-03 2.51647E-02
      882  8.88544E-07 1.67441E-06-2.35330E-04 0.00000E+00 0.00000E+00 0.00000E+00 0.00000E+00 0.00000E+00 0.00000E+00 8.98979E-03 8.97327E-03 2.51647E-02
      884  1.01963E-06 2.60295E-06-2.35330E-04 0.00000E+00 0.00000E+00 0.00000E+00 0.00000E+00 0.00000E+00 0.00000E+00 4.79172E-03 1.17644E-02 2.51647E-02
      886  0.00000E+00 3.58437E-06-2.35330E-04 0.00000E+00 0.00000E+00 0.00000E+00 0.00000E+00 0.00000E+00 0.00000E+00 7.77700E-19 1.27036E-02 2.51647E-02



 n o d a l   p r i n t   o u t   f o r   t i m e  s t e p     136                              ( at time 1.3757012E+01 )

[...]
      858  0.00000E+00 2.09925E-06-1.91789E-03 0.00000E+00 0.00000E+00 0.00000E+00 0.00000E+00 0.00000E+00 0.00000E+00 5.63800E-19 9.20960E-03 2.34821E-02
      864  6.36792E-07-1.74700E-07-1.91789E-03 0.00000E+00 0.00000E+00 0.00000E+00 0.00000E+00 0.00000E+00 0.00000E+00 1.01467E-02 4.12793E-03 2.34821E-02
      866  3.88793E-07 3.00446E-07-1.91789E-03 0.00000E+00 0.00000E+00 0.00000E+00 0.00000E+00 0.00000E+00 0.00000E+00 7.75229E-03 7.73930E-03 2.34821E-02
      868  3.44309E-08 9.43627E-07-1.91789E-03 0.00000E+00 0.00000E+00 0.00000E+00 0.00000E+00 0.00000E+00 0.00000E+00 4.13973E-03 1.01423E-02 2.34821E-02
      870  0.00000E+00 1.48123E-06-1.91789E-03 0.00000E+00 0.00000E+00 0.00000E+00 0.00000E+00 0.00000E+00 0.00000E+00 6.70700E-19 1.09553E-02 2.34821E-02
      880  8.10226E-07-1.53989E-07-1.91789E-03 0.00000E+00 0.00000E+00 0.00000E+00 0.00000E+00 0.00000E+00 0.00000E+00 1.17689E-02 4.77505E-03 2.34821E-02
      882  5.71464E-07 7.42719E-07-1.91789E-03 0.00000E+00 0.00000E+00 0.00000E+00 0.00000E+00 0.00000E+00 0.00000E+00 8.98947E-03 8.97234E-03 2.34821E-02
      884  4.17430E-07 5.21385E-07-1.91789E-03 0.00000E+00 0.00000E+00 0.00000E+00 0.00000E+00 0.00000E+00 0.00000E+00 4.79112E-03 1.17623E-02 2.34821E-02
      886  0.00000E+00 1.58848E-07-1.91789E-03 0.00000E+00 0.00000E+00 0.00000E+00 0.00000E+00 0.00000E+00 0.00000E+00 7.77700E-19 1.27002E-02 2.34821E-02



 n o d a l   p r i n t   o u t   f o r   t i m e  s t e p     515                              ( at time 9.9049348E+01 )

 nodal point  x-disp     y-disp      z-disp      x-vel       y-vel       z-vel      x-accl      y-accl      z-accl      x-coor      y-coor      z-coor
        1  2.57830E-03 0.00000E+00 0.00000E+00 0.00000E+00 0.00000E+00 0.00000E+00 0.00000E+00 0.00000E+00 0.00000E+00 5.75330E-03 0.00000E+00-1.78000E-18
        2  1.98808E-03 0.00000E+00 0.00000E+00 0.00000E+00 0.00000E+00 0.00000E+00 0.00000E+00 0.00000E+00 0.00000E+00 4.36938E-03 0.00000E+00 0.00000E+00
        3  1.32301E-03 0.00000E+00 0.00000E+00 0.00000E+00 0.00000E+00 0.00000E+00 0.00000E+00 0.00000E+00 0.00000E+00 2.91051E-03 0.00000E+00 0.00000E+00
        4  6.28518E-04 0.00000E+00 0.00000E+00 0.00000E+00 0.00000E+00 0.00000E+00 0.00000E+00 0.00000E+00 0.00000E+00 1.42227E-03 0.00000E+00 0.00000E+00
        5  0.00000E+00 0.00000E+00 0.00000E+00 0.00000E+00 0.00000E+00 0.00000E+00 0.00000E+00 0.00000E+00 0.00000E+00 0.00000E+00 0.00000E+00 0.00000E+00
        6  0.00000E+00 5.88642E-04 0.00000E+00 0.00000E+00 0.00000E+00 0.00000E+00 0.00000E+00 0.00000E+00 0.00000E+00 4.86000E-20 1.38239E-03 0.00000E+00
        7  0.00000E+00 1.15251E-03 0.00000E+00 0.00000E+00 0.00000E+00 0.00000E+00 0.00000E+00 0.00000E+00 0.00000E+00 9.72100E-20 2.74001E-03 0.00000E+00
        8  0.00000E+00 1.60210E-03 0.00000E+00 0.00000E+00 0.00000E+00 0.00000E+00 0.00000E+00 0.00000E+00 0.00000E+00 1.45800E-19 3.98340E-03 0.00000E+00
        9  0.00000E+00 2.04441E-03 0.00000E+00 0.00000E+00 0.00000E+00 0.00000E+00 0.00000E+00 0.00000E+00 0.00000E+00 1.94400E-19 5.21941E-03 0.00000E+00
       10  9.41695E-04 1.95110E-03 0.00000E+00 0.00000E+00 0.00000E+00 0.00000E+00 0.00000E+00 0.00000E+00 0.00000E+00 2.15670E-03 4.88440E-03 0.00000E+00
       11  1.60091E-03 1.62194E-03 0.00000E+00 0.00000E+00 0.00000E+00 0.00000E+00 0.00000E+00 0.00000E+00 0.00000E+00 3.84601E-03 3.86704E-03 0.00000E+00
       12  2.24044E-03 9.54302E-04 0.00000E+00 0.00000E+00 0.00000E+00 0.00000E+00 0.00000E+00 0.00000E+00 0.00000E+00 5.17374E-03 2.16930E-03 0.00000E+00
       13  1.10854E-03 1.06265E-03 0.00000E+00 0.00000E+00 0.00000E+00 0.00000E+00 0.00000E+00 0.00000E+00 0.00000E+00 2.41684E-03 2.41455E-03 0.00000E+00
       14  1.25951E-03 5.61465E-04 0.00000E+00 0.00000E+00 0.00000E+00 0.00000E+00 0.00000E+00 0.00000E+00 0.00000E+00 2.74781E-03 1.26844E-03 0.00000E+00
       15  6.33700E-04 1.21030E-03 0.00000E+00 0.00000E+00 0.00000E+00 0.00000E+00 0.00000E+00 0.00000E+00 0.00000E+00 1.30321E-03 2.71730E-03 0.00000E+00
       16  6.84503E-04 6.17019E-04 0.00000E+00 0.00000E+00 0.00000E+00 0.00000E+00 0.00000E+00 0.00000E+00 0.00000E+00 1.43814E-03 1.39936E-03 0.00000E+00
       17  1.38262E-03 1.31471E-03 0.00000E+00 0.00000E+00 0.00000E+00 0.00000E+00 0.00000E+00 0.00000E+00 0.00000E+00 3.11892E-03 3.08221E-03 0.00000E+00
       18  7.35050E-04 1.64857E-03 0.00000E+00 0.00000E+00 0.00000E+00 0.00000E+00 0.00000E+00 0.00000E+00 0.00000E+00 1.65518E-03 3.83967E-03 0.00000E+00
       19  1.79283E-03 7.35495E-04 0.00000E+00 0.00000E+00 0.00000E+00 0.00000E+00 0.00000E+00 0.00000E+00 0.00000E+00 3.95613E-03 1.68635E-03 0.00000E+00
      167  5.94410E-07-1.71417E-07-1.98099E-03 0.00000E+00 0.00000E+00 0.00000E+00 0.00000E+00 0.00000E+00 0.00000E+00 3.12529E-03 3.18053E-03 2.34190E-02
      168  3.14343E-07-1.49463E-08-1.98099E-03 0.00000E+00 0.00000E+00 0.00000E+00 0.00000E+00 0.00000E+00 0.00000E+00 2.35461E-03 2.43269E-03 2.34190E-02
      169  6.50648E-07-5.62400E-07-1.98099E-03 0.00000E+00 0.00000E+00 0.00000E+00 0.00000E+00 0.00000E+00 0.00000E+00 2.67865E-03 1.27144E-03 2.34190E-02
      170  4.04728E-07-7.57835E-07-1.98099E-03 0.00000E+00 0.00000E+00 0.00000E+00 0.00000E+00 0.00000E+00 0.00000E+00 3.89320E-03 1.71014E-03 2.34190E-02
      197  5.24896E-07 6.60000E-08-1.98099E-03 0.00000E+00 0.00000E+00 0.00000E+00 0.00000E+00 0.00000E+00 0.00000E+00 1.20512E-03 2.71167E-03 2.34190E-02
      198  4.20972E-07 1.61577E-07-1.98099E-03 0.00000E+00 0.00000E+00 0.00000E+00 0.00000E+00 0.00000E+00 0.00000E+00 1.65602E-03 3.94296E-03 2.34190E-02
      225 -4.93844E-07 0.00000E+00-1.98099E-03 0.00000E+00 0.00000E+00 0.00000E+00 0.00000E+00 0.00000E+00 0.00000E+00 2.85701E-03 0.00000E+00 2.34190E-02
      226 -5.03739E-07 0.00000E+00-1.98099E-03 0.00000E+00 0.00000E+00 0.00000E+00 0.00000E+00 0.00000E+00 0.00000E+00 4.28580E-03 0.00000E+00 2.34190E-02
      279  8.84155E-08 0.00000E+00-1.98099E-03 0.00000E+00 0.00000E+00 0.00000E+00 0.00000E+00 0.00000E+00 0.00000E+00 1.42889E-03 0.00000E+00 2.34190E-02
      280  8.25598E-07-5.42771E-07-1.98099E-03 0.00000E+00 0.00000E+00 0.00000E+00 0.00000E+00 0.00000E+00 0.00000E+00 1.35703E-03 1.40726E-03 2.34190E-02
      281  0.00000E+00 1.80415E-06-1.98099E-03 0.00000E+00 0.00000E+00 0.00000E+00 0.00000E+00 0.00000E+00 0.00000E+00 8.74900E-20 1.43060E-03 2.34190E-02
      282  0.00000E+00 0.00000E+00-1.98099E-03 0.00000E+00 0.00000E+00 0.00000E+00 0.00000E+00 0.00000E+00 0.00000E+00 0.00000E+00 0.00000E+00 2.34190E-02
      296  0.00000E+00 1.32014E-06-1.98099E-03 0.00000E+00 0.00000E+00 0.00000E+00 0.00000E+00 0.00000E+00 0.00000E+00 1.75000E-19 2.85882E-03 2.34190E-02
      323  3.70118E-07-9.96271E-08-1.98099E-03 0.00000E+00 0.00000E+00 0.00000E+00 0.00000E+00 0.00000E+00 0.00000E+00 4.04147E-03 4.04110E-03 2.34190E-02
      324  3.35012E-07 5.49747E-07-1.98099E-03 0.00000E+00 0.00000E+00 0.00000E+00 0.00000E+00 0.00000E+00 0.00000E+00 2.18704E-03 5.28065E-03 2.34190E-02
      338  1.76786E-07-5.21601E-07-1.98099E-03 0.00000E+00 0.00000E+00 0.00000E+00 0.00000E+00 0.00000E+00 0.00000E+00 5.28018E-03 2.18638E-03 2.34190E-02
      352  0.00000E+00 3.72442E-07-1.98099E-03 0.00000E+00 0.00000E+00 0.00000E+00 0.00000E+00 0.00000E+00 0.00000E+00 2.62500E-19 4.28667E-03 2.34190E-02
      366 -1.31673E-07 0.00000E+00-1.98099E-03 0.00000E+00 0.00000E+00 0.00000E+00 0.00000E+00 0.00000E+00 0.00000E+00 5.71487E-03 0.00000E+00 2.34190E-02
      380  0.00000E+00 1.32161E-06-1.98099E-03 0.00000E+00 0.00000E+00 0.00000E+00 0.00000E+00 0.00000E+00 0.00000E+00 3.49900E-19 5.71632E-03 2.34190E-02
      608  1.42411E-07 0.00000E+00-1.98099E-03 0.00000E+00 0.00000E+00 0.00000E+00 0.00000E+00 0.00000E+00 0.00000E+00 1.27001E-02 0.00000E+00 2.34190E-02
      609  1.68360E-07 0.00000E+00-1.98099E-03 0.00000E+00 0.00000E+00 0.00000E+00 0.00000E+00 0.00000E+00 0.00000E+00 1.09540E-02 0.00000E+00 2.34190E-02
      610  7.20829E-08 0.00000E+00-1.98099E-03 0.00000E+00 0.00000E+00 0.00000E+00 0.00000E+00 0.00000E+00 0.00000E+00 9.20757E-03 0.00000E+00 2.34190E-02
      611  2.02874E-09 0.00000E+00-1.98099E-03 0.00000E+00 0.00000E+00 0.00000E+00 0.00000E+00 0.00000E+00 0.00000E+00 7.46130E-03 0.00000E+00 2.34190E-02
      804  2.50873E-07-2.91736E-07-1.98099E-03 0.00000E+00 0.00000E+00 0.00000E+00 0.00000E+00 0.00000E+00 0.00000E+00 6.90225E-03 2.83371E-03 2.34190E-02
      806  2.57876E-07 1.32247E-08-1.98099E-03 0.00000E+00 0.00000E+00 0.00000E+00 0.00000E+00 0.00000E+00 0.00000E+00 5.27826E-03 5.27381E-03 2.34190E-02
      808  2.03730E-07 5.93863E-07-1.98099E-03 0.00000E+00 0.00000E+00 0.00000E+00 0.00000E+00 0.00000E+00 0.00000E+00 2.83790E-03 6.90109E-03 2.34190E-02
      810  0.00000E+00 1.86529E-06-1.98099E-03 0.00000E+00 0.00000E+00 0.00000E+00 0.00000E+00 0.00000E+00 0.00000E+00 4.56900E-19 7.46317E-03 2.34190E-02
      852  3.16600E-07-2.16278E-07-1.98099E-03 0.00000E+00 0.00000E+00 0.00000E+00 0.00000E+00 0.00000E+00 0.00000E+00 8.52432E-03 3.48088E-03 2.34190E-02
      854  2.42291E-07 1.48490E-07-1.98099E-03 0.00000E+00 0.00000E+00 0.00000E+00 0.00000E+00 0.00000E+00 0.00000E+00 6.51524E-03 6.50655E-03 2.34190E-02
      856  1.00595E-07 5.58784E-07-1.98099E-03 0.00000E+00 0.00000E+00 0.00000E+00 0.00000E+00 0.00000E+00 0.00000E+00 3.48880E-03 8.52156E-03 2.34190E-02
      858  0.00000E+00 1.89277E-06-1.98099E-03 0.00000E+00 0.00000E+00 0.00000E+00 0.00000E+00 0.00000E+00 0.00000E+00 5.63800E-19 9.20939E-03 2.34190E-02
      864  4.31570E-07-2.92154E-07-1.98099E-03 0.00000E+00 0.00000E+00 0.00000E+00 0.00000E+00 0.00000E+00 0.00000E+00 1.01465E-02 4.12781E-03 2.34190E-02
      866  2.42551E-07 2.20057E-07-1.98099E-03 0.00000E+00 0.00000E+00 0.00000E+00 0.00000E+00 0.00000E+00 0.00000E+00 7.75214E-03 7.73922E-03 2.34190E-02
      868 -1.63422E-08 8.25290E-07-1.98099E-03 0.00000E+00 0.00000E+00 0.00000E+00 0.00000E+00 0.00000E+00 0.00000E+00 4.13968E-03 1.01422E-02 2.34190E-02
      870  0.00000E+00 1.29526E-06-1.98099E-03 0.00000E+00 0.00000E+00 0.00000E+00 0.00000E+00 0.00000E+00 0.00000E+00 6.70700E-19 1.09551E-02 2.34190E-02
      880  5.85182E-07-2.91319E-07-1.98099E-03 0.00000E+00 0.00000E+00 0.00000E+00 0.00000E+00 0.00000E+00 0.00000E+00 1.17687E-02 4.77491E-03 2.34190E-02
      882  3.63911E-07 5.87160E-07-1.98099E-03 0.00000E+00 0.00000E+00 0.00000E+00 0.00000E+00 0.00000E+00 0.00000E+00 8.98926E-03 8.97219E-03 2.34190E-02
      884  3.61294E-07 3.80773E-07-1.98099E-03 0.00000E+00 0.00000E+00 0.00000E+00 0.00000E+00 0.00000E+00 0.00000E+00 4.79106E-03 1.17622E-02 2.34190E-02
      886  0.00000E+00-4.02356E-08-1.98099E-03 0.00000E+00 0.00000E+00 0.00000E+00 0.00000E+00 0.00000E+00 0.00000E+00 7.77700E-19 1.27000E-02 2.34190E-02



 n o d a l   p r i n t   o u t   f o r   t i m e  s t e p     521                              ( at time 1.0000000E+02 )

 nodal point  x-disp     y-disp      z-disp      x-vel       y-vel       z-vel      x-accl      y-accl      z-accl      x-coor      y-coor      z-coor
        1  2.57892E-03 0.00000E+00 0.00000E+00 0.00000E+00 0.00000E+00 0.00000E+00 0.00000E+00 0.00000E+00 0.00000E+00 5.75392E-03 0.00000E+00-1.78000E-18
        2  1.98863E-03 0.00000E+00 0.00000E+00 0.00000E+00 0.00000E+00 0.00000E+00 0.00000E+00 0.00000E+00 0.00000E+00 4.36993E-03 0.00000E+00 0.00000E+00
        3  1.32301E-03 0.00000E+00 0.00000E+00 0.00000E+00 0.00000E+00 0.00000E+00 0.00000E+00 0.00000E+00 0.00000E+00 2.91051E-03 0.00000E+00 0.00000E+00
        4  6.28518E-04 0.00000E+00 0.00000E+00 0.00000E+00 0.00000E+00 0.00000E+00 0.00000E+00 0.00000E+00 0.00000E+00 1.42227E-03 0.00000E+00 0.00000E+00
        5  0.00000E+00 0.00000E+00 0.00000E+00 0.00000E+00 0.00000E+00 0.00000E+00 0.00000E+00 0.00000E+00 0.00000E+00 0.00000E+00 0.00000E+00 0.00000E+00
        6  0.00000E+00 5.88642E-04 0.00000E+00 0.00000E+00 0.00000E+00 0.00000E+00 0.00000E+00 0.00000E+00 0.00000E+00 4.86000E-20 1.38239E-03 0.00000E+00
        7  0.00000E+00 1.15251E-03 0.00000E+00 0.00000E+00 0.00000E+00 0.00000E+00 0.00000E+00 0.00000E+00 0.00000E+00 9.72100E-20 2.74001E-03 0.00000E+00
        8  0.00000E+00 1.60210E-03 0.00000E+00 0.00000E+00 0.00000E+00 0.00000E+00 0.00000E+00 0.00000E+00 0.00000E+00 1.45800E-19 3.98340E-03 0.00000E+00
        9  0.00000E+00 2.04440E-03 0.00000E+00 0.00000E+00 0.00000E+00 0.00000E+00 0.00000E+00 0.00000E+00 0.00000E+00 1.94400E-19 5.21940E-03 0.00000E+00
       10  9.41711E-04 1.95107E-03 0.00000E+00 0.00000E+00 0.00000E+00 0.00000E+00 0.00000E+00 0.00000E+00 0.00000E+00 2.15671E-03 4.88437E-03 0.00000E+00
       11  1.60091E-03 1.62194E-03 0.00000E+00 0.00000E+00 0.00000E+00 0.00000E+00 0.00000E+00 0.00000E+00 0.00000E+00 3.84601E-03 3.86704E-03 0.00000E+00
       12  2.24124E-03 9.54395E-04 0.00000E+00 0.00000E+00 0.00000E+00 0.00000E+00 0.00000E+00 0.00000E+00 0.00000E+00 5.17454E-03 2.16939E-03 0.00000E+00
       13  1.10828E-03 1.06261E-03 0.00000E+00 0.00000E+00 0.00000E+00 0.00000E+00 0.00000E+00 0.00000E+00 0.00000E+00 2.41658E-03 2.41451E-03 0.00000E+00
       14  1.25951E-03 5.61465E-04 0.00000E+00 0.00000E+00 0.00000E+00 0.00000E+00 0.00000E+00 0.00000E+00 0.00000E+00 2.74781E-03 1.26844E-03 0.00000E+00
       15  6.33514E-04 1.21053E-03 0.00000E+00 0.00000E+00 0.00000E+00 0.00000E+00 0.00000E+00 0.00000E+00 0.00000E+00 1.30302E-03 2.71753E-03 0.00000E+00
       16  6.84503E-04 6.17019E-04 0.00000E+00 0.00000E+00 0.00000E+00 0.00000E+00 0.00000E+00 0.00000E+00 0.00000E+00 1.43814E-03 1.39936E-03 0.00000E+00
       17  1.38261E-03 1.31434E-03 0.00000E+00 0.00000E+00 0.00000E+00 0.00000E+00 0.00000E+00 0.00000E+00 0.00000E+00 3.11891E-03 3.08184E-03 0.00000E+00
       18  7.35055E-04 1.64859E-03 0.00000E+00 0.00000E+00 0.00000E+00 0.00000E+00 0.00000E+00 0.00000E+00 0.00000E+00 1.65519E-03 3.83969E-03 0.00000E+00
       19  1.79344E-03 7.35687E-04 0.00000E+00 0.00000E+00 0.00000E+00 0.00000E+00 0.00000E+00 0.00000E+00 0.00000E+00 3.95674E-03 1.68655E-03 0.00000E+00
      167  6.08020E-07-1.80405E-07-2.00000E-03 0.00000E+00 0.00000E+00 0.00000E+00 0.00000E+00 0.00000E+00 0.00000E+00 3.12531E-03 3.18052E-03 2.34000E-02
      168  2.77123E-07-6.04654E-08-2.00000E-03 0.00000E+00 0.00000E+00 0.00000E+00 0.00000E+00 0.00000E+00 0.00000E+00 2.35458E-03 2.43264E-03 2.34000E-02
      169  6.81148E-07-6.56523E-07-2.00000E-03 0.00000E+00 0.00000E+00 0.00000E+00 0.00000E+00 0.00000E+00 0.00000E+00 2.67868E-03 1.27134E-03 2.34000E-02
      170  5.74265E-07-7.37104E-07-2.00000E-03 0.00000E+00 0.00000E+00 0.00000E+00 0.00000E+00 0.00000E+00 0.00000E+00 3.89337E-03 1.71016E-03 2.34000E-02
      197  5.11564E-07 4.10347E-08-2.00000E-03 0.00000E+00 0.00000E+00 0.00000E+00 0.00000E+00 0.00000E+00 0.00000E+00 1.20511E-03 2.71164E-03 2.34000E-02
      198  4.26936E-07 1.02898E-07-2.00000E-03 0.00000E+00 0.00000E+00 0.00000E+00 0.00000E+00 0.00000E+00 0.00000E+00 1.65603E-03 3.94290E-03 2.34000E-02
      225 -7.55480E-07 0.00000E+00-2.00000E-03 0.00000E+00 0.00000E+00 0.00000E+00 0.00000E+00 0.00000E+00 0.00000E+00 2.85674E-03 0.00000E+00 2.34000E-02
      226 -7.21391E-07 0.00000E+00-2.00000E-03 0.00000E+00 0.00000E+00 0.00000E+00 0.00000E+00 0.00000E+00 0.00000E+00 4.28558E-03 0.00000E+00 2.34000E-02
      279 -1.37643E-07 0.00000E+00-2.00000E-03 0.00000E+00 0.00000E+00 0.00000E+00 0.00000E+00 0.00000E+00 0.00000E+00 1.42866E-03 0.00000E+00 2.34000E-02
      280  6.33778E-07-6.29452E-07-2.00000E-03 0.00000E+00 0.00000E+00 0.00000E+00 0.00000E+00 0.00000E+00 0.00000E+00 1.35683E-03 1.40717E-03 2.34000E-02
      281  0.00000E+00 1.79897E-06-2.00000E-03 0.00000E+00 0.00000E+00 0.00000E+00 0.00000E+00 0.00000E+00 0.00000E+00 8.74900E-20 1.43060E-03 2.34000E-02
      282  0.00000E+00 0.00000E+00-2.00000E-03 0.00000E+00 0.00000E+00 0.00000E+00 0.00000E+00 0.00000E+00 0.00000E+00 0.00000E+00 0.00000E+00 2.34000E-02
      296  0.00000E+00 1.40666E-06-2.00000E-03 0.00000E+00 0.00000E+00 0.00000E+00 0.00000E+00 0.00000E+00 0.00000E+00 1.75000E-19 2.85891E-03 2.34000E-02
      323  3.79553E-07-7.83732E-08-2.00000E-03 0.00000E+00 0.00000E+00 0.00000E+00 0.00000E+00 0.00000E+00 0.00000E+00 4.04148E-03 4.04112E-03 2.34000E-02
      324  3.34395E-07 5.17905E-07-2.00000E-03 0.00000E+00 0.00000E+00 0.00000E+00 0.00000E+00 0.00000E+00 0.00000E+00 2.18703E-03 5.28062E-03 2.34000E-02
      338  1.93287E-07-5.59955E-07-2.00000E-03 0.00000E+00 0.00000E+00 0.00000E+00 0.00000E+00 0.00000E+00 0.00000E+00 5.28019E-03 2.18634E-03 2.34000E-02
      352  0.00000E+00 3.14335E-07-2.00000E-03 0.00000E+00 0.00000E+00 0.00000E+00 0.00000E+00 0.00000E+00 0.00000E+00 2.62500E-19 4.28661E-03 2.34000E-02
      366 -2.62768E-07 0.00000E+00-2.00000E-03 0.00000E+00 0.00000E+00 0.00000E+00 0.00000E+00 0.00000E+00 0.00000E+00 5.71474E-03 0.00000E+00 2.34000E-02
      380  0.00000E+00 1.22272E-06-2.00000E-03 0.00000E+00 0.00000E+00 0.00000E+00 0.00000E+00 0.00000E+00 0.00000E+00 3.49900E-19 5.71622E-03 2.34000E-02
      608  1.29338E-07 0.00000E+00-2.00000E-03 0.00000E+00 0.00000E+00 0.00000E+00 0.00000E+00 0.00000E+00 0.00000E+00 1.27001E-02 0.00000E+00 2.34000E-02
      609  1.50414E-07 0.00000E+00-2.00000E-03 0.00000E+00 0.00000E+00 0.00000E+00 0.00000E+00 0.00000E+00 0.00000E+00 1.09540E-02 0.00000E+00 2.34000E-02
      610  4.42040E-08 0.00000E+00-2.00000E-03 0.00000E+00 0.00000E+00 0.00000E+00 0.00000E+00 0.00000E+00 0.00000E+00 9.20754E-03 0.00000E+00 2.34000E-02
      611 -5.16950E-08 0.00000E+00-2.00000E-03 0.00000E+00 0.00000E+00 0.00000E+00 0.00000E+00 0.00000E+00 0.00000E+00 7.46125E-03 0.00000E+00 2.34000E-02
      804  2.38577E-07-3.33320E-07-2.00000E-03 0.00000E+00 0.00000E+00 0.00000E+00 0.00000E+00 0.00000E+00 0.00000E+00 6.90224E-03 2.83367E-03 2.34000E-02
      806  2.61666E-07 1.51595E-08-2.00000E-03 0.00000E+00 0.00000E+00 0.00000E+00 0.00000E+00 0.00000E+00 0.00000E+00 5.27826E-03 5.27382E-03 2.34000E-02
      808  2.11033E-07 5.84256E-07-2.00000E-03 0.00000E+00 0.00000E+00 0.00000E+00 0.00000E+00 0.00000E+00 0.00000E+00 2.83791E-03 6.90108E-03 2.34000E-02
      810  0.00000E+00 1.78836E-06-2.00000E-03 0.00000E+00 0.00000E+00 0.00000E+00 0.00000E+00 0.00000E+00 0.00000E+00 4.56900E-19 7.46309E-03 2.34000E-02
      852  2.98790E-07-2.48861E-07-2.00000E-03 0.00000E+00 0.00000E+00 0.00000E+00 0.00000E+00 0.00000E+00 0.00000E+00 8.52430E-03 3.48085E-03 2.34000E-02
      854  2.42598E-07 1.55758E-07-2.00000E-03 0.00000E+00 0.00000E+00 0.00000E+00 0.00000E+00 0.00000E+00 0.00000E+00 6.51524E-03 6.50656E-03 2.34000E-02
      856  1.06616E-07 5.61833E-07-2.00000E-03 0.00000E+00 0.00000E+00 0.00000E+00 0.00000E+00 0.00000E+00 0.00000E+00 3.48881E-03 8.52156E-03 2.34000E-02
      858  0.00000E+00 1.85202E-06-2.00000E-03 0.00000E+00 0.00000E+00 0.00000E+00 0.00000E+00 0.00000E+00 0.00000E+00 5.63800E-19 9.20935E-03 2.34000E-02
      864  4.14394E-07-3.25703E-07-2.00000E-03 0.00000E+00 0.00000E+00 0.00000E+00 0.00000E+00 0.00000E+00 0.00000E+00 1.01465E-02 4.12777E-03 2.34000E-02
      866  2.39270E-07 2.26009E-07-2.00000E-03 0.00000E+00 0.00000E+00 0.00000E+00 0.00000E+00 0.00000E+00 0.00000E+00 7.75214E-03 7.73923E-03 2.34000E-02
      868 -6.76746E-09 8.37084E-07-2.00000E-03 0.00000E+00 0.00000E+00 0.00000E+00 0.00000E+00 0.00000E+00 0.00000E+00 4.13969E-03 1.01422E-02 2.34000E-02
      870  0.00000E+00 1.27765E-06-2.00000E-03 0.00000E+00 0.00000E+00 0.00000E+00 0.00000E+00 0.00000E+00 0.00000E+00 6.70700E-19 1.09551E-02 2.34000E-02
      880  5.78185E-07-3.21703E-07-2.00000E-03 0.00000E+00 0.00000E+00 0.00000E+00 0.00000E+00 0.00000E+00 0.00000E+00 1.17687E-02 4.77488E-03 2.34000E-02
      882  3.50638E-07 5.80620E-07-2.00000E-03 0.00000E+00 0.00000E+00 0.00000E+00 0.00000E+00 0.00000E+00 0.00000E+00 8.98925E-03 8.97218E-03 2.34000E-02
      884  3.73550E-07 3.92002E-07-2.00000E-03 0.00000E+00 0.00000E+00 0.00000E+00 0.00000E+00 0.00000E+00 0.00000E+00 4.79107E-03 1.17622E-02 2.34000E-02
      886  0.00000E+00-4.09906E-08-2.00000E-03 0.00000E+00 0.00000E+00 0.00000E+00 0.00000E+00 0.00000E+00 0.00000E+00 7.77700E-19 1.27000E-02 2.34000E-02
