 LS-DYNA keyword deck by LS-PrePost                                      
                    ls-dyna smp d R14 R14.1.1s_1_ef50e1 date 06/16/2024
 single point constraint forces

 output at time =   0.00000E+00
 node=     1 local x,y,z forces =    0.0000E+00    0.0000E+00    0.0000E+00  setid=       0
 node=     1 local x,y,z moments=    0.0000E+00    0.0000E+00    0.0000E+00  setid=       0
 node=     2 local x,y,z forces =    0.0000E+00    0.0000E+00    0.0000E+00  setid=       0
 node=     2 local x,y,z moments=    0.0000E+00    0.0000E+00    0.0000E+00  setid=       0
 node=     3 local x,y,z forces =    0.0000E+00    0.0000E+00    0.0000E+00  setid=       0
 node=     3 local x,y,z moments=    0.0000E+00    0.0000E+00    0.0000E+00  setid=       0
 node=     4 local x,y,z forces =    0.0000E+00    0.0000E+00    0.0000E+00  setid=       0
 node=     4 local x,y,z moments=    0.0000E+00    0.0000E+00    0.0000E+00  setid=       0
 node=     5 local x,y,z forces =    0.0000E+00    0.0000E+00    0.0000E+00  setid=       0
 node=     5 local x,y,z moments=    0.0000E+00    0.0000E+00    0.0000E+00  setid=       0
 node=     6 local x,y,z forces =    0.0000E+00    0.0000E+00    0.0000E+00  setid=       0
 node=     6 local x,y,z moments=    0.0000E+00    0.0000E+00    0.0000E+00  setid=       0
 node=     7 local x,y,z forces =    0.0000E+00    0.0000E+00    0.0000E+00  setid=       0
 node=     7 local x,y,z moments=    0.0000E+00    0.0000E+00    0.0000E+00  setid=       0
 node=     8 local x,y,z forces =    0.0000E+00    0.0000E+00    0.0000E+00  setid=       0
 node=     8 local x,y,z moments=    0.0000E+00    0.0000E+00    0.0000E+00  setid=       0
 node=     9 local x,y,z forces =    0.0000E+00    0.0000E+00    0.0000E+00  setid=       0
 node=     9 local x,y,z moments=    0.0000E+00    0.0000E+00    0.0000E+00  setid=       0
 node=    10 local x,y,z forces =    0.0000E+00    0.0000E+00    0.0000E+00  setid=       0
 node=    10 local x,y,z moments=    0.0000E+00    0.0000E+00    0.0000E+00  setid=       0
 node=    11 local x,y,z forces =    0.0000E+00    0.0000E+00    0.0000E+00  setid=       0
 node=    11 local x,y,z moments=    0.0000E+00    0.0000E+00    0.0000E+00  setid=       0
 node=    12 local x,y,z forces =    0.0000E+00    0.0000E+00    0.0000E+00  setid=       0
 node=    12 local x,y,z moments=    0.0000E+00    0.0000E+00    0.0000E+00  setid=       0
 node=    13 local x,y,z forces =    0.0000E+00    0.0000E+00    0.0000E+00  setid=       0
 node=    13 local x,y,z moments=    0.0000E+00    0.0000E+00    0.0000E+00  setid=       0
 node=    14 local x,y,z forces =    0.0000E+00    0.0000E+00    0.0000E+00  setid=       0
 node=    14 local x,y,z moments=    0.0000E+00    0.0000E+00    0.0000E+00  setid=       0
 node=    15 local x,y,z forces =    0.0000E+00    0.0000E+00    0.0000E+00  setid=       0
 node=    15 local x,y,z moments=    0.0000E+00    0.0000E+00    0.0000E+00  setid=       0
 node=    16 local x,y,z forces =    0.0000E+00    0.0000E+00    0.0000E+00  setid=       0
 node=    16 local x,y,z moments=    0.0000E+00    0.0000E+00    0.0000E+00  setid=       0
 node=    17 local x,y,z forces =    0.0000E+00    0.0000E+00    0.0000E+00  setid=       0
 node=    17 local x,y,z moments=    0.0000E+00    0.0000E+00    0.0000E+00  setid=       0
 node=    18 local x,y,z forces =    0.0000E+00    0.0000E+00    0.0000E+00  setid=       0
 node=    18 local x,y,z moments=    0.0000E+00    0.0000E+00    0.0000E+00  setid=       0
 node=    19 local x,y,z forces =    0.0000E+00    0.0000E+00    0.0000E+00  setid=       0
 node=    19 local x,y,z moments=    0.0000E+00    0.0000E+00    0.0000E+00  setid=       0
 node=    51 local x,y,z forces =    0.0000E+00    0.0000E+00    0.0000E+00  setid=       0
 node=    51 local x,y,z moments=    0.0000E+00    0.0000E+00    0.0000E+00  setid=       0
 node=    52 local x,y,z forces =    0.0000E+00    0.0000E+00    0.0000E+00  setid=       0
 node=    52 local x,y,z moments=    0.0000E+00    0.0000E+00    0.0000E+00  setid=       0
 node=    53 local x,y,z forces =    0.0000E+00    0.0000E+00    0.0000E+00  setid=       0
 node=    53 local x,y,z moments=    0.0000E+00    0.0000E+00    0.0000E+00  setid=       0
 node=    55 local x,y,z forces =    0.0000E+00    0.0000E+00    0.0000E+00  setid=       0
 node=    55 local x,y,z moments=    0.0000E+00    0.0000E+00    0.0000E+00  setid=       0
 node=    56 local x,y,z forces =    0.0000E+00    0.0000E+00    0.0000E+00  setid=       0
 node=    56 local x,y,z moments=    0.0000E+00    0.0000E+00    0.0000E+00  setid=       0
 node=    57 local x,y,z forces =    0.0000E+00    0.0000E+00    0.0000E+00  setid=       0
 node=    57 local x,y,z moments=    0.0000E+00    0.0000E+00    0.0000E+00  setid=       0
 node=    59 local x,y,z forces =    0.0000E+00    0.0000E+00    0.0000E+00  setid=       0
 node=    59 local x,y,z moments=    0.0000E+00    0.0000E+00    0.0000E+00  setid=       0
 node=    60 local x,y,z forces =    0.0000E+00    0.0000E+00    0.0000E+00  setid=       0
 node=    60 local x,y,z moments=    0.0000E+00    0.0000E+00    0.0000E+00  setid=       0
 node=    61 local x,y,z forces =    0.0000E+00    0.0000E+00    0.0000E+00  setid=       0
 node=    61 local x,y,z moments=    0.0000E+00    0.0000E+00    0.0000E+00  setid=       0
 node=    63 local x,y,z forces =    0.0000E+00    0.0000E+00    0.0000E+00  setid=       0
 node=    63 local x,y,z moments=    0.0000E+00    0.0000E+00    0.0000E+00  setid=       0
 node=    64 local x,y,z forces =    0.0000E+00    0.0000E+00    0.0000E+00  setid=       0
 node=    64 local x,y,z moments=    0.0000E+00    0.0000E+00    0.0000E+00  setid=       0
 node=    65 local x,y,z forces =    0.0000E+00    0.0000E+00    0.0000E+00  setid=       0
 node=    65 local x,y,z moments=    0.0000E+00    0.0000E+00    0.0000E+00  setid=       0
 node=    67 local x,y,z forces =    0.0000E+00    0.0000E+00    0.0000E+00  setid=       0
 node=    67 local x,y,z moments=    0.0000E+00    0.0000E+00    0.0000E+00  setid=       0
 node=    68 local x,y,z forces =    0.0000E+00    0.0000E+00    0.0000E+00  setid=       0
 node=    68 local x,y,z moments=    0.0000E+00    0.0000E+00    0.0000E+00  setid=       0
 node=    69 local x,y,z forces =    0.0000E+00    0.0000E+00    0.0000E+00  setid=       0
 node=    69 local x,y,z moments=    0.0000E+00    0.0000E+00    0.0000E+00  setid=       0
 node=    85 local x,y,z forces =    0.0000E+00    0.0000E+00    0.0000E+00  setid=       0
 node=    85 local x,y,z moments=    0.0000E+00    0.0000E+00    0.0000E+00  setid=       0
 node=    86 local x,y,z forces =    0.0000E+00    0.0000E+00    0.0000E+00  setid=       0
 node=    86 local x,y,z moments=    0.0000E+00    0.0000E+00    0.0000E+00  setid=       0
 node=    87 local x,y,z forces =    0.0000E+00    0.0000E+00    0.0000E+00  setid=       0
 node=    87 local x,y,z moments=    0.0000E+00    0.0000E+00    0.0000E+00  setid=       0
 node=    88 local x,y,z forces =    0.0000E+00    0.0000E+00    0.0000E+00  setid=       0
 node=    88 local x,y,z moments=    0.0000E+00    0.0000E+00    0.0000E+00  setid=       0
 node=    89 local x,y,z forces =    0.0000E+00    0.0000E+00    0.0000E+00  setid=       0
 node=    89 local x,y,z moments=    0.0000E+00    0.0000E+00    0.0000E+00  setid=       0
 node=    90 local x,y,z forces =    0.0000E+00    0.0000E+00    0.0000E+00  setid=       0
 node=    90 local x,y,z moments=    0.0000E+00    0.0000E+00    0.0000E+00  setid=       0
 node=    91 local x,y,z forces =    0.0000E+00    0.0000E+00    0.0000E+00  setid=       0
 node=    91 local x,y,z moments=    0.0000E+00    0.0000E+00    0.0000E+00  setid=       0
 node=    92 local x,y,z forces =    0.0000E+00    0.0000E+00    0.0000E+00  setid=       0
 node=    92 local x,y,z moments=    0.0000E+00    0.0000E+00    0.0000E+00  setid=       0
 node=    93 local x,y,z forces =    0.0000E+00    0.0000E+00    0.0000E+00  setid=       0
 node=    93 local x,y,z moments=    0.0000E+00    0.0000E+00    0.0000E+00  setid=       0
 node=    94 local x,y,z forces =    0.0000E+00    0.0000E+00    0.0000E+00  setid=       0
 node=    94 local x,y,z moments=    0.0000E+00    0.0000E+00    0.0000E+00  setid=       0
 node=    95 local x,y,z forces =    0.0000E+00    0.0000E+00    0.0000E+00  setid=       0
 node=    95 local x,y,z moments=    0.0000E+00    0.0000E+00    0.0000E+00  setid=       0
 node=    96 local x,y,z forces =    0.0000E+00    0.0000E+00    0.0000E+00  setid=       0
 node=    96 local x,y,z moments=    0.0000E+00    0.0000E+00    0.0000E+00  setid=       0
 node=    97 local x,y,z forces =    0.0000E+00    0.0000E+00    0.0000E+00  setid=       0
 node=    97 local x,y,z moments=    0.0000E+00    0.0000E+00    0.0000E+00  setid=       0
 node=    98 local x,y,z forces =    0.0000E+00    0.0000E+00    0.0000E+00  setid=       0
 node=    98 local x,y,z moments=    0.0000E+00    0.0000E+00    0.0000E+00  setid=       0
 node=    99 local x,y,z forces =    0.0000E+00    0.0000E+00    0.0000E+00  setid=       0
 node=    99 local x,y,z moments=    0.0000E+00    0.0000E+00    0.0000E+00  setid=       0
 node=   100 local x,y,z forces =    0.0000E+00    0.0000E+00    0.0000E+00  setid=       0
 node=   100 local x,y,z moments=    0.0000E+00    0.0000E+00    0.0000E+00  setid=       0
 node=   101 local x,y,z forces =    0.0000E+00    0.0000E+00    0.0000E+00  setid=       0
 node=   101 local x,y,z moments=    0.0000E+00    0.0000E+00    0.0000E+00  setid=       0
 node=   102 local x,y,z forces =    0.0000E+00    0.0000E+00    0.0000E+00  setid=       0
 node=   102 local x,y,z moments=    0.0000E+00    0.0000E+00    0.0000E+00  setid=       0
 node=   103 local x,y,z forces =    0.0000E+00    0.0000E+00    0.0000E+00  setid=       0
 node=   103 local x,y,z moments=    0.0000E+00    0.0000E+00    0.0000E+00  setid=       0
 node=   104 local x,y,z forces =    0.0000E+00    0.0000E+00    0.0000E+00  setid=       0
 node=   104 local x,y,z moments=    0.0000E+00    0.0000E+00    0.0000E+00  setid=       0
 node=   105 local x,y,z forces =    0.0000E+00    0.0000E+00    0.0000E+00  setid=       0
 node=   105 local x,y,z moments=    0.0000E+00    0.0000E+00    0.0000E+00  setid=       0
 node=   106 local x,y,z forces =    0.0000E+00    0.0000E+00    0.0000E+00  setid=       0
 node=   106 local x,y,z moments=    0.0000E+00    0.0000E+00    0.0000E+00  setid=       0
 node=   107 local x,y,z forces =    0.0000E+00    0.0000E+00    0.0000E+00  setid=       0
 node=   107 local x,y,z moments=    0.0000E+00    0.0000E+00    0.0000E+00  setid=       0
 node=   108 local x,y,z forces =    0.0000E+00    0.0000E+00    0.0000E+00  setid=       0
 node=   108 local x,y,z moments=    0.0000E+00    0.0000E+00    0.0000E+00  setid=       0
 node=   109 local x,y,z forces =    0.0000E+00    0.0000E+00    0.0000E+00  setid=       0
 node=   109 local x,y,z moments=    0.0000E+00    0.0000E+00    0.0000E+00  setid=       0
 node=   110 local x,y,z forces =    0.0000E+00    0.0000E+00    0.0000E+00  setid=       0
 node=   110 local x,y,z moments=    0.0000E+00    0.0000E+00    0.0000E+00  setid=       0
 node=   111 local x,y,z forces =    0.0000E+00    0.0000E+00    0.0000E+00  setid=       0
 node=   111 local x,y,z moments=    0.0000E+00    0.0000E+00    0.0000E+00  setid=       0
 node=   112 local x,y,z forces =    0.0000E+00    0.0000E+00    0.0000E+00  setid=       0
 node=   112 local x,y,z moments=    0.0000E+00    0.0000E+00    0.0000E+00  setid=       0
 node=   113 local x,y,z forces =    0.0000E+00    0.0000E+00    0.0000E+00  setid=       0
 node=   113 local x,y,z moments=    0.0000E+00    0.0000E+00    0.0000E+00  setid=       0
 node=   114 local x,y,z forces =    0.0000E+00    0.0000E+00    0.0000E+00  setid=       0
 node=   114 local x,y,z moments=    0.0000E+00    0.0000E+00    0.0000E+00  setid=       0
 node=   199 local x,y,z forces =    0.0000E+00    0.0000E+00    0.0000E+00  setid=       0
 node=   199 local x,y,z moments=    0.0000E+00    0.0000E+00    0.0000E+00  setid=       0
 node=   200 local x,y,z forces =    0.0000E+00    0.0000E+00    0.0000E+00  setid=       0
 node=   200 local x,y,z moments=    0.0000E+00    0.0000E+00    0.0000E+00  setid=       0
 node=   201 local x,y,z forces =    0.0000E+00    0.0000E+00    0.0000E+00  setid=       0
 node=   201 local x,y,z moments=    0.0000E+00    0.0000E+00    0.0000E+00  setid=       0
 node=   202 local x,y,z forces =    0.0000E+00    0.0000E+00    0.0000E+00  setid=       0
 node=   202 local x,y,z moments=    0.0000E+00    0.0000E+00    0.0000E+00  setid=       0
 node=   203 local x,y,z forces =    0.0000E+00    0.0000E+00    0.0000E+00  setid=       0
 node=   203 local x,y,z moments=    0.0000E+00    0.0000E+00    0.0000E+00  setid=       0
 node=   204 local x,y,z forces =    0.0000E+00    0.0000E+00    0.0000E+00  setid=       0
 node=   204 local x,y,z moments=    0.0000E+00    0.0000E+00    0.0000E+00  setid=       0
 node=   205 local x,y,z forces =    0.0000E+00    0.0000E+00    0.0000E+00  setid=       0
 node=   205 local x,y,z moments=    0.0000E+00    0.0000E+00    0.0000E+00  setid=       0
 node=   206 local x,y,z forces =    0.0000E+00    0.0000E+00    0.0000E+00  setid=       0
 node=   206 local x,y,z moments=    0.0000E+00    0.0000E+00    0.0000E+00  setid=       0
 node=   207 local x,y,z forces =    0.0000E+00    0.0000E+00    0.0000E+00  setid=       0
 node=   207 local x,y,z moments=    0.0000E+00    0.0000E+00    0.0000E+00  setid=       0
 node=   208 local x,y,z forces =    0.0000E+00    0.0000E+00    0.0000E+00  setid=       0
 node=   208 local x,y,z moments=    0.0000E+00    0.0000E+00    0.0000E+00  setid=       0
 node=   209 local x,y,z forces =    0.0000E+00    0.0000E+00    0.0000E+00  setid=       0
 node=   209 local x,y,z moments=    0.0000E+00    0.0000E+00    0.0000E+00  setid=       0
 node=   210 local x,y,z forces =    0.0000E+00    0.0000E+00    0.0000E+00  setid=       0
 node=   210 local x,y,z moments=    0.0000E+00    0.0000E+00    0.0000E+00  setid=       0
 node=   211 local x,y,z forces =    0.0000E+00    0.0000E+00    0.0000E+00  setid=       0
 node=   211 local x,y,z moments=    0.0000E+00    0.0000E+00    0.0000E+00  setid=       0
 node=   212 local x,y,z forces =    0.0000E+00    0.0000E+00    0.0000E+00  setid=       0
 node=   212 local x,y,z moments=    0.0000E+00    0.0000E+00    0.0000E+00  setid=       0
 node=   213 local x,y,z forces =    0.0000E+00    0.0000E+00    0.0000E+00  setid=       0
 node=   213 local x,y,z moments=    0.0000E+00    0.0000E+00    0.0000E+00  setid=       0
 node=   214 local x,y,z forces =    0.0000E+00    0.0000E+00    0.0000E+00  setid=       0
 node=   214 local x,y,z moments=    0.0000E+00    0.0000E+00    0.0000E+00  setid=       0
 node=   215 local x,y,z forces =    0.0000E+00    0.0000E+00    0.0000E+00  setid=       0
 node=   215 local x,y,z moments=    0.0000E+00    0.0000E+00    0.0000E+00  setid=       0
 node=   216 local x,y,z forces =    0.0000E+00    0.0000E+00    0.0000E+00  setid=       0
 node=   216 local x,y,z moments=    0.0000E+00    0.0000E+00    0.0000E+00  setid=       0
 node=   217 local x,y,z forces =    0.0000E+00    0.0000E+00    0.0000E+00  setid=       0
 node=   217 local x,y,z moments=    0.0000E+00    0.0000E+00    0.0000E+00  setid=       0
 node=   218 local x,y,z forces =    0.0000E+00    0.0000E+00    0.0000E+00  setid=       0
 node=   218 local x,y,z moments=    0.0000E+00    0.0000E+00    0.0000E+00  setid=       0
 node=   219 local x,y,z forces =    0.0000E+00    0.0000E+00    0.0000E+00  setid=       0
 node=   219 local x,y,z moments=    0.0000E+00    0.0000E+00    0.0000E+00  setid=       0
 node=   220 local x,y,z forces =    0.0000E+00    0.0000E+00    0.0000E+00  setid=       0
 node=   220 local x,y,z moments=    0.0000E+00    0.0000E+00    0.0000E+00  setid=       0
 node=   221 local x,y,z forces =    0.0000E+00    0.0000E+00    0.0000E+00  setid=       0
 node=   221 local x,y,z moments=    0.0000E+00    0.0000E+00    0.0000E+00  setid=       0
 node=   222 local x,y,z forces =    0.0000E+00    0.0000E+00    0.0000E+00  setid=       0
 node=   222 local x,y,z moments=    0.0000E+00    0.0000E+00    0.0000E+00  setid=       0
 node=   223 local x,y,z forces =    0.0000E+00    0.0000E+00    0.0000E+00  setid=       0
 node=   223 local x,y,z moments=    0.0000E+00    0.0000E+00    0.0000E+00  setid=       0
 node=   224 local x,y,z forces =    0.0000E+00    0.0000E+00    0.0000E+00  setid=       0
 node=   224 local x,y,z moments=    0.0000E+00    0.0000E+00    0.0000E+00  setid=       0
 node=   225 local x,y,z forces =    0.0000E+00    0.0000E+00    0.0000E+00  setid=       0
 node=   225 local x,y,z moments=    0.0000E+00    0.0000E+00    0.0000E+00  setid=       0
 node=   226 local x,y,z forces =    0.0000E+00    0.0000E+00    0.0000E+00  setid=       0
 node=   226 local x,y,z moments=    0.0000E+00    0.0000E+00    0.0000E+00  setid=       0
 node=   227 local x,y,z forces =    0.0000E+00    0.0000E+00    0.0000E+00  setid=       0
 node=   227 local x,y,z moments=    0.0000E+00    0.0000E+00    0.0000E+00  setid=       0
 node=   229 local x,y,z forces =    0.0000E+00    0.0000E+00    0.0000E+00  setid=       0
 node=   229 local x,y,z moments=    0.0000E+00    0.0000E+00    0.0000E+00  setid=       0
 node=   230 local x,y,z forces =    0.0000E+00    0.0000E+00    0.0000E+00  setid=       0
 node=   230 local x,y,z moments=    0.0000E+00    0.0000E+00    0.0000E+00  setid=       0
 node=   231 local x,y,z forces =    0.0000E+00    0.0000E+00    0.0000E+00  setid=       0
 node=   231 local x,y,z moments=    0.0000E+00    0.0000E+00    0.0000E+00  setid=       0
 node=   233 local x,y,z forces =    0.0000E+00    0.0000E+00    0.0000E+00  setid=       0
 node=   233 local x,y,z moments=    0.0000E+00    0.0000E+00    0.0000E+00  setid=       0
 node=   234 local x,y,z forces =    0.0000E+00    0.0000E+00    0.0000E+00  setid=       0
 node=   234 local x,y,z moments=    0.0000E+00    0.0000E+00    0.0000E+00  setid=       0
 node=   235 local x,y,z forces =    0.0000E+00    0.0000E+00    0.0000E+00  setid=       0
 node=   235 local x,y,z moments=    0.0000E+00    0.0000E+00    0.0000E+00  setid=       0
 node=   237 local x,y,z forces =    0.0000E+00    0.0000E+00    0.0000E+00  setid=       0
 node=   237 local x,y,z moments=    0.0000E+00    0.0000E+00    0.0000E+00  setid=       0
 node=   238 local x,y,z forces =    0.0000E+00    0.0000E+00    0.0000E+00  setid=       0
 node=   238 local x,y,z moments=    0.0000E+00    0.0000E+00    0.0000E+00  setid=       0
 node=   239 local x,y,z forces =    0.0000E+00    0.0000E+00    0.0000E+00  setid=       0
 node=   239 local x,y,z moments=    0.0000E+00    0.0000E+00    0.0000E+00  setid=       0
 node=   241 local x,y,z forces =    0.0000E+00    0.0000E+00    0.0000E+00  setid=       0
 node=   241 local x,y,z moments=    0.0000E+00    0.0000E+00    0.0000E+00  setid=       0
 node=   242 local x,y,z forces =    0.0000E+00    0.0000E+00    0.0000E+00  setid=       0
 node=   242 local x,y,z moments=    0.0000E+00    0.0000E+00    0.0000E+00  setid=       0
 node=   243 local x,y,z forces =    0.0000E+00    0.0000E+00    0.0000E+00  setid=       0
 node=   243 local x,y,z moments=    0.0000E+00    0.0000E+00    0.0000E+00  setid=       0
 node=   245 local x,y,z forces =    0.0000E+00    0.0000E+00    0.0000E+00  setid=       0
 node=   245 local x,y,z moments=    0.0000E+00    0.0000E+00    0.0000E+00  setid=       0
 node=   246 local x,y,z forces =    0.0000E+00    0.0000E+00    0.0000E+00  setid=       0
 node=   246 local x,y,z moments=    0.0000E+00    0.0000E+00    0.0000E+00  setid=       0
 node=   247 local x,y,z forces =    0.0000E+00    0.0000E+00    0.0000E+00  setid=       0
 node=   247 local x,y,z moments=    0.0000E+00    0.0000E+00    0.0000E+00  setid=       0
 node=   249 local x,y,z forces =    0.0000E+00    0.0000E+00    0.0000E+00  setid=       0
 node=   249 local x,y,z moments=    0.0000E+00    0.0000E+00    0.0000E+00  setid=       0
 node=   250 local x,y,z forces =    0.0000E+00    0.0000E+00    0.0000E+00  setid=       0
 node=   250 local x,y,z moments=    0.0000E+00    0.0000E+00    0.0000E+00  setid=       0
 node=   251 local x,y,z forces =    0.0000E+00    0.0000E+00    0.0000E+00  setid=       0
 node=   251 local x,y,z moments=    0.0000E+00    0.0000E+00    0.0000E+00  setid=       0
 node=   253 local x,y,z forces =    0.0000E+00    0.0000E+00    0.0000E+00  setid=       0
 node=   253 local x,y,z moments=    0.0000E+00    0.0000E+00    0.0000E+00  setid=       0
 node=   254 local x,y,z forces =    0.0000E+00    0.0000E+00    0.0000E+00  setid=       0
 node=   254 local x,y,z moments=    0.0000E+00    0.0000E+00    0.0000E+00  setid=       0
 node=   255 local x,y,z forces =    0.0000E+00    0.0000E+00    0.0000E+00  setid=       0
 node=   255 local x,y,z moments=    0.0000E+00    0.0000E+00    0.0000E+00  setid=       0
 node=   257 local x,y,z forces =    0.0000E+00    0.0000E+00    0.0000E+00  setid=       0
 node=   257 local x,y,z moments=    0.0000E+00    0.0000E+00    0.0000E+00  setid=       0
 node=   258 local x,y,z forces =    0.0000E+00    0.0000E+00    0.0000E+00  setid=       0
 node=   258 local x,y,z moments=    0.0000E+00    0.0000E+00    0.0000E+00  setid=       0
 node=   259 local x,y,z forces =    0.0000E+00    0.0000E+00    0.0000E+00  setid=       0
 node=   259 local x,y,z moments=    0.0000E+00    0.0000E+00    0.0000E+00  setid=       0
 node=   261 local x,y,z forces =    0.0000E+00    0.0000E+00    0.0000E+00  setid=       0
 node=   261 local x,y,z moments=    0.0000E+00    0.0000E+00    0.0000E+00  setid=       0
 node=   262 local x,y,z forces =    0.0000E+00    0.0000E+00    0.0000E+00  setid=       0
 node=   262 local x,y,z moments=    0.0000E+00    0.0000E+00    0.0000E+00  setid=       0
 node=   263 local x,y,z forces =    0.0000E+00    0.0000E+00    0.0000E+00  setid=       0
 node=   263 local x,y,z moments=    0.0000E+00    0.0000E+00    0.0000E+00  setid=       0
 node=   265 local x,y,z forces =    0.0000E+00    0.0000E+00    0.0000E+00  setid=       0
 node=   265 local x,y,z moments=    0.0000E+00    0.0000E+00    0.0000E+00  setid=       0
 node=   266 local x,y,z forces =    0.0000E+00    0.0000E+00    0.0000E+00  setid=       0
 node=   266 local x,y,z moments=    0.0000E+00    0.0000E+00    0.0000E+00  setid=       0
 node=   267 local x,y,z forces =    0.0000E+00    0.0000E+00    0.0000E+00  setid=       0
 node=   267 local x,y,z moments=    0.0000E+00    0.0000E+00    0.0000E+00  setid=       0
 node=   269 local x,y,z forces =    0.0000E+00    0.0000E+00    0.0000E+00  setid=       0
 node=   269 local x,y,z moments=    0.0000E+00    0.0000E+00    0.0000E+00  setid=       0
 node=   270 local x,y,z forces =    0.0000E+00    0.0000E+00    0.0000E+00  setid=       0
 node=   270 local x,y,z moments=    0.0000E+00    0.0000E+00    0.0000E+00  setid=       0
 node=   271 local x,y,z forces =    0.0000E+00    0.0000E+00    0.0000E+00  setid=       0
 node=   271 local x,y,z moments=    0.0000E+00    0.0000E+00    0.0000E+00  setid=       0
 node=   273 local x,y,z forces =    0.0000E+00    0.0000E+00    0.0000E+00  setid=       0
 node=   273 local x,y,z moments=    0.0000E+00    0.0000E+00    0.0000E+00  setid=       0
 node=   274 local x,y,z forces =    0.0000E+00    0.0000E+00    0.0000E+00  setid=       0
 node=   274 local x,y,z moments=    0.0000E+00    0.0000E+00    0.0000E+00  setid=       0
 node=   275 local x,y,z forces =    0.0000E+00    0.0000E+00    0.0000E+00  setid=       0
 node=   275 local x,y,z moments=    0.0000E+00    0.0000E+00    0.0000E+00  setid=       0
 node=   277 local x,y,z forces =    0.0000E+00    0.0000E+00    0.0000E+00  setid=       0
 node=   277 local x,y,z moments=    0.0000E+00    0.0000E+00    0.0000E+00  setid=       0
 node=   278 local x,y,z forces =    0.0000E+00    0.0000E+00    0.0000E+00  setid=       0
 node=   278 local x,y,z moments=    0.0000E+00    0.0000E+00    0.0000E+00  setid=       0
 node=   279 local x,y,z forces =    0.0000E+00    0.0000E+00    0.0000E+00  setid=       0
 node=   279 local x,y,z moments=    0.0000E+00    0.0000E+00    0.0000E+00  setid=       0
 node=   281 local x,y,z forces =    0.0000E+00    0.0000E+00    0.0000E+00  setid=       0
 node=   281 local x,y,z moments=    0.0000E+00    0.0000E+00    0.0000E+00  setid=       0
 node=   282 local x,y,z forces =    0.0000E+00    0.0000E+00    0.0000E+00  setid=       0
 node=   282 local x,y,z moments=    0.0000E+00    0.0000E+00    0.0000E+00  setid=       0
 node=   283 local x,y,z forces =    0.0000E+00    0.0000E+00    0.0000E+00  setid=       0
 node=   283 local x,y,z moments=    0.0000E+00    0.0000E+00    0.0000E+00  setid=       0
 node=   284 local x,y,z forces =    0.0000E+00    0.0000E+00    0.0000E+00  setid=       0
 node=   284 local x,y,z moments=    0.0000E+00    0.0000E+00    0.0000E+00  setid=       0
 node=   285 local x,y,z forces =    0.0000E+00    0.0000E+00    0.0000E+00  setid=       0
 node=   285 local x,y,z moments=    0.0000E+00    0.0000E+00    0.0000E+00  setid=       0
 node=   286 local x,y,z forces =    0.0000E+00    0.0000E+00    0.0000E+00  setid=       0
 node=   286 local x,y,z moments=    0.0000E+00    0.0000E+00    0.0000E+00  setid=       0
 node=   287 local x,y,z forces =    0.0000E+00    0.0000E+00    0.0000E+00  setid=       0
 node=   287 local x,y,z moments=    0.0000E+00    0.0000E+00    0.0000E+00  setid=       0
 node=   288 local x,y,z forces =    0.0000E+00    0.0000E+00    0.0000E+00  setid=       0
 node=   288 local x,y,z moments=    0.0000E+00    0.0000E+00    0.0000E+00  setid=       0
 node=   289 local x,y,z forces =    0.0000E+00    0.0000E+00    0.0000E+00  setid=       0
 node=   289 local x,y,z moments=    0.0000E+00    0.0000E+00    0.0000E+00  setid=       0
 node=   290 local x,y,z forces =    0.0000E+00    0.0000E+00    0.0000E+00  setid=       0
 node=   290 local x,y,z moments=    0.0000E+00    0.0000E+00    0.0000E+00  setid=       0
 node=   291 local x,y,z forces =    0.0000E+00    0.0000E+00    0.0000E+00  setid=       0
 node=   291 local x,y,z moments=    0.0000E+00    0.0000E+00    0.0000E+00  setid=       0
 node=   292 local x,y,z forces =    0.0000E+00    0.0000E+00    0.0000E+00  setid=       0
 node=   292 local x,y,z moments=    0.0000E+00    0.0000E+00    0.0000E+00  setid=       0
 node=   293 local x,y,z forces =    0.0000E+00    0.0000E+00    0.0000E+00  setid=       0
 node=   293 local x,y,z moments=    0.0000E+00    0.0000E+00    0.0000E+00  setid=       0
 node=   294 local x,y,z forces =    0.0000E+00    0.0000E+00    0.0000E+00  setid=       0
 node=   294 local x,y,z moments=    0.0000E+00    0.0000E+00    0.0000E+00  setid=       0
 node=   295 local x,y,z forces =    0.0000E+00    0.0000E+00    0.0000E+00  setid=       0
 node=   295 local x,y,z moments=    0.0000E+00    0.0000E+00    0.0000E+00  setid=       0
 node=   296 local x,y,z forces =    0.0000E+00    0.0000E+00    0.0000E+00  setid=       0
 node=   296 local x,y,z moments=    0.0000E+00    0.0000E+00    0.0000E+00  setid=       0
 node=   339 local x,y,z forces =    0.0000E+00    0.0000E+00    0.0000E+00  setid=       0
 node=   339 local x,y,z moments=    0.0000E+00    0.0000E+00    0.0000E+00  setid=       0
 node=   340 local x,y,z forces =    0.0000E+00    0.0000E+00    0.0000E+00  setid=       0
 node=   340 local x,y,z moments=    0.0000E+00    0.0000E+00    0.0000E+00  setid=       0
 node=   341 local x,y,z forces =    0.0000E+00    0.0000E+00    0.0000E+00  setid=       0
 node=   341 local x,y,z moments=    0.0000E+00    0.0000E+00    0.0000E+00  setid=       0
 node=   342 local x,y,z forces =    0.0000E+00    0.0000E+00    0.0000E+00  setid=       0
 node=   342 local x,y,z moments=    0.0000E+00    0.0000E+00    0.0000E+00  setid=       0
 node=   343 local x,y,z forces =    0.0000E+00    0.0000E+00    0.0000E+00  setid=       0
 node=   343 local x,y,z moments=    0.0000E+00    0.0000E+00    0.0000E+00  setid=       0
 node=   344 local x,y,z forces =    0.0000E+00    0.0000E+00    0.0000E+00  setid=       0
 node=   344 local x,y,z moments=    0.0000E+00    0.0000E+00    0.0000E+00  setid=       0
 node=   345 local x,y,z forces =    0.0000E+00    0.0000E+00    0.0000E+00  setid=       0
 node=   345 local x,y,z moments=    0.0000E+00    0.0000E+00    0.0000E+00  setid=       0
 node=   346 local x,y,z forces =    0.0000E+00    0.0000E+00    0.0000E+00  setid=       0
 node=   346 local x,y,z moments=    0.0000E+00    0.0000E+00    0.0000E+00  setid=       0
 node=   347 local x,y,z forces =    0.0000E+00    0.0000E+00    0.0000E+00  setid=       0
 node=   347 local x,y,z moments=    0.0000E+00    0.0000E+00    0.0000E+00  setid=       0
 node=   348 local x,y,z forces =    0.0000E+00    0.0000E+00    0.0000E+00  setid=       0
 node=   348 local x,y,z moments=    0.0000E+00    0.0000E+00    0.0000E+00  setid=       0
 node=   349 local x,y,z forces =    0.0000E+00    0.0000E+00    0.0000E+00  setid=       0
 node=   349 local x,y,z moments=    0.0000E+00    0.0000E+00    0.0000E+00  setid=       0
 node=   350 local x,y,z forces =    0.0000E+00    0.0000E+00    0.0000E+00  setid=       0
 node=   350 local x,y,z moments=    0.0000E+00    0.0000E+00    0.0000E+00  setid=       0
 node=   351 local x,y,z forces =    0.0000E+00    0.0000E+00    0.0000E+00  setid=       0
 node=   351 local x,y,z moments=    0.0000E+00    0.0000E+00    0.0000E+00  setid=       0
 node=   352 local x,y,z forces =    0.0000E+00    0.0000E+00    0.0000E+00  setid=       0
 node=   352 local x,y,z moments=    0.0000E+00    0.0000E+00    0.0000E+00  setid=       0
 node=   353 local x,y,z forces =    0.0000E+00    0.0000E+00    0.0000E+00  setid=       0
 node=   353 local x,y,z moments=    0.0000E+00    0.0000E+00    0.0000E+00  setid=       0
 node=   354 local x,y,z forces =    0.0000E+00    0.0000E+00    0.0000E+00  setid=       0
 node=   354 local x,y,z moments=    0.0000E+00    0.0000E+00    0.0000E+00  setid=       0
 node=   355 local x,y,z forces =    0.0000E+00    0.0000E+00    0.0000E+00  setid=       0
 node=   355 local x,y,z moments=    0.0000E+00    0.0000E+00    0.0000E+00  setid=       0
 node=   356 local x,y,z forces =    0.0000E+00    0.0000E+00    0.0000E+00  setid=       0
 node=   356 local x,y,z moments=    0.0000E+00    0.0000E+00    0.0000E+00  setid=       0
 node=   357 local x,y,z forces =    0.0000E+00    0.0000E+00    0.0000E+00  setid=       0
 node=   357 local x,y,z moments=    0.0000E+00    0.0000E+00    0.0000E+00  setid=       0
 node=   358 local x,y,z forces =    0.0000E+00    0.0000E+00    0.0000E+00  setid=       0
 node=   358 local x,y,z moments=    0.0000E+00    0.0000E+00    0.0000E+00  setid=       0
 node=   359 local x,y,z forces =    0.0000E+00    0.0000E+00    0.0000E+00  setid=       0
 node=   359 local x,y,z moments=    0.0000E+00    0.0000E+00    0.0000E+00  setid=       0
 node=   360 local x,y,z forces =    0.0000E+00    0.0000E+00    0.0000E+00  setid=       0
 node=   360 local x,y,z moments=    0.0000E+00    0.0000E+00    0.0000E+00  setid=       0
 node=   361 local x,y,z forces =    0.0000E+00    0.0000E+00    0.0000E+00  setid=       0
 node=   361 local x,y,z moments=    0.0000E+00    0.0000E+00    0.0000E+00  setid=       0
 node=   362 local x,y,z forces =    0.0000E+00    0.0000E+00    0.0000E+00  setid=       0
 node=   362 local x,y,z moments=    0.0000E+00    0.0000E+00    0.0000E+00  setid=       0
 node=   363 local x,y,z forces =    0.0000E+00    0.0000E+00    0.0000E+00  setid=       0
 node=   363 local x,y,z moments=    0.0000E+00    0.0000E+00    0.0000E+00  setid=       0
 node=   364 local x,y,z forces =    0.0000E+00    0.0000E+00    0.0000E+00  setid=       0
 node=   364 local x,y,z moments=    0.0000E+00    0.0000E+00    0.0000E+00  setid=       0
 node=   365 local x,y,z forces =    0.0000E+00    0.0000E+00    0.0000E+00  setid=       0
 node=   365 local x,y,z moments=    0.0000E+00    0.0000E+00    0.0000E+00  setid=       0
 node=   366 local x,y,z forces =    0.0000E+00    0.0000E+00    0.0000E+00  setid=       0
 node=   366 local x,y,z moments=    0.0000E+00    0.0000E+00    0.0000E+00  setid=       0
 node=   367 local x,y,z forces =    0.0000E+00    0.0000E+00    0.0000E+00  setid=       0
 node=   367 local x,y,z moments=    0.0000E+00    0.0000E+00    0.0000E+00  setid=       0
 node=   368 local x,y,z forces =    0.0000E+00    0.0000E+00    0.0000E+00  setid=       0
 node=   368 local x,y,z moments=    0.0000E+00    0.0000E+00    0.0000E+00  setid=       0
 node=   369 local x,y,z forces =    0.0000E+00    0.0000E+00    0.0000E+00  setid=       0
 node=   369 local x,y,z moments=    0.0000E+00    0.0000E+00    0.0000E+00  setid=       0
 node=   370 local x,y,z forces =    0.0000E+00    0.0000E+00    0.0000E+00  setid=       0
 node=   370 local x,y,z moments=    0.0000E+00    0.0000E+00    0.0000E+00  setid=       0
 node=   371 local x,y,z forces =    0.0000E+00    0.0000E+00    0.0000E+00  setid=       0
 node=   371 local x,y,z moments=    0.0000E+00    0.0000E+00    0.0000E+00  setid=       0
 node=   372 local x,y,z forces =    0.0000E+00    0.0000E+00    0.0000E+00  setid=       0
 node=   372 local x,y,z moments=    0.0000E+00    0.0000E+00    0.0000E+00  setid=       0
 node=   373 local x,y,z forces =    0.0000E+00    0.0000E+00    0.0000E+00  setid=       0
 node=   373 local x,y,z moments=    0.0000E+00    0.0000E+00    0.0000E+00  setid=       0
 node=   374 local x,y,z forces =    0.0000E+00    0.0000E+00    0.0000E+00  setid=       0
 node=   374 local x,y,z moments=    0.0000E+00    0.0000E+00    0.0000E+00  setid=       0
 node=   375 local x,y,z forces =    0.0000E+00    0.0000E+00    0.0000E+00  setid=       0
 node=   375 local x,y,z moments=    0.0000E+00    0.0000E+00    0.0000E+00  setid=       0
 node=   376 local x,y,z forces =    0.0000E+00    0.0000E+00    0.0000E+00  setid=       0
 node=   376 local x,y,z moments=    0.0000E+00    0.0000E+00    0.0000E+00  setid=       0
 node=   377 local x,y,z forces =    0.0000E+00    0.0000E+00    0.0000E+00  setid=       0
 node=   377 local x,y,z moments=    0.0000E+00    0.0000E+00    0.0000E+00  setid=       0
 node=   378 local x,y,z forces =    0.0000E+00    0.0000E+00    0.0000E+00  setid=       0
 node=   378 local x,y,z moments=    0.0000E+00    0.0000E+00    0.0000E+00  setid=       0
 node=   379 local x,y,z forces =    0.0000E+00    0.0000E+00    0.0000E+00  setid=       0
 node=   379 local x,y,z moments=    0.0000E+00    0.0000E+00    0.0000E+00  setid=       0
 node=   380 local x,y,z forces =    0.0000E+00    0.0000E+00    0.0000E+00  setid=       0
 node=   380 local x,y,z moments=    0.0000E+00    0.0000E+00    0.0000E+00  setid=       0
 node=   591 local x,y,z forces =    0.0000E+00    0.0000E+00    0.0000E+00  setid=       0
 node=   591 local x,y,z moments=    0.0000E+00    0.0000E+00    0.0000E+00  setid=       0
 node=   592 local x,y,z forces =    0.0000E+00    0.0000E+00    0.0000E+00  setid=       0
 node=   592 local x,y,z moments=    0.0000E+00    0.0000E+00    0.0000E+00  setid=       0
 node=   593 local x,y,z forces =    0.0000E+00    0.0000E+00    0.0000E+00  setid=       0
 node=   593 local x,y,z moments=    0.0000E+00    0.0000E+00    0.0000E+00  setid=       0
 node=   594 local x,y,z forces =    0.0000E+00    0.0000E+00    0.0000E+00  setid=       0
 node=   594 local x,y,z moments=    0.0000E+00    0.0000E+00    0.0000E+00  setid=       0
 node=   595 local x,y,z forces =    0.0000E+00    0.0000E+00    0.0000E+00  setid=       0
 node=   595 local x,y,z moments=    0.0000E+00    0.0000E+00    0.0000E+00  setid=       0
 node=   596 local x,y,z forces =    0.0000E+00    0.0000E+00    0.0000E+00  setid=       0
 node=   596 local x,y,z moments=    0.0000E+00    0.0000E+00    0.0000E+00  setid=       0
 node=   597 local x,y,z forces =    0.0000E+00    0.0000E+00    0.0000E+00  setid=       0
 node=   597 local x,y,z moments=    0.0000E+00    0.0000E+00    0.0000E+00  setid=       0
 node=   598 local x,y,z forces =    0.0000E+00    0.0000E+00    0.0000E+00  setid=       0
 node=   598 local x,y,z moments=    0.0000E+00    0.0000E+00    0.0000E+00  setid=       0
 node=   599 local x,y,z forces =    0.0000E+00    0.0000E+00    0.0000E+00  setid=       0
 node=   599 local x,y,z moments=    0.0000E+00    0.0000E+00    0.0000E+00  setid=       0
 node=   600 local x,y,z forces =    0.0000E+00    0.0000E+00    0.0000E+00  setid=       0
 node=   600 local x,y,z moments=    0.0000E+00    0.0000E+00    0.0000E+00  setid=       0
 node=   601 local x,y,z forces =    0.0000E+00    0.0000E+00    0.0000E+00  setid=       0
 node=   601 local x,y,z moments=    0.0000E+00    0.0000E+00    0.0000E+00  setid=       0
 node=   602 local x,y,z forces =    0.0000E+00    0.0000E+00    0.0000E+00  setid=       0
 node=   602 local x,y,z moments=    0.0000E+00    0.0000E+00    0.0000E+00  setid=       0
 node=   603 local x,y,z forces =    0.0000E+00    0.0000E+00    0.0000E+00  setid=       0
 node=   603 local x,y,z moments=    0.0000E+00    0.0000E+00    0.0000E+00  setid=       0
 node=   604 local x,y,z forces =    0.0000E+00    0.0000E+00    0.0000E+00  setid=       0
 node=   604 local x,y,z moments=    0.0000E+00    0.0000E+00    0.0000E+00  setid=       0
 node=   605 local x,y,z forces =    0.0000E+00    0.0000E+00    0.0000E+00  setid=       0
 node=   605 local x,y,z moments=    0.0000E+00    0.0000E+00    0.0000E+00  setid=       0
 node=   606 local x,y,z forces =    0.0000E+00    0.0000E+00    0.0000E+00  setid=       0
 node=   606 local x,y,z moments=    0.0000E+00    0.0000E+00    0.0000E+00  setid=       0
 node=   607 local x,y,z forces =    0.0000E+00    0.0000E+00    0.0000E+00  setid=       0
 node=   607 local x,y,z moments=    0.0000E+00    0.0000E+00    0.0000E+00  setid=       0
 node=   608 local x,y,z forces =    0.0000E+00    0.0000E+00    0.0000E+00  setid=       0
 node=   608 local x,y,z moments=    0.0000E+00    0.0000E+00    0.0000E+00  setid=       0
 node=   609 local x,y,z forces =    0.0000E+00    0.0000E+00    0.0000E+00  setid=       0
 node=   609 local x,y,z moments=    0.0000E+00    0.0000E+00    0.0000E+00  setid=       0
 node=   610 local x,y,z forces =    0.0000E+00    0.0000E+00    0.0000E+00  setid=       0
 node=   610 local x,y,z moments=    0.0000E+00    0.0000E+00    0.0000E+00  setid=       0
 node=   611 local x,y,z forces =    0.0000E+00    0.0000E+00    0.0000E+00  setid=       0
 node=   611 local x,y,z moments=    0.0000E+00    0.0000E+00    0.0000E+00  setid=       0
 node=   612 local x,y,z forces =    0.0000E+00    0.0000E+00    0.0000E+00  setid=       0
 node=   612 local x,y,z moments=    0.0000E+00    0.0000E+00    0.0000E+00  setid=       0
 node=   613 local x,y,z forces =    0.0000E+00    0.0000E+00    0.0000E+00  setid=       0
 node=   613 local x,y,z moments=    0.0000E+00    0.0000E+00    0.0000E+00  setid=       0
 node=   614 local x,y,z forces =    0.0000E+00    0.0000E+00    0.0000E+00  setid=       0
 node=   614 local x,y,z moments=    0.0000E+00    0.0000E+00    0.0000E+00  setid=       0
 node=   615 local x,y,z forces =    0.0000E+00    0.0000E+00    0.0000E+00  setid=       0
 node=   615 local x,y,z moments=    0.0000E+00    0.0000E+00    0.0000E+00  setid=       0
 node=   616 local x,y,z forces =    0.0000E+00    0.0000E+00    0.0000E+00  setid=       0
 node=   616 local x,y,z moments=    0.0000E+00    0.0000E+00    0.0000E+00  setid=       0
 node=   617 local x,y,z forces =    0.0000E+00    0.0000E+00    0.0000E+00  setid=       0
 node=   617 local x,y,z moments=    0.0000E+00    0.0000E+00    0.0000E+00  setid=       0
 node=   618 local x,y,z forces =    0.0000E+00    0.0000E+00    0.0000E+00  setid=       0
 node=   618 local x,y,z moments=    0.0000E+00    0.0000E+00    0.0000E+00  setid=       0
 node=   619 local x,y,z forces =    0.0000E+00    0.0000E+00    0.0000E+00  setid=       0
 node=   619 local x,y,z moments=    0.0000E+00    0.0000E+00    0.0000E+00  setid=       0
 node=   620 local x,y,z forces =    0.0000E+00    0.0000E+00    0.0000E+00  setid=       0
 node=   620 local x,y,z moments=    0.0000E+00    0.0000E+00    0.0000E+00  setid=       0
 node=   621 local x,y,z forces =    0.0000E+00    0.0000E+00    0.0000E+00  setid=       0
 node=   621 local x,y,z moments=    0.0000E+00    0.0000E+00    0.0000E+00  setid=       0
 node=   622 local x,y,z forces =    0.0000E+00    0.0000E+00    0.0000E+00  setid=       0
 node=   622 local x,y,z moments=    0.0000E+00    0.0000E+00    0.0000E+00  setid=       0
 node=   623 local x,y,z forces =    0.0000E+00    0.0000E+00    0.0000E+00  setid=       0
 node=   623 local x,y,z moments=    0.0000E+00    0.0000E+00    0.0000E+00  setid=       0
 node=   624 local x,y,z forces =    0.0000E+00    0.0000E+00    0.0000E+00  setid=       0
 node=   624 local x,y,z moments=    0.0000E+00    0.0000E+00    0.0000E+00  setid=       0
 node=   625 local x,y,z forces =    0.0000E+00    0.0000E+00    0.0000E+00  setid=       0
 node=   625 local x,y,z moments=    0.0000E+00    0.0000E+00    0.0000E+00  setid=       0
 node=   626 local x,y,z forces =    0.0000E+00    0.0000E+00    0.0000E+00  setid=       0
 node=   626 local x,y,z moments=    0.0000E+00    0.0000E+00    0.0000E+00  setid=       0
 node=   627 local x,y,z forces =    0.0000E+00    0.0000E+00    0.0000E+00  setid=       0
 node=   627 local x,y,z moments=    0.0000E+00    0.0000E+00    0.0000E+00  setid=       0
 node=   628 local x,y,z forces =    0.0000E+00    0.0000E+00    0.0000E+00  setid=       0
 node=   628 local x,y,z moments=    0.0000E+00    0.0000E+00    0.0000E+00  setid=       0
 node=   629 local x,y,z forces =    0.0000E+00    0.0000E+00    0.0000E+00  setid=       0
 node=   629 local x,y,z moments=    0.0000E+00    0.0000E+00    0.0000E+00  setid=       0
 node=   630 local x,y,z forces =    0.0000E+00    0.0000E+00    0.0000E+00  setid=       0
 node=   630 local x,y,z moments=    0.0000E+00    0.0000E+00    0.0000E+00  setid=       0
 node=   631 local x,y,z forces =    0.0000E+00    0.0000E+00    0.0000E+00  setid=       0
 node=   631 local x,y,z moments=    0.0000E+00    0.0000E+00    0.0000E+00  setid=       0
 node=   632 local x,y,z forces =    0.0000E+00    0.0000E+00    0.0000E+00  setid=       0
 node=   632 local x,y,z moments=    0.0000E+00    0.0000E+00    0.0000E+00  setid=       0
 node=   633 local x,y,z forces =    0.0000E+00    0.0000E+00    0.0000E+00  setid=       0
 node=   633 local x,y,z moments=    0.0000E+00    0.0000E+00    0.0000E+00  setid=       0
 node=   634 local x,y,z forces =    0.0000E+00    0.0000E+00    0.0000E+00  setid=       0
 node=   634 local x,y,z moments=    0.0000E+00    0.0000E+00    0.0000E+00  setid=       0
 node=   635 local x,y,z forces =    0.0000E+00    0.0000E+00    0.0000E+00  setid=       0
 node=   635 local x,y,z moments=    0.0000E+00    0.0000E+00    0.0000E+00  setid=       0
 node=   636 local x,y,z forces =    0.0000E+00    0.0000E+00    0.0000E+00  setid=       0
 node=   636 local x,y,z moments=    0.0000E+00    0.0000E+00    0.0000E+00  setid=       0
 node=   637 local x,y,z forces =    0.0000E+00    0.0000E+00    0.0000E+00  setid=       0
 node=   637 local x,y,z moments=    0.0000E+00    0.0000E+00    0.0000E+00  setid=       0
 node=   638 local x,y,z forces =    0.0000E+00    0.0000E+00    0.0000E+00  setid=       0
 node=   638 local x,y,z moments=    0.0000E+00    0.0000E+00    0.0000E+00  setid=       0
 node=   639 local x,y,z forces =    0.0000E+00    0.0000E+00    0.0000E+00  setid=       0
 node=   639 local x,y,z moments=    0.0000E+00    0.0000E+00    0.0000E+00  setid=       0
 node=   640 local x,y,z forces =    0.0000E+00    0.0000E+00    0.0000E+00  setid=       0
 node=   640 local x,y,z moments=    0.0000E+00    0.0000E+00    0.0000E+00  setid=       0
 node=   641 local x,y,z forces =    0.0000E+00    0.0000E+00    0.0000E+00  setid=       0
 node=   641 local x,y,z moments=    0.0000E+00    0.0000E+00    0.0000E+00  setid=       0
 node=   642 local x,y,z forces =    0.0000E+00    0.0000E+00    0.0000E+00  setid=       0
 node=   642 local x,y,z moments=    0.0000E+00    0.0000E+00    0.0000E+00  setid=       0
 node=   643 local x,y,z forces =    0.0000E+00    0.0000E+00    0.0000E+00  setid=       0
 node=   643 local x,y,z moments=    0.0000E+00    0.0000E+00    0.0000E+00  setid=       0
 node=   644 local x,y,z forces =    0.0000E+00    0.0000E+00    0.0000E+00  setid=       0
 node=   644 local x,y,z moments=    0.0000E+00    0.0000E+00    0.0000E+00  setid=       0
 node=   645 local x,y,z forces =    0.0000E+00    0.0000E+00    0.0000E+00  setid=       0
 node=   645 local x,y,z moments=    0.0000E+00    0.0000E+00    0.0000E+00  setid=       0
 node=   646 local x,y,z forces =    0.0000E+00    0.0000E+00    0.0000E+00  setid=       0
 node=   646 local x,y,z moments=    0.0000E+00    0.0000E+00    0.0000E+00  setid=       0
 node=   647 local x,y,z forces =    0.0000E+00    0.0000E+00    0.0000E+00  setid=       0
 node=   647 local x,y,z moments=    0.0000E+00    0.0000E+00    0.0000E+00  setid=       0
 node=   648 local x,y,z forces =    0.0000E+00    0.0000E+00    0.0000E+00  setid=       0
 node=   648 local x,y,z moments=    0.0000E+00    0.0000E+00    0.0000E+00  setid=       0
 node=   649 local x,y,z forces =    0.0000E+00    0.0000E+00    0.0000E+00  setid=       0
 node=   649 local x,y,z moments=    0.0000E+00    0.0000E+00    0.0000E+00  setid=       0
 node=   650 local x,y,z forces =    0.0000E+00    0.0000E+00    0.0000E+00  setid=       0
 node=   650 local x,y,z moments=    0.0000E+00    0.0000E+00    0.0000E+00  setid=       0
 node=   657 local x,y,z forces =    0.0000E+00    0.0000E+00    0.0000E+00  setid=       0
 node=   657 local x,y,z moments=    0.0000E+00    0.0000E+00    0.0000E+00  setid=       0
 node=   658 local x,y,z forces =    0.0000E+00    0.0000E+00    0.0000E+00  setid=       0
 node=   658 local x,y,z moments=    0.0000E+00    0.0000E+00    0.0000E+00  setid=       0
 node=   671 local x,y,z forces =    0.0000E+00    0.0000E+00    0.0000E+00  setid=       0
 node=   671 local x,y,z moments=    0.0000E+00    0.0000E+00    0.0000E+00  setid=       0
 node=   672 local x,y,z forces =    0.0000E+00    0.0000E+00    0.0000E+00  setid=       0
 node=   672 local x,y,z moments=    0.0000E+00    0.0000E+00    0.0000E+00  setid=       0
 node=   673 local x,y,z forces =    0.0000E+00    0.0000E+00    0.0000E+00  setid=       0
 node=   673 local x,y,z moments=    0.0000E+00    0.0000E+00    0.0000E+00  setid=       0
 node=   674 local x,y,z forces =    0.0000E+00    0.0000E+00    0.0000E+00  setid=       0
 node=   674 local x,y,z moments=    0.0000E+00    0.0000E+00    0.0000E+00  setid=       0
 node=   681 local x,y,z forces =    0.0000E+00    0.0000E+00    0.0000E+00  setid=       0
 node=   681 local x,y,z moments=    0.0000E+00    0.0000E+00    0.0000E+00  setid=       0
 node=   682 local x,y,z forces =    0.0000E+00    0.0000E+00    0.0000E+00  setid=       0
 node=   682 local x,y,z moments=    0.0000E+00    0.0000E+00    0.0000E+00  setid=       0
 node=   695 local x,y,z forces =    0.0000E+00    0.0000E+00    0.0000E+00  setid=       0
 node=   695 local x,y,z moments=    0.0000E+00    0.0000E+00    0.0000E+00  setid=       0
 node=   696 local x,y,z forces =    0.0000E+00    0.0000E+00    0.0000E+00  setid=       0
 node=   696 local x,y,z moments=    0.0000E+00    0.0000E+00    0.0000E+00  setid=       0
 node=   697 local x,y,z forces =    0.0000E+00    0.0000E+00    0.0000E+00  setid=       0
 node=   697 local x,y,z moments=    0.0000E+00    0.0000E+00    0.0000E+00  setid=       0
 node=   698 local x,y,z forces =    0.0000E+00    0.0000E+00    0.0000E+00  setid=       0
 node=   698 local x,y,z moments=    0.0000E+00    0.0000E+00    0.0000E+00  setid=       0
 node=   711 local x,y,z forces =    0.0000E+00    0.0000E+00    0.0000E+00  setid=       0
 node=   711 local x,y,z moments=    0.0000E+00    0.0000E+00    0.0000E+00  setid=       0
 node=   712 local x,y,z forces =    0.0000E+00    0.0000E+00    0.0000E+00  setid=       0
 node=   712 local x,y,z moments=    0.0000E+00    0.0000E+00    0.0000E+00  setid=       0
 node=   713 local x,y,z forces =    0.0000E+00    0.0000E+00    0.0000E+00  setid=       0
 node=   713 local x,y,z moments=    0.0000E+00    0.0000E+00    0.0000E+00  setid=       0
 node=   714 local x,y,z forces =    0.0000E+00    0.0000E+00    0.0000E+00  setid=       0
 node=   714 local x,y,z moments=    0.0000E+00    0.0000E+00    0.0000E+00  setid=       0
 node=   721 local x,y,z forces =    0.0000E+00    0.0000E+00    0.0000E+00  setid=       0
 node=   721 local x,y,z moments=    0.0000E+00    0.0000E+00    0.0000E+00  setid=       0
 node=   722 local x,y,z forces =    0.0000E+00    0.0000E+00    0.0000E+00  setid=       0
 node=   722 local x,y,z moments=    0.0000E+00    0.0000E+00    0.0000E+00  setid=       0
 node=   735 local x,y,z forces =    0.0000E+00    0.0000E+00    0.0000E+00  setid=       0
 node=   735 local x,y,z moments=    0.0000E+00    0.0000E+00    0.0000E+00  setid=       0
 node=   736 local x,y,z forces =    0.0000E+00    0.0000E+00    0.0000E+00  setid=       0
 node=   736 local x,y,z moments=    0.0000E+00    0.0000E+00    0.0000E+00  setid=       0
 node=   737 local x,y,z forces =    0.0000E+00    0.0000E+00    0.0000E+00  setid=       0
 node=   737 local x,y,z moments=    0.0000E+00    0.0000E+00    0.0000E+00  setid=       0
 node=   738 local x,y,z forces =    0.0000E+00    0.0000E+00    0.0000E+00  setid=       0
 node=   738 local x,y,z moments=    0.0000E+00    0.0000E+00    0.0000E+00  setid=       0
 node=   745 local x,y,z forces =    0.0000E+00    0.0000E+00    0.0000E+00  setid=       0
 node=   745 local x,y,z moments=    0.0000E+00    0.0000E+00    0.0000E+00  setid=       0
 node=   746 local x,y,z forces =    0.0000E+00    0.0000E+00    0.0000E+00  setid=       0
 node=   746 local x,y,z moments=    0.0000E+00    0.0000E+00    0.0000E+00  setid=       0
 node=   753 local x,y,z forces =    0.0000E+00    0.0000E+00    0.0000E+00  setid=       0
 node=   753 local x,y,z moments=    0.0000E+00    0.0000E+00    0.0000E+00  setid=       0
 node=   754 local x,y,z forces =    0.0000E+00    0.0000E+00    0.0000E+00  setid=       0
 node=   754 local x,y,z moments=    0.0000E+00    0.0000E+00    0.0000E+00  setid=       0
 node=   761 local x,y,z forces =    0.0000E+00    0.0000E+00    0.0000E+00  setid=       0
 node=   761 local x,y,z moments=    0.0000E+00    0.0000E+00    0.0000E+00  setid=       0
 node=   762 local x,y,z forces =    0.0000E+00    0.0000E+00    0.0000E+00  setid=       0
 node=   762 local x,y,z moments=    0.0000E+00    0.0000E+00    0.0000E+00  setid=       0
 node=   769 local x,y,z forces =    0.0000E+00    0.0000E+00    0.0000E+00  setid=       0
 node=   769 local x,y,z moments=    0.0000E+00    0.0000E+00    0.0000E+00  setid=       0
 node=   770 local x,y,z forces =    0.0000E+00    0.0000E+00    0.0000E+00  setid=       0
 node=   770 local x,y,z moments=    0.0000E+00    0.0000E+00    0.0000E+00  setid=       0
 node=   780 local x,y,z forces =    0.0000E+00    0.0000E+00    0.0000E+00  setid=       0
 node=   780 local x,y,z moments=    0.0000E+00    0.0000E+00    0.0000E+00  setid=       0
 node=   781 local x,y,z forces =    0.0000E+00    0.0000E+00    0.0000E+00  setid=       0
 node=   781 local x,y,z moments=    0.0000E+00    0.0000E+00    0.0000E+00  setid=       0
 node=   782 local x,y,z forces =    0.0000E+00    0.0000E+00    0.0000E+00  setid=       0
 node=   782 local x,y,z moments=    0.0000E+00    0.0000E+00    0.0000E+00  setid=       0
 node=   795 local x,y,z forces =    0.0000E+00    0.0000E+00    0.0000E+00  setid=       0
 node=   795 local x,y,z moments=    0.0000E+00    0.0000E+00    0.0000E+00  setid=       0
 node=   796 local x,y,z forces =    0.0000E+00    0.0000E+00    0.0000E+00  setid=       0
 node=   796 local x,y,z moments=    0.0000E+00    0.0000E+00    0.0000E+00  setid=       0
 node=   797 local x,y,z forces =    0.0000E+00    0.0000E+00    0.0000E+00  setid=       0
 node=   797 local x,y,z moments=    0.0000E+00    0.0000E+00    0.0000E+00  setid=       0
 node=   798 local x,y,z forces =    0.0000E+00    0.0000E+00    0.0000E+00  setid=       0
 node=   798 local x,y,z moments=    0.0000E+00    0.0000E+00    0.0000E+00  setid=       0
 node=   802 local x,y,z forces =    0.0000E+00    0.0000E+00    0.0000E+00  setid=       0
 node=   802 local x,y,z moments=    0.0000E+00    0.0000E+00    0.0000E+00  setid=       0
 node=   809 local x,y,z forces =    0.0000E+00    0.0000E+00    0.0000E+00  setid=       0
 node=   809 local x,y,z moments=    0.0000E+00    0.0000E+00    0.0000E+00  setid=       0
 node=   810 local x,y,z forces =    0.0000E+00    0.0000E+00    0.0000E+00  setid=       0
 node=   810 local x,y,z moments=    0.0000E+00    0.0000E+00    0.0000E+00  setid=       0
 node=   814 local x,y,z forces =    0.0000E+00    0.0000E+00    0.0000E+00  setid=       0
 node=   814 local x,y,z moments=    0.0000E+00    0.0000E+00    0.0000E+00  setid=       0
 node=   824 local x,y,z forces =    0.0000E+00    0.0000E+00    0.0000E+00  setid=       0
 node=   824 local x,y,z moments=    0.0000E+00    0.0000E+00    0.0000E+00  setid=       0
 node=   825 local x,y,z forces =    0.0000E+00    0.0000E+00    0.0000E+00  setid=       0
 node=   825 local x,y,z moments=    0.0000E+00    0.0000E+00    0.0000E+00  setid=       0
 node=   826 local x,y,z forces =    0.0000E+00    0.0000E+00    0.0000E+00  setid=       0
 node=   826 local x,y,z moments=    0.0000E+00    0.0000E+00    0.0000E+00  setid=       0
 node=   833 local x,y,z forces =    0.0000E+00    0.0000E+00    0.0000E+00  setid=       0
 node=   833 local x,y,z moments=    0.0000E+00    0.0000E+00    0.0000E+00  setid=       0
 node=   834 local x,y,z forces =    0.0000E+00    0.0000E+00    0.0000E+00  setid=       0
 node=   834 local x,y,z moments=    0.0000E+00    0.0000E+00    0.0000E+00  setid=       0
 node=   838 local x,y,z forces =    0.0000E+00    0.0000E+00    0.0000E+00  setid=       0
 node=   838 local x,y,z moments=    0.0000E+00    0.0000E+00    0.0000E+00  setid=       0
 node=   842 local x,y,z forces =    0.0000E+00    0.0000E+00    0.0000E+00  setid=       0
 node=   842 local x,y,z moments=    0.0000E+00    0.0000E+00    0.0000E+00  setid=       0
 node=   849 local x,y,z forces =    0.0000E+00    0.0000E+00    0.0000E+00  setid=       0
 node=   849 local x,y,z moments=    0.0000E+00    0.0000E+00    0.0000E+00  setid=       0
 node=   850 local x,y,z forces =    0.0000E+00    0.0000E+00    0.0000E+00  setid=       0
 node=   850 local x,y,z moments=    0.0000E+00    0.0000E+00    0.0000E+00  setid=       0
 node=   857 local x,y,z forces =    0.0000E+00    0.0000E+00    0.0000E+00  setid=       0
 node=   857 local x,y,z moments=    0.0000E+00    0.0000E+00    0.0000E+00  setid=       0
 node=   858 local x,y,z forces =    0.0000E+00    0.0000E+00    0.0000E+00  setid=       0
 node=   858 local x,y,z moments=    0.0000E+00    0.0000E+00    0.0000E+00  setid=       0
 node=   862 local x,y,z forces =    0.0000E+00    0.0000E+00    0.0000E+00  setid=       0
 node=   862 local x,y,z moments=    0.0000E+00    0.0000E+00    0.0000E+00  setid=       0
 node=   869 local x,y,z forces =    0.0000E+00    0.0000E+00    0.0000E+00  setid=       0
 node=   869 local x,y,z moments=    0.0000E+00    0.0000E+00    0.0000E+00  setid=       0
 node=   870 local x,y,z forces =    0.0000E+00    0.0000E+00    0.0000E+00  setid=       0
 node=   870 local x,y,z moments=    0.0000E+00    0.0000E+00    0.0000E+00  setid=       0
 node=   874 local x,y,z forces =    0.0000E+00    0.0000E+00    0.0000E+00  setid=       0
 node=   874 local x,y,z moments=    0.0000E+00    0.0000E+00    0.0000E+00  setid=       0
 node=   878 local x,y,z forces =    0.0000E+00    0.0000E+00    0.0000E+00  setid=       0
 node=   878 local x,y,z moments=    0.0000E+00    0.0000E+00    0.0000E+00  setid=       0
 node=   885 local x,y,z forces =    0.0000E+00    0.0000E+00    0.0000E+00  setid=       0
 node=   885 local x,y,z moments=    0.0000E+00    0.0000E+00    0.0000E+00  setid=       0
 node=   886 local x,y,z forces =    0.0000E+00    0.0000E+00    0.0000E+00  setid=       0
 node=   886 local x,y,z moments=    0.0000E+00    0.0000E+00    0.0000E+00  setid=       0
 node=   890 local x,y,z forces =    0.0000E+00    0.0000E+00    0.0000E+00  setid=       0
 node=   890 local x,y,z moments=    0.0000E+00    0.0000E+00    0.0000E+00  setid=       0
             force resultants   =    0.0000E+00    0.0000E+00    0.0000E+00
 output at time =   5.00000E-01
 node=     1 local x,y,z forces =    0.0000E+00    3.6153E+00    3.1419E+01  setid=       0
 node=     1 local x,y,z moments=    5.5355E-03    4.6083E-03   -5.9179E-04  setid=       0
 node=     2 local x,y,z forces =    0.0000E+00    7.3589E+00    4.3980E+01  setid=       0
 node=     2 local x,y,z moments=    5.4112E-03    8.9271E-05    1.8763E-05  setid=       0
 node=     3 local x,y,z forces =    0.0000E+00    8.1387E+00    2.9972E+01  setid=       0
 node=     3 local x,y,z moments=    2.0358E-03    6.0363E-05    2.0205E-05  setid=       0
 node=     4 local x,y,z forces =    0.0000E+00    8.4603E+00    2.8494E+01  setid=       0
 node=     4 local x,y,z moments=    2.1790E-03    2.3628E-04    7.9263E-06  setid=       0
 node=     5 local x,y,z forces =    4.1869E+00    4.3087E+00    1.4305E+01  setid=       0
 node=     5 local x,y,z moments=    1.1199E-03   -1.1356E-03    1.4690E-05  setid=       0
 node=     6 local x,y,z forces =    8.2518E+00    0.0000E+00    2.7741E+01  setid=       0
 node=     6 local x,y,z moments=   -1.2067E-04   -2.0148E-03   -1.9634E-05  setid=       0
 node=     7 local x,y,z forces =    7.8486E+00    0.0000E+00    2.8942E+01  setid=       0
 node=     7 local x,y,z moments=    1.6432E-04   -1.8431E-03   -4.2248E-05  setid=       0
 node=     8 local x,y,z forces =    7.0478E+00    0.0000E+00    4.3414E+01  setid=       0
 node=     8 local x,y,z moments=    2.3074E-04   -5.4616E-03   -7.8879E-05  setid=       0
 node=     9 local x,y,z forces =    3.7305E+00    0.0000E+00    2.9306E+01  setid=       0
 node=     9 local x,y,z moments=   -4.0816E-03   -5.2641E-03    4.9128E-04  setid=       0
 node=    10 local x,y,z forces =    0.0000E+00    0.0000E+00    5.7513E+01  setid=       0
 node=    10 local x,y,z moments=   -7.1744E-03    3.6249E-03    0.0000E+00  setid=       0
 node=    11 local x,y,z forces =    0.0000E+00    0.0000E+00    5.3307E+01  setid=       0
 node=    11 local x,y,z moments=   -4.0800E-03    4.8601E-03    0.0000E+00  setid=       0
 node=    12 local x,y,z forces =    0.0000E+00    0.0000E+00    6.0283E+01  setid=       0
 node=    12 local x,y,z moments=   -2.7964E-03    8.1342E-03    0.0000E+00  setid=       0
 node=    13 local x,y,z forces =    0.0000E+00    0.0000E+00    3.5985E+01  setid=       0
 node=    13 local x,y,z moments=    7.4359E-05   -4.4288E-04    0.0000E+00  setid=       0
 node=    14 local x,y,z forces =    0.0000E+00    0.0000E+00    5.4365E+01  setid=       0
 node=    14 local x,y,z moments=    6.9580E-04   -3.4072E-04    0.0000E+00  setid=       0
 node=    15 local x,y,z forces =    0.0000E+00    0.0000E+00    5.3143E+01  setid=       0
 node=    15 local x,y,z moments=    4.7461E-04   -1.2906E-03    0.0000E+00  setid=       0
 node=    16 local x,y,z forces =    0.0000E+00    0.0000E+00    5.3350E+01  setid=       0
 node=    16 local x,y,z moments=   -9.0128E-04    4.5323E-04    0.0000E+00  setid=       0
 node=    17 local x,y,z forces =    0.0000E+00    0.0000E+00    7.5584E+01  setid=       0
 node=    17 local x,y,z moments=   -2.2317E-04   -9.6751E-04    0.0000E+00  setid=       0
 node=    18 local x,y,z forces =    0.0000E+00    0.0000E+00    8.2973E+01  setid=       0
 node=    18 local x,y,z moments=    2.0140E-03   -6.1998E-04    0.0000E+00  setid=       0
 node=    19 local x,y,z forces =    0.0000E+00    0.0000E+00    8.3729E+01  setid=       0
 node=    19 local x,y,z moments=   -7.5512E-04   -2.9667E-03    0.0000E+00  setid=       0
 node=    51 local x,y,z forces =    1.6148E+01    0.0000E+00    0.0000E+00  setid=       0
 node=    51 local x,y,z moments=    0.0000E+00   -2.8569E-05   -2.4856E-05  setid=       0
 node=    52 local x,y,z forces =    8.1960E+00    8.4128E+00    0.0000E+00  setid=       0
 node=    52 local x,y,z moments=   -1.6333E-05    1.0092E-05    3.1168E-05  setid=       0
 node=    53 local x,y,z forces =    0.0000E+00    1.6539E+01    0.0000E+00  setid=       0
 node=    53 local x,y,z moments=   -4.2760E-05    0.0000E+00    1.8175E-05  setid=       0
 node=    55 local x,y,z forces =    1.4523E+01    0.0000E+00    0.0000E+00  setid=       0
 node=    55 local x,y,z moments=    0.0000E+00   -1.4401E-04    3.8944E-05  setid=       0
 node=    56 local x,y,z forces =    7.4027E+00    7.6102E+00    0.0000E+00  setid=       0
 node=    56 local x,y,z moments=    2.6331E-05   -2.4656E-05    4.5548E-05  setid=       0
 node=    57 local x,y,z forces =    0.0000E+00    1.5039E+01    0.0000E+00  setid=       0
 node=    57 local x,y,z moments=   -3.0780E-05    0.0000E+00    2.1542E-05  setid=       0
 node=    59 local x,y,z forces =    1.1525E+01    0.0000E+00    0.0000E+00  setid=       0
 node=    59 local x,y,z moments=    0.0000E+00   -2.3078E-04   -6.4281E-05  setid=       0
 node=    60 local x,y,z forces =    5.5870E+00    5.6900E+00    0.0000E+00  setid=       0
 node=    60 local x,y,z moments=    2.4288E-04   -1.8051E-04    5.6696E-05  setid=       0
 node=    61 local x,y,z forces =    0.0000E+00    1.1518E+01    0.0000E+00  setid=       0
 node=    61 local x,y,z moments=    3.0204E-04    0.0000E+00    3.8821E-05  setid=       0
 node=    63 local x,y,z forces =    8.9768E+00    0.0000E+00    0.0000E+00  setid=       0
 node=    63 local x,y,z moments=    0.0000E+00    2.6080E-04   -1.1140E-04  setid=       0
 node=    64 local x,y,z forces =    4.2150E+00    4.1434E+00    0.0000E+00  setid=       0
 node=    64 local x,y,z moments=   -2.2995E-04    3.6294E-04    4.6659E-06  setid=       0
 node=    65 local x,y,z forces =    0.0000E+00    8.1844E+00    0.0000E+00  setid=       0
 node=    65 local x,y,z moments=   -2.9616E-04    0.0000E+00    8.5788E-05  setid=       0
 node=    67 local x,y,z forces =    8.9962E+00    0.0000E+00    0.0000E+00  setid=       0
 node=    67 local x,y,z moments=    0.0000E+00    2.1127E-03    1.2968E-04  setid=       0
 node=    68 local x,y,z forces =    4.5413E+00    4.4290E+00    0.0000E+00  setid=       0
 node=    68 local x,y,z moments=   -1.3520E-03    1.5971E-03   -2.4616E-05  setid=       0
 node=    69 local x,y,z forces =    0.0000E+00    8.4708E+00    0.0000E+00  setid=       0
 node=    69 local x,y,z moments=   -2.2103E-03    0.0000E+00   -1.2978E-04  setid=       0
 node=    85 local x,y,z forces =    0.0000E+00    1.5353E+01    0.0000E+00  setid=       0
 node=    85 local x,y,z moments=   -3.7093E-04    0.0000E+00    1.2297E-04  setid=       0
 node=    86 local x,y,z forces =    0.0000E+00    6.8655E+00    0.0000E+00  setid=       0
 node=    86 local x,y,z moments=    1.8470E-04    0.0000E+00   -1.1257E-03  setid=       0
 node=    87 local x,y,z forces =    0.0000E+00    1.5972E+01    0.0000E+00  setid=       0
 node=    87 local x,y,z moments=   -7.3649E-04    0.0000E+00    2.9931E-04  setid=       0
 node=    88 local x,y,z forces =    0.0000E+00    6.0196E+00    0.0000E+00  setid=       0
 node=    88 local x,y,z moments=    1.5008E-04    0.0000E+00   -9.6830E-04  setid=       0
 node=    89 local x,y,z forces =    0.0000E+00    1.4767E+01    0.0000E+00  setid=       0
 node=    89 local x,y,z moments=   -8.2299E-04    0.0000E+00    3.5014E-04  setid=       0
 node=    90 local x,y,z forces =    0.0000E+00    5.1195E+00    0.0000E+00  setid=       0
 node=    90 local x,y,z moments=    1.0230E-04    0.0000E+00   -8.1387E-04  setid=       0
 node=    91 local x,y,z forces =    0.0000E+00    1.1337E+01    0.0000E+00  setid=       0
 node=    91 local x,y,z moments=   -6.6006E-04    0.0000E+00    7.2249E-05  setid=       0
 node=    92 local x,y,z forces =    0.0000E+00    3.7483E+00    0.0000E+00  setid=       0
 node=    92 local x,y,z moments=    1.8446E-04    0.0000E+00   -6.5969E-04  setid=       0
 node=    93 local x,y,z forces =    0.0000E+00    1.0331E+01    0.0000E+00  setid=       0
 node=    93 local x,y,z moments=   -2.3917E-03    0.0000E+00   -4.2744E-04  setid=       0
 node=    94 local x,y,z forces =    0.0000E+00    3.7882E+00    0.0000E+00  setid=       0
 node=    94 local x,y,z moments=   -1.3285E-03    0.0000E+00   -2.3728E-04  setid=       0
 node=    95 local x,y,z forces =    1.5514E+01    0.0000E+00    0.0000E+00  setid=       0
 node=    95 local x,y,z moments=    0.0000E+00   -2.4450E-04   -7.0180E-05  setid=       0
 node=    96 local x,y,z forces =    1.4086E+01    0.0000E+00    0.0000E+00  setid=       0
 node=    96 local x,y,z moments=    0.0000E+00   -5.5339E-04    1.6523E-05  setid=       0
 node=    97 local x,y,z forces =    1.2143E+01    0.0000E+00    0.0000E+00  setid=       0
 node=    97 local x,y,z moments=    0.0000E+00   -4.8239E-04   -1.9841E-04  setid=       0
 node=    98 local x,y,z forces =    9.9188E+00    0.0000E+00    0.0000E+00  setid=       0
 node=    98 local x,y,z moments=    0.0000E+00   -5.1560E-04   -1.4169E-04  setid=       0
 node=    99 local x,y,z forces =    9.6632E+00    0.0000E+00    0.0000E+00  setid=       0
 node=    99 local x,y,z moments=    0.0000E+00    5.0679E-04    1.7890E-04  setid=       0
 node=   100 local x,y,z forces =    1.4431E+01    0.0000E+00    0.0000E+00  setid=       0
 node=   100 local x,y,z moments=    0.0000E+00   -3.8607E-04   -1.0501E-04  setid=       0
 node=   101 local x,y,z forces =    1.3857E+01    0.0000E+00    0.0000E+00  setid=       0
 node=   101 local x,y,z moments=    0.0000E+00   -6.9978E-04    3.9128E-05  setid=       0
 node=   102 local x,y,z forces =    1.3416E+01    0.0000E+00    0.0000E+00  setid=       0
 node=   102 local x,y,z moments=    0.0000E+00   -1.8800E-04   -3.8475E-04  setid=       0
 node=   103 local x,y,z forces =    1.0924E+01    0.0000E+00    0.0000E+00  setid=       0
 node=   103 local x,y,z moments=    0.0000E+00   -3.5734E-04    3.0122E-05  setid=       0
 node=   104 local x,y,z forces =    1.0261E+01    0.0000E+00    0.0000E+00  setid=       0
 node=   104 local x,y,z moments=    0.0000E+00    9.9467E-04    2.3992E-04  setid=       0
 node=   105 local x,y,z forces =    0.0000E+00    1.6078E+01    0.0000E+00  setid=       0
 node=   105 local x,y,z moments=   -8.9073E-05    0.0000E+00    6.8087E-05  setid=       0
 node=   106 local x,y,z forces =    0.0000E+00    1.4996E+01    0.0000E+00  setid=       0
 node=   106 local x,y,z moments=   -1.2130E-04    0.0000E+00    1.2440E-04  setid=       0
 node=   107 local x,y,z forces =    0.0000E+00    1.2221E+01    0.0000E+00  setid=       0
 node=   107 local x,y,z moments=    7.8150E-05    0.0000E+00    1.5821E-04  setid=       0
 node=   108 local x,y,z forces =    0.0000E+00    9.0936E+00    0.0000E+00  setid=       0
 node=   108 local x,y,z moments=   -3.1880E-04    0.0000E+00    2.0544E-04  setid=       0
 node=   109 local x,y,z forces =    0.0000E+00    8.9962E+00    0.0000E+00  setid=       0
 node=   109 local x,y,z moments=   -2.1287E-03    0.0000E+00   -2.0206E-04  setid=       0
 node=   110 local x,y,z forces =    7.6291E+00    0.0000E+00    0.0000E+00  setid=       0
 node=   110 local x,y,z moments=    0.0000E+00    3.2413E-04    1.0655E-03  setid=       0
 node=   111 local x,y,z forces =    7.4707E+00    0.0000E+00    0.0000E+00  setid=       0
 node=   111 local x,y,z moments=    0.0000E+00    6.1571E-04    1.1542E-03  setid=       0
 node=   112 local x,y,z forces =    6.5341E+00    0.0000E+00    0.0000E+00  setid=       0
 node=   112 local x,y,z moments=    0.0000E+00    7.3359E-04    1.0891E-03  setid=       0
 node=   113 local x,y,z forces =    3.9035E+00    0.0000E+00    0.0000E+00  setid=       0
 node=   113 local x,y,z moments=    0.0000E+00    4.3152E-04    7.9584E-04  setid=       0
 node=   114 local x,y,z forces =    4.9543E+00    0.0000E+00    0.0000E+00  setid=       0
 node=   114 local x,y,z moments=    0.0000E+00    1.1498E-03    3.9761E-05  setid=       0
 node=   199 local x,y,z forces =    0.0000E+00    5.9693E+00    0.0000E+00  setid=       0
 node=   199 local x,y,z moments=    5.5920E-05    0.0000E+00    3.0317E-05  setid=       0
 node=   200 local x,y,z forces =    0.0000E+00    5.0957E+00    0.0000E+00  setid=       0
 node=   200 local x,y,z moments=   -2.0855E-05    0.0000E+00    2.2229E-05  setid=       0
 node=   201 local x,y,z forces =    0.0000E+00   -7.8030E-02    0.0000E+00  setid=       0
 node=   201 local x,y,z moments=   -2.3865E-04    0.0000E+00    6.2680E-05  setid=       0
 node=   202 local x,y,z forces =    0.0000E+00   -2.1678E-01    0.0000E+00  setid=       0
 node=   202 local x,y,z moments=   -2.8924E-04    0.0000E+00    4.9544E-05  setid=       0
 node=   203 local x,y,z forces =    0.0000E+00   -2.9747E+00    0.0000E+00  setid=       0
 node=   203 local x,y,z moments=   -3.2447E-04    0.0000E+00    5.6055E-05  setid=       0
 node=   204 local x,y,z forces =    0.0000E+00   -2.8592E+00    0.0000E+00  setid=       0
 node=   204 local x,y,z moments=   -3.1657E-04    0.0000E+00    6.2671E-05  setid=       0
 node=   205 local x,y,z forces =    0.0000E+00   -4.2143E+00    0.0000E+00  setid=       0
 node=   205 local x,y,z moments=   -3.3186E-04    0.0000E+00    4.7414E-05  setid=       0
 node=   206 local x,y,z forces =    0.0000E+00   -3.9935E+00    0.0000E+00  setid=       0
 node=   206 local x,y,z moments=   -2.9193E-04    0.0000E+00    4.9346E-05  setid=       0
 node=   207 local x,y,z forces =    0.0000E+00   -4.5764E+00    0.0000E+00  setid=       0
 node=   207 local x,y,z moments=   -3.0860E-04    0.0000E+00    3.5578E-05  setid=       0
 node=   208 local x,y,z forces =    0.0000E+00   -4.3375E+00    0.0000E+00  setid=       0
 node=   208 local x,y,z moments=   -2.4718E-04    0.0000E+00    3.4708E-05  setid=       0
 node=   209 local x,y,z forces =    0.0000E+00   -4.4662E+00    0.0000E+00  setid=       0
 node=   209 local x,y,z moments=   -2.7712E-04    0.0000E+00    2.5895E-05  setid=       0
 node=   210 local x,y,z forces =    0.0000E+00   -4.2381E+00    0.0000E+00  setid=       0
 node=   210 local x,y,z moments=   -1.9840E-04    0.0000E+00    2.3553E-05  setid=       0
 node=   211 local x,y,z forces =    0.0000E+00   -4.0999E+00    0.0000E+00  setid=       0
 node=   211 local x,y,z moments=   -2.4425E-04    0.0000E+00    1.8435E-05  setid=       0
 node=   212 local x,y,z forces =    0.0000E+00   -3.8938E+00    0.0000E+00  setid=       0
 node=   212 local x,y,z moments=   -1.4925E-04    0.0000E+00    1.5581E-05  setid=       0
 node=   213 local x,y,z forces =    0.0000E+00   -3.5957E+00    0.0000E+00  setid=       0
 node=   213 local x,y,z moments=   -2.1407E-04    0.0000E+00    1.2025E-05  setid=       0
 node=   214 local x,y,z forces =    0.0000E+00   -3.4217E+00    0.0000E+00  setid=       0
 node=   214 local x,y,z moments=   -1.0331E-04    0.0000E+00    9.0896E-06  setid=       0
 node=   215 local x,y,z forces =    0.0000E+00   -3.0096E+00    0.0000E+00  setid=       0
 node=   215 local x,y,z moments=   -1.8867E-04    0.0000E+00    5.4042E-06  setid=       0
 node=   216 local x,y,z forces =    0.0000E+00   -2.8811E+00    0.0000E+00  setid=       0
 node=   216 local x,y,z moments=   -6.3250E-05    0.0000E+00    2.3595E-06  setid=       0
 node=   217 local x,y,z forces =    0.0000E+00   -2.3535E+00    0.0000E+00  setid=       0
 node=   217 local x,y,z moments=   -1.6993E-04    0.0000E+00   -1.7945E-06  setid=       0
 node=   218 local x,y,z forces =    0.0000E+00   -2.2850E+00    0.0000E+00  setid=       0
 node=   218 local x,y,z moments=   -3.2083E-05    0.0000E+00   -5.5146E-06  setid=       0
 node=   219 local x,y,z forces =    0.0000E+00   -1.6216E+00    0.0000E+00  setid=       0
 node=   219 local x,y,z moments=   -1.5681E-04    0.0000E+00   -6.3614E-06  setid=       0
 node=   220 local x,y,z forces =    0.0000E+00   -1.6177E+00    0.0000E+00  setid=       0
 node=   220 local x,y,z moments=   -1.1679E-05    0.0000E+00   -1.2916E-05  setid=       0
 node=   221 local x,y,z forces =    0.0000E+00   -8.3564E-01    0.0000E+00  setid=       0
 node=   221 local x,y,z moments=   -1.4406E-04    0.0000E+00   -5.7047E-08  setid=       0
 node=   222 local x,y,z forces =    0.0000E+00   -8.6856E-01    0.0000E+00  setid=       0
 node=   222 local x,y,z moments=    3.5468E-06    0.0000E+00   -1.2697E-05  setid=       0
 node=   223 local x,y,z forces =    0.0000E+00    3.2267E-01    0.0000E+00  setid=       0
 node=   223 local x,y,z moments=   -2.0499E-04    0.0000E+00    1.1023E-06  setid=       0
 node=   224 local x,y,z forces =    0.0000E+00   -3.5544E-02    0.0000E+00  setid=       0
 node=   224 local x,y,z moments=   -1.1896E-05    0.0000E+00    2.5247E-05  setid=       0
 node=   225 local x,y,z forces =    0.0000E+00    2.0280E+00    0.0000E+00  setid=       0
 node=   225 local x,y,z moments=   -1.8045E-03    0.0000E+00   -3.2587E-06  setid=       0
 node=   226 local x,y,z forces =    0.0000E+00    2.4175E+00    0.0000E+00  setid=       0
 node=   226 local x,y,z moments=   -2.6047E-03    0.0000E+00    6.5643E-05  setid=       0
 node=   227 local x,y,z forces =    0.0000E+00    6.0888E+00    0.0000E+00  setid=       0
 node=   227 local x,y,z moments=    4.7682E-05    0.0000E+00   -3.4564E-06  setid=       0
 node=   229 local x,y,z forces =    6.3479E+00    0.0000E+00    0.0000E+00  setid=       0
 node=   229 local x,y,z moments=    0.0000E+00    1.6323E-04    1.4827E-05  setid=       0
 node=   230 local x,y,z forces =    3.3331E+00    3.1415E+00    0.0000E+00  setid=       0
 node=   230 local x,y,z moments=   -1.4094E-04    6.8370E-04   -3.8214E-05  setid=       0
 node=   231 local x,y,z forces =    0.0000E+00   -5.7279E-03    0.0000E+00  setid=       0
 node=   231 local x,y,z moments=   -2.0701E-04    0.0000E+00    7.9197E-06  setid=       0
 node=   233 local x,y,z forces =    2.1739E-01    0.0000E+00    0.0000E+00  setid=       0
 node=   233 local x,y,z moments=    0.0000E+00    4.0505E-04    9.5611E-06  setid=       0
 node=   234 local x,y,z forces =    2.4685E-01    8.3975E-02    0.0000E+00  setid=       0
 node=   234 local x,y,z moments=   -2.5770E-04    7.6274E-04   -3.6516E-05  setid=       0
 node=   235 local x,y,z forces =    0.0000E+00   -2.9869E+00    0.0000E+00  setid=       0
 node=   235 local x,y,z moments=   -2.6807E-04    0.0000E+00    1.0663E-05  setid=       0
 node=   237 local x,y,z forces =   -2.8560E+00    0.0000E+00    0.0000E+00  setid=       0
 node=   237 local x,y,z moments=    0.0000E+00    5.9355E-04   -1.2546E-06  setid=       0
 node=   238 local x,y,z forces =   -1.3343E+00   -1.4211E+00    0.0000E+00  setid=       0
 node=   238 local x,y,z moments=   -2.8237E-04    8.4411E-04   -2.2734E-05  setid=       0
 node=   239 local x,y,z forces =    0.0000E+00   -4.2674E+00    0.0000E+00  setid=       0
 node=   239 local x,y,z moments=   -2.4915E-04    0.0000E+00    9.4311E-06  setid=       0
 node=   241 local x,y,z forces =   -4.1918E+00    0.0000E+00    0.0000E+00  setid=       0
 node=   241 local x,y,z moments=    0.0000E+00    7.1459E-04   -5.7664E-06  setid=       0
 node=   242 local x,y,z forces =   -2.0361E+00   -2.0895E+00    0.0000E+00  setid=       0
 node=   242 local x,y,z moments=   -2.6750E-04    9.0172E-04   -1.5519E-05  setid=       0
 node=   243 local x,y,z forces =    0.0000E+00   -4.6448E+00    0.0000E+00  setid=       0
 node=   243 local x,y,z moments=   -2.0577E-04    0.0000E+00    8.6415E-06  setid=       0
 node=   245 local x,y,z forces =   -4.5905E+00    0.0000E+00    0.0000E+00  setid=       0
 node=   245 local x,y,z moments=    0.0000E+00    7.9253E-04   -6.4027E-06  setid=       0
 node=   246 local x,y,z forces =   -2.2555E+00   -2.3045E+00    0.0000E+00  setid=       0
 node=   246 local x,y,z moments=   -2.4019E-04    9.4263E-04   -1.3241E-05  setid=       0
 node=   247 local x,y,z forces =    0.0000E+00   -4.5369E+00    0.0000E+00  setid=       0
 node=   247 local x,y,z moments=   -1.5894E-04    0.0000E+00    6.8302E-06  setid=       0
 node=   249 local x,y,z forces =   -4.4809E+00    0.0000E+00    0.0000E+00  setid=       0
 node=   249 local x,y,z moments=    0.0000E+00    8.4505E-04   -5.5770E-06  setid=       0
 node=   250 local x,y,z forces =   -2.2113E+00   -2.2649E+00    0.0000E+00  setid=       0
 node=   250 local x,y,z moments=   -2.1104E-04    9.7454E-04   -1.2980E-05  setid=       0
 node=   251 local x,y,z forces =    0.0000E+00   -4.1653E+00    0.0000E+00  setid=       0
 node=   251 local x,y,z moments=   -1.1516E-04    0.0000E+00    4.8275E-06  setid=       0
 node=   253 local x,y,z forces =   -4.0987E+00    0.0000E+00    0.0000E+00  setid=       0
 node=   253 local x,y,z moments=    0.0000E+00    8.8098E-04   -4.5063E-06  setid=       0
 node=   254 local x,y,z forces =   -2.0255E+00   -2.0865E+00    0.0000E+00  setid=       0
 node=   254 local x,y,z moments=   -1.8402E-04    1.0023E-03   -1.3578E-05  setid=       0
 node=   255 local x,y,z forces =    0.0000E+00   -3.6475E+00    0.0000E+00  setid=       0
 node=   255 local x,y,z moments=   -7.8128E-05    0.0000E+00    2.5648E-06  setid=       0
 node=   257 local x,y,z forces =   -3.5650E+00    0.0000E+00    0.0000E+00  setid=       0
 node=   257 local x,y,z moments=    0.0000E+00    9.0599E-04   -3.2949E-06  setid=       0
 node=   258 local x,y,z forces =   -1.7611E+00   -1.8311E+00    0.0000E+00  setid=       0
 node=   258 local x,y,z moments=   -1.6109E-04    1.0287E-03   -1.4757E-05  setid=       0
 node=   259 local x,y,z forces =    0.0000E+00   -3.0382E+00    0.0000E+00  setid=       0
 node=   259 local x,y,z moments=   -4.9502E-05    0.0000E+00   -1.2440E-07  setid=       0
 node=   261 local x,y,z forces =   -2.9314E+00    0.0000E+00    0.0000E+00  setid=       0
 node=   261 local x,y,z moments=    0.0000E+00    9.2338E-04   -1.9661E-06  setid=       0
 node=   262 local x,y,z forces =   -1.4458E+00   -1.5284E+00    0.0000E+00  setid=       0
 node=   262 local x,y,z moments=   -1.4286E-04    1.0539E-03   -1.6978E-05  setid=       0
 node=   263 local x,y,z forces =    0.0000E+00   -2.3536E+00    0.0000E+00  setid=       0
 node=   263 local x,y,z moments=   -3.0601E-05    0.0000E+00   -2.7376E-06  setid=       0
 node=   265 local x,y,z forces =   -2.2034E+00    0.0000E+00    0.0000E+00  setid=       0
 node=   265 local x,y,z moments=    0.0000E+00    9.3623E-04   -9.7693E-07  setid=       0
 node=   266 local x,y,z forces =   -1.0850E+00   -1.1895E+00    0.0000E+00  setid=       0
 node=   266 local x,y,z moments=   -1.2933E-04    1.0763E-03   -2.1563E-05  setid=       0
 node=   267 local x,y,z forces =    0.0000E+00   -1.6168E+00    0.0000E+00  setid=       0
 node=   267 local x,y,z moments=   -1.4980E-05    0.0000E+00   -2.7341E-06  setid=       0
[...]
 node=   603 local x,y,z forces =    0.0000E+00   -1.3010E+00    0.0000E+00  setid=       0
 node=   603 local x,y,z moments=   -2.2517E-03    0.0000E+00    2.1867E-03  setid=       0
 node=   604 local x,y,z forces =    0.0000E+00    3.5104E+00    0.0000E+00  setid=       0
 node=   604 local x,y,z moments=   -1.1719E-03    0.0000E+00   -9.2247E-05  setid=       0
 node=   605 local x,y,z forces =    0.0000E+00   -7.4686E+00    0.0000E+00  setid=       0
 node=   605 local x,y,z moments=   -4.2931E-03    0.0000E+00    4.6008E-04  setid=       0
 node=   606 local x,y,z forces =    0.0000E+00    5.6107E+00    0.0000E+00  setid=       0
 node=   606 local x,y,z moments=   -1.5268E-03    0.0000E+00   -3.1194E-03  setid=       0
 node=   607 local x,y,z forces =    0.0000E+00    3.9372E+01    0.0000E+00  setid=       0
 node=   607 local x,y,z moments=   -2.3595E-03    0.0000E+00   -1.7303E-02  setid=       0
 node=   608 local x,y,z forces =    0.0000E+00   -5.1542E+01    0.0000E+00  setid=       0
 node=   608 local x,y,z moments=    6.1553E-03    0.0000E+00    1.4418E-02  setid=       0
 node=   609 local x,y,z forces =    0.0000E+00   -8.0786E+01    0.0000E+00  setid=       0
 node=   609 local x,y,z moments=    8.5632E-03    0.0000E+00    4.5685E-03  setid=       0
 node=   610 local x,y,z forces =    0.0000E+00   -7.3638E+01    0.0000E+00  setid=       0
 node=   610 local x,y,z moments=    4.0817E-03    0.0000E+00    4.3256E-03  setid=       0
 node=   611 local x,y,z forces =    0.0000E+00   -7.7562E+01    0.0000E+00  setid=       0
 node=   611 local x,y,z moments=    1.0379E-03    0.0000E+00    2.6870E-03  setid=       0
 node=   612 local x,y,z forces =    0.0000E+00    2.6774E+00    0.0000E+00  setid=       0
 node=   612 local x,y,z moments=   -2.8791E-03    0.0000E+00    1.7436E-03  setid=       0
 node=   613 local x,y,z forces =    0.0000E+00    3.1658E+00    0.0000E+00  setid=       0
 node=   613 local x,y,z moments=   -1.7392E-03    0.0000E+00    8.5726E-04  setid=       0
 node=   614 local x,y,z forces =    0.0000E+00    5.3548E+00    0.0000E+00  setid=       0
 node=   614 local x,y,z moments=    1.0797E-04    0.0000E+00   -2.0443E-03  setid=       0
 node=   615 local x,y,z forces =    0.0000E+00   -2.7845E+00    0.0000E+00  setid=       0
 node=   615 local x,y,z moments=   -2.3272E-03    0.0000E+00    2.6208E-03  setid=       0
 node=   616 local x,y,z forces =    0.0000E+00   -3.7585E+00    0.0000E+00  setid=       0
 node=   616 local x,y,z moments=   -1.9881E-03    0.0000E+00    1.8664E-03  setid=       0
 node=   617 local x,y,z forces =    0.0000E+00   -3.7311E+00    0.0000E+00  setid=       0
 node=   617 local x,y,z moments=   -1.0913E-04    0.0000E+00   -3.5026E-04  setid=       0
 node=   618 local x,y,z forces =    0.0000E+00   -8.1688E+00    0.0000E+00  setid=       0
 node=   618 local x,y,z moments=   -2.3351E-03    0.0000E+00    2.5189E-03  setid=       0
 node=   619 local x,y,z forces =    0.0000E+00   -1.5660E+01    0.0000E+00  setid=       0
 node=   619 local x,y,z moments=   -2.3933E-03    0.0000E+00    3.6426E-03  setid=       0
 node=   620 local x,y,z forces =    0.0000E+00   -6.7811E+00    0.0000E+00  setid=       0
 node=   620 local x,y,z moments=   -2.4649E-03    0.0000E+00    3.0270E-03  setid=       0
 node=   621 local x,y,z forces =    0.0000E+00   -1.2690E+01    0.0000E+00  setid=       0
 node=   621 local x,y,z moments=   -2.7994E-03    0.0000E+00    3.2155E-03  setid=       0
 node=   622 local x,y,z forces =    0.0000E+00   -8.6640E+00    0.0000E+00  setid=       0
 node=   622 local x,y,z moments=   -9.2740E-04    0.0000E+00    4.2380E-04  setid=       0
 node=   623 local x,y,z forces =    0.0000E+00   -2.0120E+01    0.0000E+00  setid=       0
 node=   623 local x,y,z moments=    3.3061E-05    0.0000E+00    3.3853E-03  setid=       0
 node=   624 local x,y,z forces =    0.0000E+00    2.5832E+00    0.0000E+00  setid=       0
 node=   624 local x,y,z moments=   -1.8207E-03    0.0000E+00    9.5953E-04  setid=       0
 node=   625 local x,y,z forces =    0.0000E+00    1.2887E+00    0.0000E+00  setid=       0
 node=   625 local x,y,z moments=   -1.5312E-03    0.0000E+00    1.2709E-03  setid=       0
 node=   626 local x,y,z forces =    0.0000E+00   -8.2194E-01    0.0000E+00  setid=       0
 node=   626 local x,y,z moments=   -1.8713E-03    0.0000E+00    1.5749E-03  setid=       0
 node=   627 local x,y,z forces =    0.0000E+00    1.5061E+00    0.0000E+00  setid=       0
 node=   627 local x,y,z moments=   -2.3722E-03    0.0000E+00    1.9409E-03  setid=       0
 node=   628 local x,y,z forces =    0.0000E+00    2.3074E+00    0.0000E+00  setid=       0
 node=   628 local x,y,z moments=   -2.9440E-03    0.0000E+00    1.7752E-03  setid=       0
 node=   629 local x,y,z forces =    0.0000E+00   -2.2332E-01    0.0000E+00  setid=       0
 node=   629 local x,y,z moments=   -2.2475E-03    0.0000E+00    2.2381E-03  setid=       0
 node=   630 local x,y,z forces =    0.0000E+00    2.6153E+00    0.0000E+00  setid=       0
 node=   630 local x,y,z moments=    4.2170E-04    0.0000E+00   -1.2322E-03  setid=       0
 node=   631 local x,y,z forces =    0.0000E+00    4.4361E+00    0.0000E+00  setid=       0
 node=   631 local x,y,z moments=    2.8001E-04    0.0000E+00   -1.5800E-03  setid=       0
 node=   632 local x,y,z forces =    0.0000E+00   -7.9481E-02    0.0000E+00  setid=       0
 node=   632 local x,y,z moments=    4.3175E-06    0.0000E+00   -8.7920E-04  setid=       0
 node=   633 local x,y,z forces =    0.0000E+00    7.8268E+00    0.0000E+00  setid=       0
 node=   633 local x,y,z moments=   -7.2872E-03    0.0000E+00    2.7334E-03  setid=       0
 node=   634 local x,y,z forces =    0.0000E+00    5.0564E+00    0.0000E+00  setid=       0
 node=   634 local x,y,z moments=   -4.9811E-03    0.0000E+00    2.8752E-04  setid=       0
 node=   635 local x,y,z forces =    0.0000E+00    5.2839E+00    0.0000E+00  setid=       0
 node=   635 local x,y,z moments=   -2.3620E-03    0.0000E+00   -2.0599E-03  setid=       0
 node=   636 local x,y,z forces =    0.0000E+00    2.4623E+00    0.0000E+00  setid=       0
 node=   636 local x,y,z moments=   -3.4710E-03    0.0000E+00    4.0964E-04  setid=       0
 node=   637 local x,y,z forces =    0.0000E+00    2.8979E+00    0.0000E+00  setid=       0
 node=   637 local x,y,z moments=   -2.5180E-03    0.0000E+00    5.9691E-04  setid=       0
 node=   638 local x,y,z forces =    0.0000E+00    1.7719E+00    0.0000E+00  setid=       0
 node=   638 local x,y,z moments=   -4.4680E-03    0.0000E+00    1.5023E-03  setid=       0
 node=   639 local x,y,z forces =    0.0000E+00    2.4869E+00    0.0000E+00  setid=       0
 node=   639 local x,y,z moments=   -3.7801E-03    0.0000E+00    1.6840E-03  setid=       0
 node=   640 local x,y,z forces =    0.0000E+00    3.7886E+00    0.0000E+00  setid=       0
 node=   640 local x,y,z moments=   -1.6944E-03    0.0000E+00   -2.1583E-03  setid=       0
 node=   641 local x,y,z forces =    0.0000E+00    4.3750E+00    0.0000E+00  setid=       0
 node=   641 local x,y,z moments=   -4.0829E-04    0.0000E+00   -2.1087E-03  setid=       0
 node=   642 local x,y,z forces =    0.0000E+00    5.6584E+01    0.0000E+00  setid=       0
 node=   642 local x,y,z moments=    1.0782E-03    0.0000E+00   -3.8513E-04  setid=       0
 node=   643 local x,y,z forces =    0.0000E+00    9.0567E+00    0.0000E+00  setid=       0
 node=   643 local x,y,z moments=   -1.8178E-03    0.0000E+00    4.9633E-04  setid=       0
 node=   644 local x,y,z forces =    0.0000E+00    3.2530E+00    0.0000E+00  setid=       0
 node=   644 local x,y,z moments=   -2.6193E-03    0.0000E+00    5.2934E-04  setid=       0
 node=   645 local x,y,z forces =    0.0000E+00    7.0420E+00    0.0000E+00  setid=       0
 node=   645 local x,y,z moments=   -3.8380E-03    0.0000E+00    1.2800E-03  setid=       0
 node=   646 local x,y,z forces =    0.0000E+00    5.7619E+01    0.0000E+00  setid=       0
 node=   646 local x,y,z moments=   -2.0723E-03    0.0000E+00    6.9438E-04  setid=       0
 node=   647 local x,y,z forces =    0.0000E+00   -3.7622E+00    0.0000E+00  setid=       0
 node=   647 local x,y,z moments=   -4.5907E-03    0.0000E+00    1.3598E-03  setid=       0
 node=   648 local x,y,z forces =    0.0000E+00    1.5073E+01    0.0000E+00  setid=       0
 node=   648 local x,y,z moments=    8.4174E-04    0.0000E+00   -2.4518E-03  setid=       0
 node=   649 local x,y,z forces =    0.0000E+00    6.6717E+01    0.0000E+00  setid=       0
 node=   649 local x,y,z moments=    5.2614E-03    0.0000E+00   -1.5689E-03  setid=       0
 node=   650 local x,y,z forces =    0.0000E+00    7.8561E+00    0.0000E+00  setid=       0
 node=   650 local x,y,z moments=   -1.1104E-03    0.0000E+00   -2.3640E-03  setid=       0
 node=   657 local x,y,z forces =    3.9177E+00    0.0000E+00    0.0000E+00  setid=       0
 node=   657 local x,y,z moments=    0.0000E+00    8.5746E-03    6.4074E-04  setid=       0
 node=   658 local x,y,z forces =   -1.9044E+01    0.0000E+00    0.0000E+00  setid=       0
 node=   658 local x,y,z moments=    0.0000E+00    1.3644E-02   -1.2468E-03  setid=       0
 node=   671 local x,y,z forces =    1.7352E+00    0.0000E+00    0.0000E+00  setid=       0
 node=   671 local x,y,z moments=    0.0000E+00    6.8906E-03    2.3155E-03  setid=       0
 node=   672 local x,y,z forces =    9.3115E-01    0.0000E+00    0.0000E+00  setid=       0
 node=   672 local x,y,z moments=    0.0000E+00    7.2957E-03    1.8491E-03  setid=       0
 node=   673 local x,y,z forces =    2.0028E+00    0.0000E+00    0.0000E+00  setid=       0
 node=   673 local x,y,z moments=    0.0000E+00    1.0212E-02    2.3610E-03  setid=       0
 node=   674 local x,y,z forces =    2.6954E+00    0.0000E+00    0.0000E+00  setid=       0
 node=   674 local x,y,z moments=    0.0000E+00    1.0257E-02    1.5836E-03  setid=       0
 node=   681 local x,y,z forces =   -5.3563E-01    0.0000E+00    0.0000E+00  setid=       0
 node=   681 local x,y,z moments=    0.0000E+00    5.7111E-03    7.1806E-04  setid=       0
 node=   682 local x,y,z forces =   -3.0980E-01    0.0000E+00    0.0000E+00  setid=       0
 node=   682 local x,y,z moments=    0.0000E+00    5.6696E-03    1.0291E-03  setid=       0
 node=   695 local x,y,z forces =    1.9494E+00    0.0000E+00    0.0000E+00  setid=       0
 node=   695 local x,y,z moments=    0.0000E+00    7.7683E-03    2.3683E-03  setid=       0
 node=   696 local x,y,z forces =    7.6239E-01    0.0000E+00    0.0000E+00  setid=       0
 node=   696 local x,y,z moments=    0.0000E+00    6.6470E-03    2.1385E-03  setid=       0
 node=   697 local x,y,z forces =    1.1457E+00    0.0000E+00    0.0000E+00  setid=       0
 node=   697 local x,y,z moments=    0.0000E+00    6.3851E-03    2.2747E-03  setid=       0
 node=   698 local x,y,z forces =    2.2237E+00    0.0000E+00    0.0000E+00  setid=       0
 node=   698 local x,y,z moments=    0.0000E+00    7.0663E-03    2.2800E-03  setid=       0
 node=   711 local x,y,z forces =   -4.8744E+00    0.0000E+00    0.0000E+00  setid=       0
 node=   711 local x,y,z moments=    0.0000E+00    8.5804E-03    9.3093E-04  setid=       0
 node=   712 local x,y,z forces =   -1.3238E+00    0.0000E+00    0.0000E+00  setid=       0
 node=   712 local x,y,z moments=    0.0000E+00    9.8036E-03    1.1608E-03  setid=       0
 node=   713 local x,y,z forces =   -2.9382E+00    0.0000E+00    0.0000E+00  setid=       0
 node=   713 local x,y,z moments=    0.0000E+00    1.0334E-02    9.4456E-04  setid=       0
 node=   714 local x,y,z forces =   -7.4053E+00    0.0000E+00    0.0000E+00  setid=       0
 node=   714 local x,y,z moments=    0.0000E+00    9.4731E-03    5.4398E-04  setid=       0
 node=   721 local x,y,z forces =   -8.9412E+00    0.0000E+00    0.0000E+00  setid=       0
 node=   721 local x,y,z moments=    0.0000E+00    7.7057E-03   -6.9346E-04  setid=       0
 node=   722 local x,y,z forces =   -1.6030E+01    0.0000E+00    0.0000E+00  setid=       0
 node=   722 local x,y,z moments=    0.0000E+00    9.2519E-03   -1.0496E-03  setid=       0
 node=   735 local x,y,z forces =    2.1466E+00    0.0000E+00    0.0000E+00  setid=       0
 node=   735 local x,y,z moments=    0.0000E+00    4.8223E-03    1.4225E-03  setid=       0
 node=   736 local x,y,z forces =    6.7957E-02    0.0000E+00    0.0000E+00  setid=       0
 node=   736 local x,y,z moments=    0.0000E+00    9.3532E-03    1.4276E-03  setid=       0
 node=   737 local x,y,z forces =    1.0176E+00    0.0000E+00    0.0000E+00  setid=       0
 node=   737 local x,y,z moments=    0.0000E+00    9.1037E-03    1.6829E-03  setid=       0
 node=   738 local x,y,z forces =    2.5335E+00    0.0000E+00    0.0000E+00  setid=       0
 node=   738 local x,y,z moments=    0.0000E+00    4.7620E-03    1.6051E-03  setid=       0
 node=   745 local x,y,z forces =    1.4856E+00    0.0000E+00    0.0000E+00  setid=       0
 node=   745 local x,y,z moments=    0.0000E+00    4.9900E-03    1.1438E-03  setid=       0
 node=   746 local x,y,z forces =    5.8910E-01    0.0000E+00    0.0000E+00  setid=       0
 node=   746 local x,y,z moments=    0.0000E+00    5.2576E-03    7.6711E-04  setid=       0
 node=   753 local x,y,z forces =    1.8253E+00    0.0000E+00    0.0000E+00  setid=       0
 node=   753 local x,y,z moments=    0.0000E+00    8.4498E-03    2.1793E-03  setid=       0
 node=   754 local x,y,z forces =    3.8726E-01    0.0000E+00    0.0000E+00  setid=       0
 node=   754 local x,y,z moments=    0.0000E+00    7.0448E-03    1.8851E-03  setid=       0
 node=   761 local x,y,z forces =    4.2013E+00    0.0000E+00    0.0000E+00  setid=       0
 node=   761 local x,y,z moments=    0.0000E+00    4.8150E-03    5.4933E-04  setid=       0
 node=   762 local x,y,z forces =   -7.6856E+00    0.0000E+00    0.0000E+00  setid=       0
 node=   762 local x,y,z moments=    0.0000E+00    1.0697E-02    7.4513E-04  setid=       0
 node=   769 local x,y,z forces =   -2.8253E+00    0.0000E+00    0.0000E+00  setid=       0
 node=   769 local x,y,z moments=    0.0000E+00    7.9812E-03    1.1913E-03  setid=       0
 node=   770 local x,y,z forces =   -1.2338E+00    0.0000E+00    0.0000E+00  setid=       0
 node=   770 local x,y,z moments=    0.0000E+00    7.6901E-03    1.4259E-03  setid=       0
 node=   780 local x,y,z forces =    5.2219E-01    0.0000E+00    0.0000E+00  setid=       0
 node=   780 local x,y,z moments=    0.0000E+00    1.0495E-02   -3.4421E-03  setid=       0
 node=   781 local x,y,z forces =    1.7152E+00    0.0000E+00    0.0000E+00  setid=       0
 node=   781 local x,y,z moments=    0.0000E+00    1.6413E-02    1.0727E-03  setid=       0
 node=   782 local x,y,z forces =   -7.8801E+00    0.0000E+00    0.0000E+00  setid=       0
 node=   782 local x,y,z moments=    0.0000E+00    1.2923E-02   -1.4125E-03  setid=       0
 node=   795 local x,y,z forces =   -4.8711E+00    0.0000E+00    0.0000E+00  setid=       0
 node=   795 local x,y,z moments=    0.0000E+00    1.0818E-02    9.3402E-04  setid=       0
 node=   796 local x,y,z forces =   -6.4578E-01    0.0000E+00    0.0000E+00  setid=       0
 node=   796 local x,y,z moments=    0.0000E+00    5.7178E-03    1.9626E-04  setid=       0
 node=   797 local x,y,z forces =    4.2018E+00    0.0000E+00    0.0000E+00  setid=       0
 node=   797 local x,y,z moments=    0.0000E+00    2.2768E-03    1.8358E-03  setid=       0
 node=   798 local x,y,z forces =    5.8962E+00    0.0000E+00    0.0000E+00  setid=       0
 node=   798 local x,y,z moments=    0.0000E+00    4.9556E-03    1.0425E-03  setid=       0
 node=   802 local x,y,z forces =    3.1802E-02    0.0000E+00    0.0000E+00  setid=       0
 node=   802 local x,y,z moments=    0.0000E+00    5.9300E-03    1.3615E-03  setid=       0
 node=   809 local x,y,z forces =    8.6871E+00    0.0000E+00    0.0000E+00  setid=       0
 node=   809 local x,y,z moments=    0.0000E+00    1.9555E-02    4.3022E-04  setid=       0
 node=   810 local x,y,z forces =   -2.8844E+01    0.0000E+00    0.0000E+00  setid=       0
 node=   810 local x,y,z moments=    0.0000E+00   -6.7157E-03   -4.3063E-03  setid=       0
 node=   814 local x,y,z forces =    4.0867E+00    0.0000E+00    0.0000E+00  setid=       0
 node=   814 local x,y,z moments=    0.0000E+00    1.5632E-02    1.8458E-03  setid=       0
 node=   824 local x,y,z forces =    5.8507E+00    0.0000E+00    0.0000E+00  setid=       0
 node=   824 local x,y,z moments=    0.0000E+00    7.0448E-03    2.6700E-03  setid=       0
 node=   825 local x,y,z forces =    2.3521E+00    0.0000E+00    0.0000E+00  setid=       0
 node=   825 local x,y,z moments=    0.0000E+00    7.2430E-03    1.3645E-03  setid=       0
 node=   826 local x,y,z forces =    4.4389E+00    0.0000E+00    0.0000E+00  setid=       0
 node=   826 local x,y,z moments=    0.0000E+00    1.1905E-02    7.2370E-03  setid=       0
 node=   833 local x,y,z forces =    1.5541E+00    0.0000E+00    0.0000E+00  setid=       0
 node=   833 local x,y,z moments=    0.0000E+00    8.7035E-03    1.9587E-03  setid=       0
 node=   834 local x,y,z forces =   -2.8780E-01    0.0000E+00    0.0000E+00  setid=       0
 node=   834 local x,y,z moments=    0.0000E+00    7.2803E-03    1.6704E-03  setid=       0
 node=   838 local x,y,z forces =   -5.2142E+00    0.0000E+00    0.0000E+00  setid=       0
 node=   838 local x,y,z moments=    0.0000E+00    6.6025E-03   -2.4250E-04  setid=       0
 node=   842 local x,y,z forces =   -2.6962E+00    0.0000E+00    0.0000E+00  setid=       0
 node=   842 local x,y,z moments=    0.0000E+00    6.0838E-03    1.6035E-04  setid=       0
 node=   849 local x,y,z forces =    3.0923E+00    0.0000E+00    0.0000E+00  setid=       0
 node=   849 local x,y,z moments=    0.0000E+00    5.0121E-03    1.8163E-03  setid=       0
 node=   850 local x,y,z forces =    3.7375E+00    0.0000E+00    0.0000E+00  setid=       0
 node=   850 local x,y,z moments=    0.0000E+00    5.3638E-03    1.8791E-03  setid=       0
 node=   857 local x,y,z forces =    9.5031E+00    0.0000E+00    0.0000E+00  setid=       0
 node=   857 local x,y,z moments=    0.0000E+00    1.6639E-02    3.7128E-03  setid=       0
 node=   858 local x,y,z forces =   -1.3960E+01    0.0000E+00    0.0000E+00  setid=       0
 node=   858 local x,y,z moments=    0.0000E+00   -1.4115E-02   -6.3490E-03  setid=       0
 node=   862 local x,y,z forces =    2.7470E+00    0.0000E+00    0.0000E+00  setid=       0
 node=   862 local x,y,z moments=    0.0000E+00    4.6897E-03    1.7043E-03  setid=       0
 node=   869 local x,y,z forces =    2.2752E+00    0.0000E+00    0.0000E+00  setid=       0
 node=   869 local x,y,z moments=    0.0000E+00    9.1743E-03    1.0260E-02  setid=       0
 node=   870 local x,y,z forces =    6.1728E+00    0.0000E+00    0.0000E+00  setid=       0
 node=   870 local x,y,z moments=    0.0000E+00   -1.1873E-02   -5.6368E-03  setid=       0
 node=   874 local x,y,z forces =   -1.3729E+00    0.0000E+00    0.0000E+00  setid=       0
 node=   874 local x,y,z moments=    0.0000E+00    5.7327E-03    4.0365E-04  setid=       0
 node=   878 local x,y,z forces =    2.8575E+00    0.0000E+00    0.0000E+00  setid=       0
 node=   878 local x,y,z moments=    0.0000E+00    4.8954E-03    1.7649E-03  setid=       0
 node=   885 local x,y,z forces =   -2.2405E+01    0.0000E+00    0.0000E+00  setid=       0
 node=   885 local x,y,z moments=    0.0000E+00   -1.9789E-02    9.7191E-04  setid=       0
 node=   886 local x,y,z forces =    8.2421E+00    0.0000E+00    0.0000E+00  setid=       0
 node=   886 local x,y,z moments=    0.0000E+00    2.0649E-02   -2.7214E-03  setid=       0
 node=   890 local x,y,z forces =   -1.2622E+01    0.0000E+00    0.0000E+00  setid=       0
 node=   890 local x,y,z moments=    0.0000E+00   -6.6273E-03    8.0035E-03  setid=       0
             force resultants   =    1.3752E+01   -2.2799E+01    1.0317E+01
