 LS-DYNA keyword deck by LS-PrePost                                      
                    ls-dyna smp d R14 R14.1.1s_1_ef50e1 date 06/16/2024

 n o d a l   f o r c e/e n e r g y    o u t p u t  t=   0.00000E+00

 velocity boundary condition forces/rigid body moments 

 nd#    1157  xforce=   0.0000E+00   yforce=   0.0000E+00  zforce=   0.0000E+00   energy=   0.0000E+00   setid =    1157 xmoment=   0.0000E+00 ymoment=   0.0000E+00 zmoment=   0.0000E+00
 nd#    1158  xforce=   0.0000E+00   yforce=   0.0000E+00  zforce=   0.0000E+00   energy=   0.0000E+00   setid =    1158 xmoment=   0.0000E+00 ymoment=   0.0000E+00 zmoment=   0.0000E+00
 nd#    1159  xforce=   0.0000E+00   yforce=   0.0000E+00  zforce=   0.0000E+00   energy=   0.0000E+00   setid =    1159 xmoment=   0.0000E+00 ymoment=   0.0000E+00 zmoment=   0.0000E+00
 nd#    1160  xforce=   0.0000E+00   yforce=   0.0000E+00  zforce=   0.0000E+00   energy=   0.0000E+00   setid =    1160 xmoment=   0.0000E+00 ymoment=   0.0000E+00 zmoment=   0.0000E+00
 nd#    1221  xforce=   0.0000E+00   yforce=   0.0000E+00  zforce=   0.0000E+00   energy=   0.0000E+00   setid =    1221 xmoment=   0.0000E+00 ymoment=   0.0000E+00 zmoment=   0.0000E+00
 nd#    1222  xforce=   0.0000E+00   yforce=   0.0000E+00  zforce=   0.0000E+00   energy=   0.0000E+00   setid =    1222 xmoment=   0.0000E+00 ymoment=   0.0000E+00 zmoment=   0.0000E+00
 nd#    1223  xforce=   0.0000E+00   yforce=   0.0000E+00  zforce=   0.0000E+00   energy=   0.0000E+00   setid =    1223 xmoment=   0.0000E+00 ymoment=   0.0000E+00 zmoment=   0.0000E+00
 nd#    1284  xforce=   0.0000E+00   yforce=   0.0000E+00  zforce=   0.0000E+00   energy=   0.0000E+00   setid =    1284 xmoment=   0.0000E+00 ymoment=   0.0000E+00 zmoment=   0.0000E+00
 nd#    1285  xforce=   0.0000E+00   yforce=   0.0000E+00  zforce=   0.0000E+00   energy=   0.0000E+00   setid =    1285 xmoment=   0.0000E+00 ymoment=   0.0000E+00 zmoment=   0.0000E+00
 nd#    1286  xforce=   0.0000E+00   yforce=   0.0000E+00  zforce=   0.0000E+00   energy=   0.0000E+00   setid =    1286 xmoment=   0.0000E+00 ymoment=   0.0000E+00 zmoment=   0.0000E+00
 nd#    1347  xforce=   0.0000E+00   yforce=   0.0000E+00  zforce=   0.0000E+00   energy=   0.0000E+00   setid =    1347 xmoment=   0.0000E+00 ymoment=   0.0000E+00 zmoment=   0.0000E+00
 nd#    1348  xforce=   0.0000E+00   yforce=   0.0000E+00  zforce=   0.0000E+00   energy=   0.0000E+00   setid =    1348 xmoment=   0.0000E+00 ymoment=   0.0000E+00 zmoment=   0.0000E+00
 nd#    1349  xforce=   0.0000E+00   yforce=   0.0000E+00  zforce=   0.0000E+00   energy=   0.0000E+00   setid =    1349 xmoment=   0.0000E+00 ymoment=   0.0000E+00 zmoment=   0.0000E+00
 nd#    1430  xforce=   0.0000E+00   yforce=   0.0000E+00  zforce=   0.0000E+00   energy=   0.0000E+00   setid =    1430 xmoment=   0.0000E+00 ymoment=   0.0000E+00 zmoment=   0.0000E+00
 nd#    1431  xforce=   0.0000E+00   yforce=   0.0000E+00  zforce=   0.0000E+00   energy=   0.0000E+00   setid =    1431 xmoment=   0.0000E+00 ymoment=   0.0000E+00 zmoment=   0.0000E+00
 nd#    1432  xforce=   0.0000E+00   yforce=   0.0000E+00  zforce=   0.0000E+00   energy=   0.0000E+00   setid =    1432 xmoment=   0.0000E+00 ymoment=   0.0000E+00 zmoment=   0.0000E+00
 nd#    1433  xforce=   0.0000E+00   yforce=   0.0000E+00  zforce=   0.0000E+00   energy=   0.0000E+00   setid =    1433 xmoment=   0.0000E+00 ymoment=   0.0000E+00 zmoment=   0.0000E+00
 nd#    1514  xforce=   0.0000E+00   yforce=   0.0000E+00  zforce=   0.0000E+00   energy=   0.0000E+00   setid =    1514 xmoment=   0.0000E+00 ymoment=   0.0000E+00 zmoment=   0.0000E+00
 nd#    1515  xforce=   0.0000E+00   yforce=   0.0000E+00  zforce=   0.0000E+00   energy=   0.0000E+00   setid =    1515 xmoment=   0.0000E+00 ymoment=   0.0000E+00 zmoment=   0.0000E+00
 nd#    1516  xforce=   0.0000E+00   yforce=   0.0000E+00  zforce=   0.0000E+00   energy=   0.0000E+00   setid =    1516 xmoment=   0.0000E+00 ymoment=   0.0000E+00 zmoment=   0.0000E+00
 nd#    1517  xforce=   0.0000E+00   yforce=   0.0000E+00  zforce=   0.0000E+00   energy=   0.0000E+00   setid =    1517 xmoment=   0.0000E+00 ymoment=   0.0000E+00 zmoment=   0.0000E+00
 nd#    1538  xforce=   0.0000E+00   yforce=   0.0000E+00  zforce=   0.0000E+00   energy=   0.0000E+00   setid =    1538 xmoment=   0.0000E+00 ymoment=   0.0000E+00 zmoment=   0.0000E+00
 nd#    1579  xforce=   0.0000E+00   yforce=   0.0000E+00  zforce=   0.0000E+00   energy=   0.0000E+00   setid =    1579 xmoment=   0.0000E+00 ymoment=   0.0000E+00 zmoment=   0.0000E+00
 nd#    1580  xforce=   0.0000E+00   yforce=   0.0000E+00  zforce=   0.0000E+00   energy=   0.0000E+00   setid =    1580 xmoment=   0.0000E+00 ymoment=   0.0000E+00 zmoment=   0.0000E+00
 nd#    1621  xforce=   0.0000E+00   yforce=   0.0000E+00  zforce=   0.0000E+00   energy=   0.0000E+00   setid =    1621 xmoment=   0.0000E+00 ymoment=   0.0000E+00 zmoment=   0.0000E+00
 nd#    1622  xforce=   0.0000E+00   yforce=   0.0000E+00  zforce=   0.0000E+00   energy=   0.0000E+00   setid =    1622 xmoment=   0.0000E+00 ymoment=   0.0000E+00 zmoment=   0.0000E+00
 nd#    1663  xforce=   0.0000E+00   yforce=   0.0000E+00  zforce=   0.0000E+00   energy=   0.0000E+00   setid =    1663 xmoment=   0.0000E+00 ymoment=   0.0000E+00 zmoment=   0.0000E+00
 nd#    1664  xforce=   0.0000E+00   yforce=   0.0000E+00  zforce=   0.0000E+00   energy=   0.0000E+00   setid =    1664 xmoment=   0.0000E+00 ymoment=   0.0000E+00 zmoment=   0.0000E+00
 nd#    1705  xforce=   0.0000E+00   yforce=   0.0000E+00  zforce=   0.0000E+00   energy=   0.0000E+00   setid =    1705 xmoment=   0.0000E+00 ymoment=   0.0000E+00 zmoment=   0.0000E+00
 nd#    1706  xforce=   0.0000E+00   yforce=   0.0000E+00  zforce=   0.0000E+00   energy=   0.0000E+00   setid =    1706 xmoment=   0.0000E+00 ymoment=   0.0000E+00 zmoment=   0.0000E+00
 nd#    1727  xforce=   0.0000E+00   yforce=   0.0000E+00  zforce=   0.0000E+00   energy=   0.0000E+00   setid =    1727 xmoment=   0.0000E+00 ymoment=   0.0000E+00 zmoment=   0.0000E+00
 nd#    1808  xforce=   0.0000E+00   yforce=   0.0000E+00  zforce=   0.0000E+00   energy=   0.0000E+00   setid =    1808 xmoment=   0.0000E+00 ymoment=   0.0000E+00 zmoment=   0.0000E+00
 nd#    1809  xforce=   0.0000E+00   yforce=   0.0000E+00  zforce=   0.0000E+00   energy=   0.0000E+00   setid =    1809 xmoment=   0.0000E+00 ymoment=   0.0000E+00 zmoment=   0.0000E+00
 nd#    1810  xforce=   0.0000E+00   yforce=   0.0000E+00  zforce=   0.0000E+00   energy=   0.0000E+00   setid =    1810 xmoment=   0.0000E+00 ymoment=   0.0000E+00 zmoment=   0.0000E+00
 nd#    1811  xforce=   0.0000E+00   yforce=   0.0000E+00  zforce=   0.0000E+00   energy=   0.0000E+00   setid =    1811 xmoment=   0.0000E+00 ymoment=   0.0000E+00 zmoment=   0.0000E+00
 nd#    1832  xforce=   0.0000E+00   yforce=   0.0000E+00  zforce=   0.0000E+00   energy=   0.0000E+00   setid =    1832 xmoment=   0.0000E+00 ymoment=   0.0000E+00 zmoment=   0.0000E+00
 nd#    1853  xforce=   0.0000E+00   yforce=   0.0000E+00  zforce=   0.0000E+00   energy=   0.0000E+00   setid =    1853 xmoment=   0.0000E+00 ymoment=   0.0000E+00 zmoment=   0.0000E+00
 nd#    1854  xforce=   0.0000E+00   yforce=   0.0000E+00  zforce=   0.0000E+00   energy=   0.0000E+00   setid =    1854 xmoment=   0.0000E+00 ymoment=   0.0000E+00 zmoment=   0.0000E+00
 nd#    1855  xforce=   0.0000E+00   yforce=   0.0000E+00  zforce=   0.0000E+00   energy=   0.0000E+00   setid =    1855 xmoment=   0.0000E+00 ymoment=   0.0000E+00 zmoment=   0.0000E+00
 nd#    1856  xforce=   0.0000E+00   yforce=   0.0000E+00  zforce=   0.0000E+00   energy=   0.0000E+00   setid =    1856 xmoment=   0.0000E+00 ymoment=   0.0000E+00 zmoment=   0.0000E+00
 nd#    1857  xforce=   0.0000E+00   yforce=   0.0000E+00  zforce=   0.0000E+00   energy=   0.0000E+00   setid =    1857 xmoment=   0.0000E+00 ymoment=   0.0000E+00 zmoment=   0.0000E+00
 nd#    1858  xforce=   0.0000E+00   yforce=   0.0000E+00  zforce=   0.0000E+00   energy=   0.0000E+00   setid =    1858 xmoment=   0.0000E+00 ymoment=   0.0000E+00 zmoment=   0.0000E+00
 nd#    1859  xforce=   0.0000E+00   yforce=   0.0000E+00  zforce=   0.0000E+00   energy=   0.0000E+00   setid =    1859 xmoment=   0.0000E+00 ymoment=   0.0000E+00 zmoment=   0.0000E+00
 nd#    1867  xforce=   0.0000E+00   yforce=   0.0000E+00  zforce=   0.0000E+00   energy=   0.0000E+00   setid =    1867 xmoment=   0.0000E+00 ymoment=   0.0000E+00 zmoment=   0.0000E+00
 nd#    1868  xforce=   0.0000E+00   yforce=   0.0000E+00  zforce=   0.0000E+00   energy=   0.0000E+00   setid =    1868 xmoment=   0.0000E+00 ymoment=   0.0000E+00 zmoment=   0.0000E+00
 nd#    1869  xforce=   0.0000E+00   yforce=   0.0000E+00  zforce=   0.0000E+00   energy=   0.0000E+00   setid =    1869 xmoment=   0.0000E+00 ymoment=   0.0000E+00 zmoment=   0.0000E+00
 nd#    1870  xforce=   0.0000E+00   yforce=   0.0000E+00  zforce=   0.0000E+00   energy=   0.0000E+00   setid =    1870 xmoment=   0.0000E+00 ymoment=   0.0000E+00 zmoment=   0.0000E+00
 nd#    1871  xforce=   0.0000E+00   yforce=   0.0000E+00  zforce=   0.0000E+00   energy=   0.0000E+00   setid =    1871 xmoment=   0.0000E+00 ymoment=   0.0000E+00 zmoment=   0.0000E+00
 nd#    1872  xforce=   0.0000E+00   yforce=   0.0000E+00  zforce=   0.0000E+00   energy=   0.0000E+00   setid =    1872 xmoment=   0.0000E+00 ymoment=   0.0000E+00 zmoment=   0.0000E+00
 nd#    1873  xforce=   0.0000E+00   yforce=   0.0000E+00  zforce=   0.0000E+00   energy=   0.0000E+00   setid =    1873 xmoment=   0.0000E+00 ymoment=   0.0000E+00 zmoment=   0.0000E+00
 nd#    1874  xforce=   0.0000E+00   yforce=   0.0000E+00  zforce=   0.0000E+00   energy=   0.0000E+00   setid =    1874 xmoment=   0.0000E+00 ymoment=   0.0000E+00 zmoment=   0.0000E+00
 nd#    1875  xforce=   0.0000E+00   yforce=   0.0000E+00  zforce=   0.0000E+00   energy=   0.0000E+00   setid =    1875 xmoment=   0.0000E+00 ymoment=   0.0000E+00 zmoment=   0.0000E+00
 nd#    1876  xforce=   0.0000E+00   yforce=   0.0000E+00  zforce=   0.0000E+00   energy=   0.0000E+00   setid =    1876 xmoment=   0.0000E+00 ymoment=   0.0000E+00 zmoment=   0.0000E+00
 nd#    1877  xforce=   0.0000E+00   yforce=   0.0000E+00  zforce=   0.0000E+00   energy=   0.0000E+00   setid =    1877 xmoment=   0.0000E+00 ymoment=   0.0000E+00 zmoment=   0.0000E+00
 nd#    1878  xforce=   0.0000E+00   yforce=   0.0000E+00  zforce=   0.0000E+00   energy=   0.0000E+00   setid =    1878 xmoment=   0.0000E+00 ymoment=   0.0000E+00 zmoment=   0.0000E+00
 nd#    1879  xforce=   0.0000E+00   yforce=   0.0000E+00  zforce=   0.0000E+00   energy=   0.0000E+00   setid =    1879 xmoment=   0.0000E+00 ymoment=   0.0000E+00 zmoment=   0.0000E+00
 nd#    1880  xforce=   0.0000E+00   yforce=   0.0000E+00  zforce=   0.0000E+00   energy=   0.0000E+00   setid =    1880 xmoment=   0.0000E+00 ymoment=   0.0000E+00 zmoment=   0.0000E+00
 nd#    1881  xforce=   0.0000E+00   yforce=   0.0000E+00  zforce=   0.0000E+00   energy=   0.0000E+00   setid =    1881 xmoment=   0.0000E+00 ymoment=   0.0000E+00 zmoment=   0.0000E+00
 nd#    1882  xforce=   0.0000E+00   yforce=   0.0000E+00  zforce=   0.0000E+00   energy=   0.0000E+00   setid =    1882 xmoment=   0.0000E+00 ymoment=   0.0000E+00 zmoment=   0.0000E+00
 nd#    1883  xforce=   0.0000E+00   yforce=   0.0000E+00  zforce=   0.0000E+00   energy=   0.0000E+00   setid =    1883 xmoment=   0.0000E+00 ymoment=   0.0000E+00 zmoment=   0.0000E+00
 nd#    1884  xforce=   0.0000E+00   yforce=   0.0000E+00  zforce=   0.0000E+00   energy=   0.0000E+00   setid =    1884 xmoment=   0.0000E+00 ymoment=   0.0000E+00 zmoment=   0.0000E+00
 nd#    1885  xforce=   0.0000E+00   yforce=   0.0000E+00  zforce=   0.0000E+00   energy=   0.0000E+00   setid =    1885 xmoment=   0.0000E+00 ymoment=   0.0000E+00 zmoment=   0.0000E+00
 nd#    1886  xforce=   0.0000E+00   yforce=   0.0000E+00  zforce=   0.0000E+00   energy=   0.0000E+00   setid =    1886 xmoment=   0.0000E+00 ymoment=   0.0000E+00 zmoment=   0.0000E+00
 nd#    1887  xforce=   0.0000E+00   yforce=   0.0000E+00  zforce=   0.0000E+00   energy=   0.0000E+00   setid =    1887 xmoment=   0.0000E+00 ymoment=   0.0000E+00 zmoment=   0.0000E+00
 nd#    1888  xforce=   0.0000E+00   yforce=   0.0000E+00  zforce=   0.0000E+00   energy=   0.0000E+00   setid =    1888 xmoment=   0.0000E+00 ymoment=   0.0000E+00 zmoment=   0.0000E+00
 nd#    1889  xforce=   0.0000E+00   yforce=   0.0000E+00  zforce=   0.0000E+00   energy=   0.0000E+00   setid =    1889 xmoment=   0.0000E+00 ymoment=   0.0000E+00 zmoment=   0.0000E+00
 nd#    1890  xforce=   0.0000E+00   yforce=   0.0000E+00  zforce=   0.0000E+00   energy=   0.0000E+00   setid =    1890 xmoment=   0.0000E+00 ymoment=   0.0000E+00 zmoment=   0.0000E+00
 nd#    1891  xforce=   0.0000E+00   yforce=   0.0000E+00  zforce=   0.0000E+00   energy=   0.0000E+00   setid =    1891 xmoment=   0.0000E+00 ymoment=   0.0000E+00 zmoment=   0.0000E+00
 nd#    1892  xforce=   0.0000E+00   yforce=   0.0000E+00  zforce=   0.0000E+00   energy=   0.0000E+00   setid =    1892 xmoment=   0.0000E+00 ymoment=   0.0000E+00 zmoment=   0.0000E+00
 nd#    1893  xforce=   0.0000E+00   yforce=   0.0000E+00  zforce=   0.0000E+00   energy=   0.0000E+00   setid =    1893 xmoment=   0.0000E+00 ymoment=   0.0000E+00 zmoment=   0.0000E+00
 nd#    1894  xforce=   0.0000E+00   yforce=   0.0000E+00  zforce=   0.0000E+00   energy=   0.0000E+00   setid =    1894 xmoment=   0.0000E+00 ymoment=   0.0000E+00 zmoment=   0.0000E+00
 nd#    1895  xforce=   0.0000E+00   yforce=   0.0000E+00  zforce=   0.0000E+00   energy=   0.0000E+00   setid =    1895 xmoment=   0.0000E+00 ymoment=   0.0000E+00 zmoment=   0.0000E+00
 nd#    1896  xforce=   0.0000E+00   yforce=   0.0000E+00  zforce=   0.0000E+00   energy=   0.0000E+00   setid =    1896 xmoment=   0.0000E+00 ymoment=   0.0000E+00 zmoment=   0.0000E+00
 nd#    1897  xforce=   0.0000E+00   yforce=   0.0000E+00  zforce=   0.0000E+00   energy=   0.0000E+00   setid =    1897 xmoment=   0.0000E+00 ymoment=   0.0000E+00 zmoment=   0.0000E+00
 nd#    1898  xforce=   0.0000E+00   yforce=   0.0000E+00  zforce=   0.0000E+00   energy=   0.0000E+00   setid =    1898 xmoment=   0.0000E+00 ymoment=   0.0000E+00 zmoment=   0.0000E+00
 nd#    1899  xforce=   0.0000E+00   yforce=   0.0000E+00  zforce=   0.0000E+00   energy=   0.0000E+00   setid =    1899 xmoment=   0.0000E+00 ymoment=   0.0000E+00 zmoment=   0.0000E+00
 nd#    1900  xforce=   0.0000E+00   yforce=   0.0000E+00  zforce=   0.0000E+00   energy=   0.0000E+00   setid =    1900 xmoment=   0.0000E+00 ymoment=   0.0000E+00 zmoment=   0.0000E+00
 nd#    1901  xforce=   0.0000E+00   yforce=   0.0000E+00  zforce=   0.0000E+00   energy=   0.0000E+00   setid =    1901 xmoment=   0.0000E+00 ymoment=   0.0000E+00 zmoment=   0.0000E+00
 nd#    1902  xforce=   0.0000E+00   yforce=   0.0000E+00  zforce=   0.0000E+00   energy=   0.0000E+00   setid =    1902 xmoment=   0.0000E+00 ymoment=   0.0000E+00 zmoment=   0.0000E+00
 nd#    3203  xforce=   0.0000E+00   yforce=   0.0000E+00  zforce=   0.0000E+00   energy=   0.0000E+00   setid =    3203 xmoment=   0.0000E+00 ymoment=   0.0000E+00 zmoment=   0.0000E+00
 nd#    3204  xforce=   0.0000E+00   yforce=   0.0000E+00  zforce=   0.0000E+00   energy=   0.0000E+00   setid =    3204 xmoment=   0.0000E+00 ymoment=   0.0000E+00 zmoment=   0.0000E+00
 nd#    3205  xforce=   0.0000E+00   yforce=   0.0000E+00  zforce=   0.0000E+00   energy=   0.0000E+00   setid =    3205 xmoment=   0.0000E+00 ymoment=   0.0000E+00 zmoment=   0.0000E+00
 nd#    3206  xforce=   0.0000E+00   yforce=   0.0000E+00  zforce=   0.0000E+00   energy=   0.0000E+00   setid =    3206 xmoment=   0.0000E+00 ymoment=   0.0000E+00 zmoment=   0.0000E+00
 nd#    3207  xforce=   0.0000E+00   yforce=   0.0000E+00  zforce=   0.0000E+00   energy=   0.0000E+00   setid =    3207 xmoment=   0.0000E+00 ymoment=   0.0000E+00 zmoment=   0.0000E+00
 nd#    3208  xforce=   0.0000E+00   yforce=   0.0000E+00  zforce=   0.0000E+00   energy=   0.0000E+00   setid =    3208 xmoment=   0.0000E+00 ymoment=   0.0000E+00 zmoment=   0.0000E+00
 nd#    3209  xforce=   0.0000E+00   yforce=   0.0000E+00  zforce=   0.0000E+00   energy=   0.0000E+00   setid =    3209 xmoment=   0.0000E+00 ymoment=   0.0000E+00 zmoment=   0.0000E+00
 nd#    3210  xforce=   0.0000E+00   yforce=   0.0000E+00  zforce=   0.0000E+00   energy=   0.0000E+00   setid =    3210 xmoment=   0.0000E+00 ymoment=   0.0000E+00 zmoment=   0.0000E+00
 nd#    3645  xforce=   0.0000E+00   yforce=   0.0000E+00  zforce=   0.0000E+00   energy=   0.0000E+00   setid =    3645 xmoment=   0.0000E+00 ymoment=   0.0000E+00 zmoment=   0.0000E+00
 nd#    3648  xforce=   0.0000E+00   yforce=   0.0000E+00  zforce=   0.0000E+00   energy=   0.0000E+00   setid =    3648 xmoment=   0.0000E+00 ymoment=   0.0000E+00 zmoment=   0.0000E+00
 nd#    3649  xforce=   0.0000E+00   yforce=   0.0000E+00  zforce=   0.0000E+00   energy=   0.0000E+00   setid =    3649 xmoment=   0.0000E+00 ymoment=   0.0000E+00 zmoment=   0.0000E+00
 nd#    3652  xforce=   0.0000E+00   yforce=   0.0000E+00  zforce=   0.0000E+00   energy=   0.0000E+00   setid =    3652 xmoment=   0.0000E+00 ymoment=   0.0000E+00 zmoment=   0.0000E+00
 nd#    3653  xforce=   0.0000E+00   yforce=   0.0000E+00  zforce=   0.0000E+00   energy=   0.0000E+00   setid =    3653 xmoment=   0.0000E+00 ymoment=   0.0000E+00 zmoment=   0.0000E+00
 nd#    3656  xforce=   0.0000E+00   yforce=   0.0000E+00  zforce=   0.0000E+00   energy=   0.0000E+00   setid =    3656 xmoment=   0.0000E+00 ymoment=   0.0000E+00 zmoment=   0.0000E+00
 nd#    3657  xforce=   0.0000E+00   yforce=   0.0000E+00  zforce=   0.0000E+00   energy=   0.0000E+00   setid =    3657 xmoment=   0.0000E+00 ymoment=   0.0000E+00 zmoment=   0.0000E+00
 nd#    3660  xforce=   0.0000E+00   yforce=   0.0000E+00  zforce=   0.0000E+00   energy=   0.0000E+00   setid =    3660 xmoment=   0.0000E+00 ymoment=   0.0000E+00 zmoment=   0.0000E+00
 nd#    3661  xforce=   0.0000E+00   yforce=   0.0000E+00  zforce=   0.0000E+00   energy=   0.0000E+00   setid =    3661 xmoment=   0.0000E+00 ymoment=   0.0000E+00 zmoment=   0.0000E+00
 nd#    3664  xforce=   0.0000E+00   yforce=   0.0000E+00  zforce=   0.0000E+00   energy=   0.0000E+00   setid =    3664 xmoment=   0.0000E+00 ymoment=   0.0000E+00 zmoment=   0.0000E+00
 nd#    3665  xforce=   0.0000E+00   yforce=   0.0000E+00  zforce=   0.0000E+00   energy=   0.0000E+00   setid =    3665 xmoment=   0.0000E+00 ymoment=   0.0000E+00 zmoment=   0.0000E+00
 nd#    3668  xforce=   0.0000E+00   yforce=   0.0000E+00  zforce=   0.0000E+00   energy=   0.0000E+00   setid =    3668 xmoment=   0.0000E+00 ymoment=   0.0000E+00 zmoment=   0.0000E+00
 nd#    4143  xforce=   0.0000E+00   yforce=   0.0000E+00  zforce=   0.0000E+00   energy=   0.0000E+00   setid =    4143 xmoment=   0.0000E+00 ymoment=   0.0000E+00 zmoment=   0.0000E+00
 nd#    4146  xforce=   0.0000E+00   yforce=   0.0000E+00  zforce=   0.0000E+00   energy=   0.0000E+00   setid =    4146 xmoment=   0.0000E+00 ymoment=   0.0000E+00 zmoment=   0.0000E+00
 nd#    4147  xforce=   0.0000E+00   yforce=   0.0000E+00  zforce=   0.0000E+00   energy=   0.0000E+00   setid =    4147 xmoment=   0.0000E+00 ymoment=   0.0000E+00 zmoment=   0.0000E+00
 nd#    4150  xforce=   0.0000E+00   yforce=   0.0000E+00  zforce=   0.0000E+00   energy=   0.0000E+00   setid =    4150 xmoment=   0.0000E+00 ymoment=   0.0000E+00 zmoment=   0.0000E+00
 nd#    4151  xforce=   0.0000E+00   yforce=   0.0000E+00  zforce=   0.0000E+00   energy=   0.0000E+00   setid =    4151 xmoment=   0.0000E+00 ymoment=   0.0000E+00 zmoment=   0.0000E+00
 nd#    4154  xforce=   0.0000E+00   yforce=   0.0000E+00  zforce=   0.0000E+00   energy=   0.0000E+00   setid =    4154 xmoment=   0.0000E+00 ymoment=   0.0000E+00 zmoment=   0.0000E+00
 nd#    4155  xforce=   0.0000E+00   yforce=   0.0000E+00  zforce=   0.0000E+00   energy=   0.0000E+00   setid =    4155 xmoment=   0.0000E+00 ymoment=   0.0000E+00 zmoment=   0.0000E+00
 nd#    4158  xforce=   0.0000E+00   yforce=   0.0000E+00  zforce=   0.0000E+00   energy=   0.0000E+00   setid =    4158 xmoment=   0.0000E+00 ymoment=   0.0000E+00 zmoment=   0.0000E+00
 nd#    4159  xforce=   0.0000E+00   yforce=   0.0000E+00  zforce=   0.0000E+00   energy=   0.0000E+00   setid =    4159 xmoment=   0.0000E+00 ymoment=   0.0000E+00 zmoment=   0.0000E+00
 nd#    4162  xforce=   0.0000E+00   yforce=   0.0000E+00  zforce=   0.0000E+00   energy=   0.0000E+00   setid =    4162 xmoment=   0.0000E+00 ymoment=   0.0000E+00 zmoment=   0.0000E+00
 nd#    4163  xforce=   0.0000E+00   yforce=   0.0000E+00  zforce=   0.0000E+00   energy=   0.0000E+00   setid =    4163 xmoment=   0.0000E+00 ymoment=   0.0000E+00 zmoment=   0.0000E+00
 nd#    4166  xforce=   0.0000E+00   yforce=   0.0000E+00  zforce=   0.0000E+00   energy=   0.0000E+00   setid =    4166 xmoment=   0.0000E+00 ymoment=   0.0000E+00 zmoment=   0.0000E+00
 nd#    4305  xforce=   0.0000E+00   yforce=   0.0000E+00  zforce=   0.0000E+00   energy=   0.0000E+00   setid =    4305 xmoment=   0.0000E+00 ymoment=   0.0000E+00 zmoment=   0.0000E+00
 nd#    4306  xforce=   0.0000E+00   yforce=   0.0000E+00  zforce=   0.0000E+00   energy=   0.0000E+00   setid =    4306 xmoment=   0.0000E+00 ymoment=   0.0000E+00 zmoment=   0.0000E+00
 nd#    4307  xforce=   0.0000E+00   yforce=   0.0000E+00  zforce=   0.0000E+00   energy=   0.0000E+00   setid =    4307 xmoment=   0.0000E+00 ymoment=   0.0000E+00 zmoment=   0.0000E+00
 nd#    4308  xforce=   0.0000E+00   yforce=   0.0000E+00  zforce=   0.0000E+00   energy=   0.0000E+00   setid =    4308 xmoment=   0.0000E+00 ymoment=   0.0000E+00 zmoment=   0.0000E+00
 nd#    4309  xforce=   0.0000E+00   yforce=   0.0000E+00  zforce=   0.0000E+00   energy=   0.0000E+00   setid =    4309 xmoment=   0.0000E+00 ymoment=   0.0000E+00 zmoment=   0.0000E+00
 nd#    4310  xforce=   0.0000E+00   yforce=   0.0000E+00  zforce=   0.0000E+00   energy=   0.0000E+00   setid =    4310 xmoment=   0.0000E+00 ymoment=   0.0000E+00 zmoment=   0.0000E+00
 nd#    4311  xforce=   0.0000E+00   yforce=   0.0000E+00  zforce=   0.0000E+00   energy=   0.0000E+00   setid =    4311 xmoment=   0.0000E+00 ymoment=   0.0000E+00 zmoment=   0.0000E+00
 nd#    4312  xforce=   0.0000E+00   yforce=   0.0000E+00  zforce=   0.0000E+00   energy=   0.0000E+00   setid =    4312 xmoment=   0.0000E+00 ymoment=   0.0000E+00 zmoment=   0.0000E+00
 nd#    4313  xforce=   0.0000E+00   yforce=   0.0000E+00  zforce=   0.0000E+00   energy=   0.0000E+00   setid =    4313 xmoment=   0.0000E+00 ymoment=   0.0000E+00 zmoment=   0.0000E+00
 nd#    4314  xforce=   0.0000E+00   yforce=   0.0000E+00  zforce=   0.0000E+00   energy=   0.0000E+00   setid =    4314 xmoment=   0.0000E+00 ymoment=   0.0000E+00 zmoment=   0.0000E+00
 nd#    4315  xforce=   0.0000E+00   yforce=   0.0000E+00  zforce=   0.0000E+00   energy=   0.0000E+00   setid =    4315 xmoment=   0.0000E+00 ymoment=   0.0000E+00 zmoment=   0.0000E+00
 nd#    4316  xforce=   0.0000E+00   yforce=   0.0000E+00  zforce=   0.0000E+00   energy=   0.0000E+00   setid =    4316 xmoment=   0.0000E+00 ymoment=   0.0000E+00 zmoment=   0.0000E+00
 nd#    4323  xforce=   0.0000E+00   yforce=   0.0000E+00  zforce=   0.0000E+00   energy=   0.0000E+00   setid =    4323 xmoment=   0.0000E+00 ymoment=   0.0000E+00 zmoment=   0.0000E+00
 nd#    4324  xforce=   0.0000E+00   yforce=   0.0000E+00  zforce=   0.0000E+00   energy=   0.0000E+00   setid =    4324 xmoment=   0.0000E+00 ymoment=   0.0000E+00 zmoment=   0.0000E+00
 nd#    4325  xforce=   0.0000E+00   yforce=   0.0000E+00  zforce=   0.0000E+00   energy=   0.0000E+00   setid =    4325 xmoment=   0.0000E+00 ymoment=   0.0000E+00 zmoment=   0.0000E+00
 nd#    4326  xforce=   0.0000E+00   yforce=   0.0000E+00  zforce=   0.0000E+00   energy=   0.0000E+00   setid =    4326 xmoment=   0.0000E+00 ymoment=   0.0000E+00 zmoment=   0.0000E+00
 nd#    4327  xforce=   0.0000E+00   yforce=   0.0000E+00  zforce=   0.0000E+00   energy=   0.0000E+00   setid =    4327 xmoment=   0.0000E+00 ymoment=   0.0000E+00 zmoment=   0.0000E+00
 nd#    4328  xforce=   0.0000E+00   yforce=   0.0000E+00  zforce=   0.0000E+00   energy=   0.0000E+00   setid =    4328 xmoment=   0.0000E+00 ymoment=   0.0000E+00 zmoment=   0.0000E+00
 nd#    4365  xforce=   0.0000E+00   yforce=   0.0000E+00  zforce=   0.0000E+00   energy=   0.0000E+00   setid =    4365 xmoment=   0.0000E+00 ymoment=   0.0000E+00 zmoment=   0.0000E+00
 nd#    4366  xforce=   0.0000E+00   yforce=   0.0000E+00  zforce=   0.0000E+00   energy=   0.0000E+00   setid =    4366 xmoment=   0.0000E+00 ymoment=   0.0000E+00 zmoment=   0.0000E+00
 nd#    4367  xforce=   0.0000E+00   yforce=   0.0000E+00  zforce=   0.0000E+00   energy=   0.0000E+00   setid =    4367 xmoment=   0.0000E+00 ymoment=   0.0000E+00 zmoment=   0.0000E+00
 nd#    4368  xforce=   0.0000E+00   yforce=   0.0000E+00  zforce=   0.0000E+00   energy=   0.0000E+00   setid =    4368 xmoment=   0.0000E+00 ymoment=   0.0000E+00 zmoment=   0.0000E+00
 nd#    4369  xforce=   0.0000E+00   yforce=   0.0000E+00  zforce=   0.0000E+00   energy=   0.0000E+00   setid =    4369 xmoment=   0.0000E+00 ymoment=   0.0000E+00 zmoment=   0.0000E+00
 nd#    4370  xforce=   0.0000E+00   yforce=   0.0000E+00  zforce=   0.0000E+00   energy=   0.0000E+00   setid =    4370 xmoment=   0.0000E+00 ymoment=   0.0000E+00 zmoment=   0.0000E+00
              xtotal=   0.0000E+00   ytotal=   0.0000E+00  ztotal=   0.0000E+00   etotal=   0.0000E+00

 n o d a l   f o r c e/e n e r g y    o u t p u t  t=   2.50000E+00

 velocity boundary condition forces/rigid body moments 

 nd#    1157  xforce=   0.0000E+00   yforce=   0.0000E+00  zforce=  -1.2693E-01   energy=   7.9331E-08   setid =    1157 xmoment=   0.0000E+00 ymoment=   0.0000E+00 zmoment=   0.0000E+00
 nd#    1158  xforce=   0.0000E+00   yforce=   0.0000E+00  zforce=  -9.0471E-02   energy=   5.6544E-08   setid =    1158 xmoment=   0.0000E+00 ymoment=   0.0000E+00 zmoment=   0.0000E+00
 nd#    1159  xforce=   0.0000E+00   yforce=   0.0000E+00  zforce=  -1.1425E-02   energy=   7.1409E-09   setid =    1159 xmoment=   0.0000E+00 ymoment=   0.0000E+00 zmoment=   0.0000E+00
 nd#    1160  xforce=   0.0000E+00   yforce=   0.0000E+00  zforce=  -6.2588E-02   energy=   3.9118E-08   setid =    1160 xmoment=   0.0000E+00 ymoment=   0.0000E+00 zmoment=   0.0000E+00
 nd#    1221  xforce=   0.0000E+00   yforce=   0.0000E+00  zforce=  -1.2268E-01   energy=   7.6677E-08   setid =    1221 xmoment=   0.0000E+00 ymoment=   0.0000E+00 zmoment=   0.0000E+00
 nd#    1222  xforce=   0.0000E+00   yforce=   0.0000E+00  zforce=  -2.1757E-01   energy=   1.3598E-07   setid =    1222 xmoment=   0.0000E+00 ymoment=   0.0000E+00 zmoment=   0.0000E+00
 nd#    1223  xforce=   0.0000E+00   yforce=   0.0000E+00  zforce=  -7.8248E-02   energy=   4.8905E-08   setid =    1223 xmoment=   0.0000E+00 ymoment=   0.0000E+00 zmoment=   0.0000E+00
 nd#    1284  xforce=   0.0000E+00   yforce=   0.0000E+00  zforce=  -4.5436E-02   energy=   2.8397E-08   setid =    1284 xmoment=   0.0000E+00 ymoment=   0.0000E+00 zmoment=   0.0000E+00
 nd#    1285  xforce=   0.0000E+00   yforce=   0.0000E+00  zforce=  -1.6420E-01   energy=   1.0263E-07   setid =    1285 xmoment=   0.0000E+00 ymoment=   0.0000E+00 zmoment=   0.0000E+00
 nd#    1286  xforce=   0.0000E+00   yforce=   0.0000E+00  zforce=  -1.3335E-01   energy=   8.3342E-08   setid =    1286 xmoment=   0.0000E+00 ymoment=   0.0000E+00 zmoment=   0.0000E+00
 nd#    1347  xforce=   0.0000E+00   yforce=   0.0000E+00  zforce=   1.1813E-02   energy=  -7.3834E-09   setid =    1347 xmoment=   0.0000E+00 ymoment=   0.0000E+00 zmoment=   0.0000E+00
 nd#    1348  xforce=   0.0000E+00   yforce=   0.0000E+00  zforce=  -9.5943E-03   energy=   5.9964E-09   setid =    1348 xmoment=   0.0000E+00 ymoment=   0.0000E+00 zmoment=   0.0000E+00
 nd#    1349  xforce=   0.0000E+00   yforce=   0.0000E+00  zforce=   4.2902E-02   energy=  -2.6814E-08   setid =    1349 xmoment=   0.0000E+00 ymoment=   0.0000E+00 zmoment=   0.0000E+00
 nd#    1430  xforce=   0.0000E+00   yforce=   0.0000E+00  zforce=  -1.4159E-01   energy=   8.8493E-08   setid =    1430 xmoment=   0.0000E+00 ymoment=   0.0000E+00 zmoment=   0.0000E+00
 nd#    1431  xforce=   0.0000E+00   yforce=   0.0000E+00  zforce=  -8.7778E-02   energy=   5.4861E-08   setid =    1431 xmoment=   0.0000E+00 ymoment=   0.0000E+00 zmoment=   0.0000E+00
 nd#    1432  xforce=   0.0000E+00   yforce=   0.0000E+00  zforce=   1.3147E-01   energy=  -8.2171E-08   setid =    1432 xmoment=   0.0000E+00 ymoment=   0.0000E+00 zmoment=   0.0000E+00
 nd#    1433  xforce=   0.0000E+00   yforce=   0.0000E+00  zforce=  -1.1300E-01   energy=   7.0623E-08   setid =    1433 xmoment=   0.0000E+00 ymoment=   0.0000E+00 zmoment=   0.0000E+00
 nd#    1514  xforce=   0.0000E+00   yforce=   0.0000E+00  zforce=  -3.9540E-02   energy=   2.4713E-08   setid =    1514 xmoment=   0.0000E+00 ymoment=   0.0000E+00 zmoment=   0.0000E+00
 nd#    1515  xforce=   0.0000E+00   yforce=   0.0000E+00  zforce=  -3.9638E-03   energy=   2.4774E-09   setid =    1515 xmoment=   0.0000E+00 ymoment=   0.0000E+00 zmoment=   0.0000E+00
 nd#    1516  xforce=   0.0000E+00   yforce=   0.0000E+00  zforce=   1.8038E-02   energy=  -1.1274E-08   setid =    1516 xmoment=   0.0000E+00 ymoment=   0.0000E+00 zmoment=   0.0000E+00
 nd#    1517  xforce=   0.0000E+00   yforce=   0.0000E+00  zforce=  -3.4666E-02   energy=   2.1666E-08   setid =    1517 xmoment=   0.0000E+00 ymoment=   0.0000E+00 zmoment=   0.0000E+00
 nd#    1538  xforce=   0.0000E+00   yforce=   0.0000E+00  zforce=  -1.8089E-01   energy=   1.1306E-07   setid =    1538 xmoment=   0.0000E+00 ymoment=   0.0000E+00 zmoment=   0.0000E+00
 nd#    1579  xforce=   0.0000E+00   yforce=   0.0000E+00  zforce=  -1.0817E-01   energy=   6.7608E-08   setid =    1579 xmoment=   0.0000E+00 ymoment=   0.0000E+00 zmoment=   0.0000E+00
 nd#    1580  xforce=   0.0000E+00   yforce=   0.0000E+00  zforce=  -1.2981E-01   energy=   8.1133E-08   setid =    1580 xmoment=   0.0000E+00 ymoment=   0.0000E+00 zmoment=   0.0000E+00
 nd#    1621  xforce=   0.0000E+00   yforce=   0.0000E+00  zforce=  -1.0861E-01   energy=   6.7883E-08   setid =    1621 xmoment=   0.0000E+00 ymoment=   0.0000E+00 zmoment=   0.0000E+00
 nd#    1622  xforce=   0.0000E+00   yforce=   0.0000E+00  zforce=  -8.3988E-02   energy=   5.2493E-08   setid =    1622 xmoment=   0.0000E+00 ymoment=   0.0000E+00 zmoment=   0.0000E+00
 nd#    1663  xforce=   0.0000E+00   yforce=   0.0000E+00  zforce=  -1.1392E-01   energy=   7.1201E-08   setid =    1663 xmoment=   0.0000E+00 ymoment=   0.0000E+00 zmoment=   0.0000E+00
 nd#    1664  xforce=   0.0000E+00   yforce=   0.0000E+00  zforce=   2.0166E-01   energy=  -1.2604E-07   setid =    1664 xmoment=   0.0000E+00 ymoment=   0.0000E+00 zmoment=   0.0000E+00
 nd#    1705  xforce=   0.0000E+00   yforce=   0.0000E+00  zforce=  -1.4732E-01   energy=   9.2073E-08   setid =    1705 xmoment=   0.0000E+00 ymoment=   0.0000E+00 zmoment=   0.0000E+00
 nd#    1706  xforce=   0.0000E+00   yforce=   0.0000E+00  zforce=  -1.5170E-01   energy=   9.4810E-08   setid =    1706 xmoment=   0.0000E+00 ymoment=   0.0000E+00 zmoment=   0.0000E+00
 nd#    1727  xforce=   0.0000E+00   yforce=   0.0000E+00  zforce=  -6.8318E-02   energy=   4.2699E-08   setid =    1727 xmoment=   0.0000E+00 ymoment=   0.0000E+00 zmoment=   0.0000E+00
 nd#    1808  xforce=   0.0000E+00   yforce=   0.0000E+00  zforce=  -9.5056E-02   energy=   5.9410E-08   setid =    1808 xmoment=   0.0000E+00 ymoment=   0.0000E+00 zmoment=   0.0000E+00
 nd#    1809  xforce=   0.0000E+00   yforce=   0.0000E+00  zforce=  -7.6236E-02   energy=   4.7648E-08   setid =    1809 xmoment=   0.0000E+00 ymoment=   0.0000E+00 zmoment=   0.0000E+00
 nd#    1810  xforce=   0.0000E+00   yforce=   0.0000E+00  zforce=  -9.8301E-02   energy=   6.1438E-08   setid =    1810 xmoment=   0.0000E+00 ymoment=   0.0000E+00 zmoment=   0.0000E+00
 nd#    1811  xforce=   0.0000E+00   yforce=   0.0000E+00  zforce=  -1.5689E-01   energy=   9.8054E-08   setid =    1811 xmoment=   0.0000E+00 ymoment=   0.0000E+00 zmoment=   0.0000E+00
 nd#    1832  xforce=   0.0000E+00   yforce=   0.0000E+00  zforce=  -9.9059E-03   energy=   6.1912E-09   setid =    1832 xmoment=   0.0000E+00 ymoment=   0.0000E+00 zmoment=   0.0000E+00
 nd#    1853  xforce=   0.0000E+00   yforce=   0.0000E+00  zforce=  -1.7800E-01   energy=   1.1125E-07   setid =    1853 xmoment=   0.0000E+00 ymoment=   0.0000E+00 zmoment=   0.0000E+00
 nd#    1854  xforce=   0.0000E+00   yforce=   0.0000E+00  zforce=  -5.1504E-01   energy=   3.2190E-07   setid =    1854 xmoment=   0.0000E+00 ymoment=   0.0000E+00 zmoment=   0.0000E+00
 nd#    1855  xforce=   0.0000E+00   yforce=   0.0000E+00  zforce=  -2.5061E-01   energy=   1.5663E-07   setid =    1855 xmoment=   0.0000E+00 ymoment=   0.0000E+00 zmoment=   0.0000E+00
 nd#    1856  xforce=   0.0000E+00   yforce=   0.0000E+00  zforce=  -2.4145E-01   energy=   1.5091E-07   setid =    1856 xmoment=   0.0000E+00 ymoment=   0.0000E+00 zmoment=   0.0000E+00
 nd#    1857  xforce=   0.0000E+00   yforce=   0.0000E+00  zforce=  -2.1852E-01   energy=   1.3657E-07   setid =    1857 xmoment=   0.0000E+00 ymoment=   0.0000E+00 zmoment=   0.0000E+00
 nd#    1858  xforce=   0.0000E+00   yforce=   0.0000E+00  zforce=  -1.9369E-01   energy=   1.2105E-07   setid =    1858 xmoment=   0.0000E+00 ymoment=   0.0000E+00 zmoment=   0.0000E+00
 nd#    1859  xforce=   0.0000E+00   yforce=   0.0000E+00  zforce=  -1.6728E-01   energy=   1.0455E-07   setid =    1859 xmoment=   0.0000E+00 ymoment=   0.0000E+00 zmoment=   0.0000E+00
 nd#    1867  xforce=   0.0000E+00   yforce=   0.0000E+00  zforce=  -2.0595E-01   energy=   1.2872E-07   setid =    1867 xmoment=   0.0000E+00 ymoment=   0.0000E+00 zmoment=   0.0000E+00
 nd#    1868  xforce=   0.0000E+00   yforce=   0.0000E+00  zforce=  -2.1866E-01   energy=   1.3666E-07   setid =    1868 xmoment=   0.0000E+00 ymoment=   0.0000E+00 zmoment=   0.0000E+00
 nd#    1869  xforce=   0.0000E+00   yforce=   0.0000E+00  zforce=  -2.4002E-01   energy=   1.5001E-07   setid =    1869 xmoment=   0.0000E+00 ymoment=   0.0000E+00 zmoment=   0.0000E+00
 nd#    1870  xforce=   0.0000E+00   yforce=   0.0000E+00  zforce=  -2.6031E-01   energy=   1.6269E-07   setid =    1870 xmoment=   0.0000E+00 ymoment=   0.0000E+00 zmoment=   0.0000E+00
 nd#    1871  xforce=   0.0000E+00   yforce=   0.0000E+00  zforce=  -2.8465E-01   energy=   1.7790E-07   setid =    1871 xmoment=   0.0000E+00 ymoment=   0.0000E+00 zmoment=   0.0000E+00
 nd#    1872  xforce=   0.0000E+00   yforce=   0.0000E+00  zforce=  -4.5060E-01   energy=   2.8163E-07   setid =    1872 xmoment=   0.0000E+00 ymoment=   0.0000E+00 zmoment=   0.0000E+00
 nd#    1873  xforce=   0.0000E+00   yforce=   0.0000E+00  zforce=  -8.4986E-01   energy=   5.3116E-07   setid =    1873 xmoment=   0.0000E+00 ymoment=   0.0000E+00 zmoment=   0.0000E+00
 nd#    1874  xforce=   0.0000E+00   yforce=   0.0000E+00  zforce=  -8.5710E-01   energy=   5.3569E-07   setid =    1874 xmoment=   0.0000E+00 ymoment=   0.0000E+00 zmoment=   0.0000E+00
 nd#    1875  xforce=   0.0000E+00   yforce=   0.0000E+00  zforce=  -9.0938E-01   energy=   5.6836E-07   setid =    1875 xmoment=   0.0000E+00 ymoment=   0.0000E+00 zmoment=   0.0000E+00
 nd#    1876  xforce=   0.0000E+00   yforce=   0.0000E+00  zforce=  -9.6497E-01   energy=   6.0310E-07   setid =    1876 xmoment=   0.0000E+00 ymoment=   0.0000E+00 zmoment=   0.0000E+00
 nd#    1877  xforce=   0.0000E+00   yforce=   0.0000E+00  zforce=  -1.0068E+00   energy=   6.2924E-07   setid =    1877 xmoment=   0.0000E+00 ymoment=   0.0000E+00 zmoment=   0.0000E+00
 nd#    1878  xforce=   0.0000E+00   yforce=   0.0000E+00  zforce=  -3.9401E-01   energy=   2.4626E-07   setid =    1878 xmoment=   0.0000E+00 ymoment=   0.0000E+00 zmoment=   0.0000E+00
 nd#    1879  xforce=   0.0000E+00   yforce=   0.0000E+00  zforce=  -3.5282E-01   energy=   2.2051E-07   setid =    1879 xmoment=   0.0000E+00 ymoment=   0.0000E+00 zmoment=   0.0000E+00
 nd#    1880  xforce=   0.0000E+00   yforce=   0.0000E+00  zforce=  -3.5957E-01   energy=   2.2473E-07   setid =    1880 xmoment=   0.0000E+00 ymoment=   0.0000E+00 zmoment=   0.0000E+00
 nd#    1881  xforce=   0.0000E+00   yforce=   0.0000E+00  zforce=  -3.8985E-01   energy=   2.4366E-07   setid =    1881 xmoment=   0.0000E+00 ymoment=   0.0000E+00 zmoment=   0.0000E+00
 nd#    1882  xforce=   0.0000E+00   yforce=   0.0000E+00  zforce=  -4.1905E-01   energy=   2.6191E-07   setid =    1882 xmoment=   0.0000E+00 ymoment=   0.0000E+00 zmoment=   0.0000E+00
 nd#    1883  xforce=   0.0000E+00   yforce=   0.0000E+00  zforce=  -2.9432E-01   energy=   1.8395E-07   setid =    1883 xmoment=   0.0000E+00 ymoment=   0.0000E+00 zmoment=   0.0000E+00
 nd#    1884  xforce=   0.0000E+00   yforce=   0.0000E+00  zforce=  -2.2258E-01   energy=   1.3911E-07   setid =    1884 xmoment=   0.0000E+00 ymoment=   0.0000E+00 zmoment=   0.0000E+00
 nd#    1885  xforce=   0.0000E+00   yforce=   0.0000E+00  zforce=  -2.8464E-01   energy=   1.7790E-07   setid =    1885 xmoment=   0.0000E+00 ymoment=   0.0000E+00 zmoment=   0.0000E+00
 nd#    1886  xforce=   0.0000E+00   yforce=   0.0000E+00  zforce=  -3.3252E-01   energy=   2.0783E-07   setid =    1886 xmoment=   0.0000E+00 ymoment=   0.0000E+00 zmoment=   0.0000E+00
 nd#    1887  xforce=   0.0000E+00   yforce=   0.0000E+00  zforce=  -2.1468E-01   energy=   1.3417E-07   setid =    1887 xmoment=   0.0000E+00 ymoment=   0.0000E+00 zmoment=   0.0000E+00
 nd#    1888  xforce=   0.0000E+00   yforce=   0.0000E+00  zforce=  -2.7690E-01   energy=   1.7306E-07   setid =    1888 xmoment=   0.0000E+00 ymoment=   0.0000E+00 zmoment=   0.0000E+00
 nd#    1889  xforce=   0.0000E+00   yforce=   0.0000E+00  zforce=  -3.6612E-01   energy=   2.2883E-07   setid =    1889 xmoment=   0.0000E+00 ymoment=   0.0000E+00 zmoment=   0.0000E+00
 nd#    1890  xforce=   0.0000E+00   yforce=   0.0000E+00  zforce=  -3.3129E-01   energy=   2.0706E-07   setid =    1890 xmoment=   0.0000E+00 ymoment=   0.0000E+00 zmoment=   0.0000E+00
 nd#    1891  xforce=   0.0000E+00   yforce=   0.0000E+00  zforce=  -3.0787E-01   energy=   1.9242E-07   setid =    1891 xmoment=   0.0000E+00 ymoment=   0.0000E+00 zmoment=   0.0000E+00
 nd#    1892  xforce=   0.0000E+00   yforce=   0.0000E+00  zforce=  -2.6594E-01   energy=   1.6621E-07   setid =    1892 xmoment=   0.0000E+00 ymoment=   0.0000E+00 zmoment=   0.0000E+00
 nd#    1893  xforce=   0.0000E+00   yforce=   0.0000E+00  zforce=  -4.5304E-01   energy=   2.8315E-07   setid =    1893 xmoment=   0.0000E+00 ymoment=   0.0000E+00 zmoment=   0.0000E+00
 nd#    1894  xforce=   0.0000E+00   yforce=   0.0000E+00  zforce=  -4.1739E-01   energy=   2.6087E-07   setid =    1894 xmoment=   0.0000E+00 ymoment=   0.0000E+00 zmoment=   0.0000E+00
 nd#    1895  xforce=   0.0000E+00   yforce=   0.0000E+00  zforce=  -5.0402E-01   energy=   3.1501E-07   setid =    1895 xmoment=   0.0000E+00 ymoment=   0.0000E+00 zmoment=   0.0000E+00
 nd#    1896  xforce=   0.0000E+00   yforce=   0.0000E+00  zforce=  -4.4848E-01   energy=   2.8030E-07   setid =    1896 xmoment=   0.0000E+00 ymoment=   0.0000E+00 zmoment=   0.0000E+00
 nd#    1897  xforce=   0.0000E+00   yforce=   0.0000E+00  zforce=  -4.6182E-01   energy=   2.8864E-07   setid =    1897 xmoment=   0.0000E+00 ymoment=   0.0000E+00 zmoment=   0.0000E+00
 nd#    1898  xforce=   0.0000E+00   yforce=   0.0000E+00  zforce=  -4.1276E-01   energy=   2.5797E-07   setid =    1898 xmoment=   0.0000E+00 ymoment=   0.0000E+00 zmoment=   0.0000E+00
 nd#    1899  xforce=   0.0000E+00   yforce=   0.0000E+00  zforce=  -4.6705E-01   energy=   2.9191E-07   setid =    1899 xmoment=   0.0000E+00 ymoment=   0.0000E+00 zmoment=   0.0000E+00
 nd#    1900  xforce=   0.0000E+00   yforce=   0.0000E+00  zforce=  -4.4253E-01   energy=   2.7658E-07   setid =    1900 xmoment=   0.0000E+00 ymoment=   0.0000E+00 zmoment=   0.0000E+00
 nd#    1901  xforce=   0.0000E+00   yforce=   0.0000E+00  zforce=  -4.8697E-01   energy=   3.0435E-07   setid =    1901 xmoment=   0.0000E+00 ymoment=   0.0000E+00 zmoment=   0.0000E+00
 nd#    1902  xforce=   0.0000E+00   yforce=   0.0000E+00  zforce=  -4.6730E-01   energy=   2.9206E-07   setid =    1902 xmoment=   0.0000E+00 ymoment=   0.0000E+00 zmoment=   0.0000E+00
 nd#    3203  xforce=   0.0000E+00   yforce=   0.0000E+00  zforce=  -2.7505E-01   energy=   1.7191E-07   setid =    3203 xmoment=   0.0000E+00 ymoment=   0.0000E+00 zmoment=   0.0000E+00
 nd#    3204  xforce=   0.0000E+00   yforce=   0.0000E+00  zforce=  -1.4802E+00   energy=   9.2512E-07   setid =    3204 xmoment=   0.0000E+00 ymoment=   0.0000E+00 zmoment=   0.0000E+00
 nd#    3205  xforce=   0.0000E+00   yforce=   0.0000E+00  zforce=  -1.4174E+00   energy=   8.8586E-07   setid =    3205 xmoment=   0.0000E+00 ymoment=   0.0000E+00 zmoment=   0.0000E+00
 nd#    3206  xforce=   0.0000E+00   yforce=   0.0000E+00  zforce=  -1.2787E+00   energy=   7.9920E-07   setid =    3206 xmoment=   0.0000E+00 ymoment=   0.0000E+00 zmoment=   0.0000E+00
 nd#    3207  xforce=   0.0000E+00   yforce=   0.0000E+00  zforce=  -1.1539E+00   energy=   7.2117E-07   setid =    3207 xmoment=   0.0000E+00 ymoment=   0.0000E+00 zmoment=   0.0000E+00
 nd#    3208  xforce=   0.0000E+00   yforce=   0.0000E+00  zforce=  -1.0349E+00   energy=   6.4682E-07   setid =    3208 xmoment=   0.0000E+00 ymoment=   0.0000E+00 zmoment=   0.0000E+00
 nd#    3209  xforce=   0.0000E+00   yforce=   0.0000E+00  zforce=  -9.1749E-01   energy=   5.7343E-07   setid =    3209 xmoment=   0.0000E+00 ymoment=   0.0000E+00 zmoment=   0.0000E+00
 nd#    3210  xforce=   0.0000E+00   yforce=   0.0000E+00  zforce=  -7.9806E-01   energy=   4.9879E-07   setid =    3210 xmoment=   0.0000E+00 ymoment=   0.0000E+00 zmoment=   0.0000E+00
 nd#    3645  xforce=   0.0000E+00   yforce=   0.0000E+00  zforce=  -2.9564E+00   energy=   1.8478E-06   setid =    3645 xmoment=   0.0000E+00 ymoment=   0.0000E+00 zmoment=   0.0000E+00
 nd#    3648  xforce=   0.0000E+00   yforce=   0.0000E+00  zforce=  -5.4291E-01   energy=   3.3932E-07   setid =    3648 xmoment=   0.0000E+00 ymoment=   0.0000E+00 zmoment=   0.0000E+00
 nd#    3649  xforce=   0.0000E+00   yforce=   0.0000E+00  zforce=  -2.9697E+00   energy=   1.8560E-06   setid =    3649 xmoment=   0.0000E+00 ymoment=   0.0000E+00 zmoment=   0.0000E+00
 nd#    3652  xforce=   0.0000E+00   yforce=   0.0000E+00  zforce=  -5.3042E-01   energy=   3.3152E-07   setid =    3652 xmoment=   0.0000E+00 ymoment=   0.0000E+00 zmoment=   0.0000E+00
 nd#    3653  xforce=   0.0000E+00   yforce=   0.0000E+00  zforce=  -2.9792E+00   energy=   1.8620E-06   setid =    3653 xmoment=   0.0000E+00 ymoment=   0.0000E+00 zmoment=   0.0000E+00
 nd#    3656  xforce=   0.0000E+00   yforce=   0.0000E+00  zforce=  -5.4225E-01   energy=   3.3891E-07   setid =    3656 xmoment=   0.0000E+00 ymoment=   0.0000E+00 zmoment=   0.0000E+00
 nd#    3657  xforce=   0.0000E+00   yforce=   0.0000E+00  zforce=  -2.9591E+00   energy=   1.8494E-06   setid =    3657 xmoment=   0.0000E+00 ymoment=   0.0000E+00 zmoment=   0.0000E+00
 nd#    3660  xforce=   0.0000E+00   yforce=   0.0000E+00  zforce=  -5.8066E-01   energy=   3.6291E-07   setid =    3660 xmoment=   0.0000E+00 ymoment=   0.0000E+00 zmoment=   0.0000E+00
 nd#    3661  xforce=   0.0000E+00   yforce=   0.0000E+00  zforce=  -2.9270E+00   energy=   1.8294E-06   setid =    3661 xmoment=   0.0000E+00 ymoment=   0.0000E+00 zmoment=   0.0000E+00
 nd#    3664  xforce=   0.0000E+00   yforce=   0.0000E+00  zforce=  -6.3821E-01   energy=   3.9888E-07   setid =    3664 xmoment=   0.0000E+00 ymoment=   0.0000E+00 zmoment=   0.0000E+00
 nd#    3665  xforce=   0.0000E+00   yforce=   0.0000E+00  zforce=  -1.4580E+00   energy=   9.1123E-07   setid =    3665 xmoment=   0.0000E+00 ymoment=   0.0000E+00 zmoment=   0.0000E+00
 nd#    3668  xforce=   0.0000E+00   yforce=   0.0000E+00  zforce=  -3.3494E-01   energy=   2.0934E-07   setid =    3668 xmoment=   0.0000E+00 ymoment=   0.0000E+00 zmoment=   0.0000E+00
 nd#    4143  xforce=   0.0000E+00   yforce=   0.0000E+00  zforce=  -2.5136E+00   energy=   1.5710E-06   setid =    4143 xmoment=   0.0000E+00 ymoment=   0.0000E+00 zmoment=   0.0000E+00
 nd#    4146  xforce=   0.0000E+00   yforce=   0.0000E+00  zforce=  -2.7994E+00   energy=   1.7496E-06   setid =    4146 xmoment=   0.0000E+00 ymoment=   0.0000E+00 zmoment=   0.0000E+00
 nd#    4147  xforce=   0.0000E+00   yforce=   0.0000E+00  zforce=  -2.4722E+00   energy=   1.5451E-06   setid =    4147 xmoment=   0.0000E+00 ymoment=   0.0000E+00 zmoment=   0.0000E+00
 nd#    4150  xforce=   0.0000E+00   yforce=   0.0000E+00  zforce=  -2.7621E+00   energy=   1.7263E-06   setid =    4150 xmoment=   0.0000E+00 ymoment=   0.0000E+00 zmoment=   0.0000E+00
 nd#    4151  xforce=   0.0000E+00   yforce=   0.0000E+00  zforce=  -2.4584E+00   energy=   1.5365E-06   setid =    4151 xmoment=   0.0000E+00 ymoment=   0.0000E+00 zmoment=   0.0000E+00
 nd#    4154  xforce=   0.0000E+00   yforce=   0.0000E+00  zforce=  -2.7442E+00   energy=   1.7151E-06   setid =    4154 xmoment=   0.0000E+00 ymoment=   0.0000E+00 zmoment=   0.0000E+00
 nd#    4155  xforce=   0.0000E+00   yforce=   0.0000E+00  zforce=  -2.4675E+00   energy=   1.5422E-06   setid =    4155 xmoment=   0.0000E+00 ymoment=   0.0000E+00 zmoment=   0.0000E+00
 nd#    4158  xforce=   0.0000E+00   yforce=   0.0000E+00  zforce=  -2.7409E+00   energy=   1.7130E-06   setid =    4158 xmoment=   0.0000E+00 ymoment=   0.0000E+00 zmoment=   0.0000E+00
 nd#    4159  xforce=   0.0000E+00   yforce=   0.0000E+00  zforce=  -2.4929E+00   energy=   1.5581E-06   setid =    4159 xmoment=   0.0000E+00 ymoment=   0.0000E+00 zmoment=   0.0000E+00
 nd#    4162  xforce=   0.0000E+00   yforce=   0.0000E+00  zforce=  -2.7518E+00   energy=   1.7199E-06   setid =    4162 xmoment=   0.0000E+00 ymoment=   0.0000E+00 zmoment=   0.0000E+00
 nd#    4163  xforce=   0.0000E+00   yforce=   0.0000E+00  zforce=  -1.2576E+00   energy=   7.8599E-07   setid =    4163 xmoment=   0.0000E+00 ymoment=   0.0000E+00 zmoment=   0.0000E+00
 nd#    4166  xforce=   0.0000E+00   yforce=   0.0000E+00  zforce=  -1.3830E+00   energy=   8.6436E-07   setid =    4166 xmoment=   0.0000E+00 ymoment=   0.0000E+00 zmoment=   0.0000E+00
 nd#    4305  xforce=   0.0000E+00   yforce=   0.0000E+00  zforce=  -1.7668E+00   energy=   1.1043E-06   setid =    4305 xmoment=   0.0000E+00 ymoment=   0.0000E+00 zmoment=   0.0000E+00
 nd#    4306  xforce=   0.0000E+00   yforce=   0.0000E+00  zforce=  -2.0116E+00   energy=   1.2573E-06   setid =    4306 xmoment=   0.0000E+00 ymoment=   0.0000E+00 zmoment=   0.0000E+00
 nd#    4307  xforce=   0.0000E+00   yforce=   0.0000E+00  zforce=  -1.7245E+00   energy=   1.0778E-06   setid =    4307 xmoment=   0.0000E+00 ymoment=   0.0000E+00 zmoment=   0.0000E+00
 nd#    4308  xforce=   0.0000E+00   yforce=   0.0000E+00  zforce=  -1.9709E+00   energy=   1.2318E-06   setid =    4308 xmoment=   0.0000E+00 ymoment=   0.0000E+00 zmoment=   0.0000E+00
 nd#    4309  xforce=   0.0000E+00   yforce=   0.0000E+00  zforce=  -1.7285E+00   energy=   1.0803E-06   setid =    4309 xmoment=   0.0000E+00 ymoment=   0.0000E+00 zmoment=   0.0000E+00
 nd#    4310  xforce=   0.0000E+00   yforce=   0.0000E+00  zforce=  -1.9692E+00   energy=   1.2308E-06   setid =    4310 xmoment=   0.0000E+00 ymoment=   0.0000E+00 zmoment=   0.0000E+00
 nd#    4311  xforce=   0.0000E+00   yforce=   0.0000E+00  zforce=  -1.7608E+00   energy=   1.1005E-06   setid =    4311 xmoment=   0.0000E+00 ymoment=   0.0000E+00 zmoment=   0.0000E+00
 nd#    4312  xforce=   0.0000E+00   yforce=   0.0000E+00  zforce=  -1.9956E+00   energy=   1.2473E-06   setid =    4312 xmoment=   0.0000E+00 ymoment=   0.0000E+00 zmoment=   0.0000E+00
 nd#    4313  xforce=   0.0000E+00   yforce=   0.0000E+00  zforce=  -1.8033E+00   energy=   1.1270E-06   setid =    4313 xmoment=   0.0000E+00 ymoment=   0.0000E+00 zmoment=   0.0000E+00
 nd#    4314  xforce=   0.0000E+00   yforce=   0.0000E+00  zforce=  -2.0351E+00   energy=   1.2720E-06   setid =    4314 xmoment=   0.0000E+00 ymoment=   0.0000E+00 zmoment=   0.0000E+00
 nd#    4315  xforce=   0.0000E+00   yforce=   0.0000E+00  zforce=  -9.1671E-01   energy=   5.7294E-07   setid =    4315 xmoment=   0.0000E+00 ymoment=   0.0000E+00 zmoment=   0.0000E+00
 nd#    4316  xforce=   0.0000E+00   yforce=   0.0000E+00  zforce=  -1.0322E+00   energy=   6.4510E-07   setid =    4316 xmoment=   0.0000E+00 ymoment=   0.0000E+00 zmoment=   0.0000E+00
 nd#    4323  xforce=   0.0000E+00   yforce=   0.0000E+00  zforce=  -1.5132E+00   energy=   9.4573E-07   setid =    4323 xmoment=   0.0000E+00 ymoment=   0.0000E+00 zmoment=   0.0000E+00
 nd#    4324  xforce=   0.0000E+00   yforce=   0.0000E+00  zforce=  -1.4589E+00   energy=   9.1181E-07   setid =    4324 xmoment=   0.0000E+00 ymoment=   0.0000E+00 zmoment=   0.0000E+00
 nd#    4325  xforce=   0.0000E+00   yforce=   0.0000E+00  zforce=  -1.4596E+00   energy=   9.1227E-07   setid =    4325 xmoment=   0.0000E+00 ymoment=   0.0000E+00 zmoment=   0.0000E+00
 nd#    4326  xforce=   0.0000E+00   yforce=   0.0000E+00  zforce=  -1.4943E+00   energy=   9.3391E-07   setid =    4326 xmoment=   0.0000E+00 ymoment=   0.0000E+00 zmoment=   0.0000E+00
 nd#    4327  xforce=   0.0000E+00   yforce=   0.0000E+00  zforce=  -1.5401E+00   energy=   9.6257E-07   setid =    4327 xmoment=   0.0000E+00 ymoment=   0.0000E+00 zmoment=   0.0000E+00
 nd#    4328  xforce=   0.0000E+00   yforce=   0.0000E+00  zforce=  -7.8554E-01   energy=   4.9096E-07   setid =    4328 xmoment=   0.0000E+00 ymoment=   0.0000E+00 zmoment=   0.0000E+00
 nd#    4365  xforce=   0.0000E+00   yforce=   0.0000E+00  zforce=  -2.2575E+00   energy=   1.4109E-06   setid =    4365 xmoment=   0.0000E+00 ymoment=   0.0000E+00 zmoment=   0.0000E+00
 nd#    4366  xforce=   0.0000E+00   yforce=   0.0000E+00  zforce=  -2.2171E+00   energy=   1.3857E-06   setid =    4366 xmoment=   0.0000E+00 ymoment=   0.0000E+00 zmoment=   0.0000E+00
 nd#    4367  xforce=   0.0000E+00   yforce=   0.0000E+00  zforce=  -2.2102E+00   energy=   1.3813E-06   setid =    4367 xmoment=   0.0000E+00 ymoment=   0.0000E+00 zmoment=   0.0000E+00
 nd#    4368  xforce=   0.0000E+00   yforce=   0.0000E+00  zforce=  -2.2291E+00   energy=   1.3932E-06   setid =    4368 xmoment=   0.0000E+00 ymoment=   0.0000E+00 zmoment=   0.0000E+00
 nd#    4369  xforce=   0.0000E+00   yforce=   0.0000E+00  zforce=  -2.2630E+00   energy=   1.4144E-06   setid =    4369 xmoment=   0.0000E+00 ymoment=   0.0000E+00 zmoment=   0.0000E+00
 nd#    4370  xforce=   0.0000E+00   yforce=   0.0000E+00  zforce=  -1.1448E+00   energy=   7.1550E-07   setid =    4370 xmoment=   0.0000E+00 ymoment=   0.0000E+00 zmoment=   0.0000E+00
              xtotal=   0.0000E+00   ytotal=   0.0000E+00  ztotal=  -1.1790E+02   etotal=   7.3687E-05

 n o d a l   f o r c e/e n e r g y    o u t p u t  t=   6.46223E+00

 velocity boundary condition forces/rigid body moments 

 nd#    1157  xforce=   0.0000E+00   yforce=   0.0000E+00  zforce=  -3.2542E-01   energy=   5.2741E-07   setid =    1157 xmoment=   0.0000E+00 ymoment=   0.0000E+00 zmoment=   0.0000E+00
 nd#    1158  xforce=   0.0000E+00   yforce=   0.0000E+00  zforce=  -2.0319E-01   energy=   3.4743E-07   setid =    1158 xmoment=   0.0000E+00 ymoment=   0.0000E+00 zmoment=   0.0000E+00
 nd#    1159  xforce=   0.0000E+00   yforce=   0.0000E+00  zforce=   2.2206E-03   energy=   1.6259E-08   setid =    1159 xmoment=   0.0000E+00 ymoment=   0.0000E+00 zmoment=   0.0000E+00
 nd#    1160  xforce=   0.0000E+00   yforce=   0.0000E+00  zforce=  -1.6596E-01   energy=   2.6551E-07   setid =    1160 xmoment=   0.0000E+00 ymoment=   0.0000E+00 zmoment=   0.0000E+00
 nd#    1221  xforce=   0.0000E+00   yforce=   0.0000E+00  zforce=  -3.4975E-01   energy=   5.4465E-07   setid =    1221 xmoment=   0.0000E+00 ymoment=   0.0000E+00 zmoment=   0.0000E+00
 nd#    1222  xforce=   0.0000E+00   yforce=   0.0000E+00  zforce=  -5.6285E-01   energy=   9.0903E-07   setid =    1222 xmoment=   0.0000E+00 ymoment=   0.0000E+00 zmoment=   0.0000E+00
 nd#    1223  xforce=   0.0000E+00   yforce=   0.0000E+00  zforce=  -2.3334E-01   energy=   3.5755E-07   setid =    1223 xmoment=   0.0000E+00 ymoment=   0.0000E+00 zmoment=   0.0000E+00
 nd#    1284  xforce=   0.0000E+00   yforce=   0.0000E+00  zforce=  -1.6018E-01   energy=   2.3208E-07   setid =    1284 xmoment=   0.0000E+00 ymoment=   0.0000E+00 zmoment=   0.0000E+00
 nd#    1285  xforce=   0.0000E+00   yforce=   0.0000E+00  zforce=  -3.3405E-01   energy=   5.9617E-07   setid =    1285 xmoment=   0.0000E+00 ymoment=   0.0000E+00 zmoment=   0.0000E+00
 nd#    1286  xforce=   0.0000E+00   yforce=   0.0000E+00  zforce=  -3.8266E-01   energy=   5.9448E-07   setid =    1286 xmoment=   0.0000E+00 ymoment=   0.0000E+00 zmoment=   0.0000E+00
 nd#    1347  xforce=   0.0000E+00   yforce=   0.0000E+00  zforce=  -1.5358E-03   energy=  -1.7564E-08   setid =    1347 xmoment=   0.0000E+00 ymoment=   0.0000E+00 zmoment=   0.0000E+00
 nd#    1348  xforce=   0.0000E+00   yforce=   0.0000E+00  zforce=   1.0365E-01   energy=  -8.7171E-08   setid =    1348 xmoment=   0.0000E+00 ymoment=   0.0000E+00 zmoment=   0.0000E+00
 nd#    1349  xforce=   0.0000E+00   yforce=   0.0000E+00  zforce=   1.5422E-01   energy=  -2.2207E-07   setid =    1349 xmoment=   0.0000E+00 ymoment=   0.0000E+00 zmoment=   0.0000E+00
 nd#    1430  xforce=   0.0000E+00   yforce=   0.0000E+00  zforce=  -3.8656E-01   energy=   6.1165E-07   setid =    1430 xmoment=   0.0000E+00 ymoment=   0.0000E+00 zmoment=   0.0000E+00
 nd#    1431  xforce=   0.0000E+00   yforce=   0.0000E+00  zforce=  -3.0049E-01   energy=   4.3946E-07   setid =    1431 xmoment=   0.0000E+00 ymoment=   0.0000E+00 zmoment=   0.0000E+00
 nd#    1432  xforce=   0.0000E+00   yforce=   0.0000E+00  zforce=   3.1239E-01   energy=  -5.2184E-07   setid =    1432 xmoment=   0.0000E+00 ymoment=   0.0000E+00 zmoment=   0.0000E+00
 nd#    1433  xforce=   0.0000E+00   yforce=   0.0000E+00  zforce=  -2.6102E-01   energy=   4.4110E-07   setid =    1433 xmoment=   0.0000E+00 ymoment=   0.0000E+00 zmoment=   0.0000E+00
 nd#    1514  xforce=   0.0000E+00   yforce=   0.0000E+00  zforce=  -1.2631E-01   energy=   1.8900E-07   setid =    1514 xmoment=   0.0000E+00 ymoment=   0.0000E+00 zmoment=   0.0000E+00
 nd#    1515  xforce=   0.0000E+00   yforce=   0.0000E+00  zforce=  -1.0556E-02   energy=   1.6860E-08   setid =    1515 xmoment=   0.0000E+00 ymoment=   0.0000E+00 zmoment=   0.0000E+00
 nd#    1516  xforce=   0.0000E+00   yforce=   0.0000E+00  zforce=   1.9356E-02   energy=  -4.8316E-08   setid =    1516 xmoment=   0.0000E+00 ymoment=   0.0000E+00 zmoment=   0.0000E+00
 nd#    1517  xforce=   0.0000E+00   yforce=   0.0000E+00  zforce=  -1.2387E-01   energy=   1.7870E-07   setid =    1517 xmoment=   0.0000E+00 ymoment=   0.0000E+00 zmoment=   0.0000E+00
 nd#    1538  xforce=   0.0000E+00   yforce=   0.0000E+00  zforce=  -4.3488E-01   energy=   7.2301E-07   setid =    1538 xmoment=   0.0000E+00 ymoment=   0.0000E+00 zmoment=   0.0000E+00
 nd#    1579  xforce=   0.0000E+00   yforce=   0.0000E+00  zforce=  -3.0613E-01   energy=   4.7800E-07   setid =    1579 xmoment=   0.0000E+00 ymoment=   0.0000E+00 zmoment=   0.0000E+00
 nd#    1580  xforce=   0.0000E+00   yforce=   0.0000E+00  zforce=  -3.6267E-01   energy=   5.6896E-07   setid =    1580 xmoment=   0.0000E+00 ymoment=   0.0000E+00 zmoment=   0.0000E+00
 nd#    1621  xforce=   0.0000E+00   yforce=   0.0000E+00  zforce=  -3.0675E-01   energy=   4.7933E-07   setid =    1621 xmoment=   0.0000E+00 ymoment=   0.0000E+00 zmoment=   0.0000E+00
 nd#    1622  xforce=   0.0000E+00   yforce=   0.0000E+00  zforce=  -2.1524E-01   energy=   3.4889E-07   setid =    1622 xmoment=   0.0000E+00 ymoment=   0.0000E+00 zmoment=   0.0000E+00
 nd#    1663  xforce=   0.0000E+00   yforce=   0.0000E+00  zforce=  -2.0180E-01   energy=   3.8394E-07   setid =    1663 xmoment=   0.0000E+00 ymoment=   0.0000E+00 zmoment=   0.0000E+00
 nd#    1664  xforce=   0.0000E+00   yforce=   0.0000E+00  zforce=   4.8518E-01   energy=  -8.0639E-07   setid =    1664 xmoment=   0.0000E+00 ymoment=   0.0000E+00 zmoment=   0.0000E+00
 nd#    1705  xforce=   0.0000E+00   yforce=   0.0000E+00  zforce=  -4.0248E-01   energy=   6.3668E-07   setid =    1705 xmoment=   0.0000E+00 ymoment=   0.0000E+00 zmoment=   0.0000E+00
 nd#    1706  xforce=   0.0000E+00   yforce=   0.0000E+00  zforce=  -3.9037E-01   energy=   6.3176E-07   setid =    1706 xmoment=   0.0000E+00 ymoment=   0.0000E+00 zmoment=   0.0000E+00
 nd#    1727  xforce=   0.0000E+00   yforce=   0.0000E+00  zforce=  -2.0954E-01   energy=   3.1793E-07   setid =    1727 xmoment=   0.0000E+00 ymoment=   0.0000E+00 zmoment=   0.0000E+00
 nd#    1808  xforce=   0.0000E+00   yforce=   0.0000E+00  zforce=  -2.9455E-01   energy=   4.4534E-07   setid =    1808 xmoment=   0.0000E+00 ymoment=   0.0000E+00 zmoment=   0.0000E+00
 nd#    1809  xforce=   0.0000E+00   yforce=   0.0000E+00  zforce=  -2.3627E-01   energy=   3.5721E-07   setid =    1809 xmoment=   0.0000E+00 ymoment=   0.0000E+00 zmoment=   0.0000E+00
 nd#    1810  xforce=   0.0000E+00   yforce=   0.0000E+00  zforce=  -2.2851E-01   energy=   3.8516E-07   setid =    1810 xmoment=   0.0000E+00 ymoment=   0.0000E+00 zmoment=   0.0000E+00
 nd#    1811  xforce=   0.0000E+00   yforce=   0.0000E+00  zforce=  -4.4884E-01   energy=   6.9806E-07   setid =    1811 xmoment=   0.0000E+00 ymoment=   0.0000E+00 zmoment=   0.0000E+00
 nd#    1832  xforce=   0.0000E+00   yforce=   0.0000E+00  zforce=  -9.1576E-02   energy=   1.0671E-07   setid =    1832 xmoment=   0.0000E+00 ymoment=   0.0000E+00 zmoment=   0.0000E+00
 nd#    1853  xforce=   0.0000E+00   yforce=   0.0000E+00  zforce=  -4.6669E-01   energy=   7.4985E-07   setid =    1853 xmoment=   0.0000E+00 ymoment=   0.0000E+00 zmoment=   0.0000E+00
 nd#    1854  xforce=   0.0000E+00   yforce=   0.0000E+00  zforce=  -1.3773E+00   energy=   2.1964E-06   setid =    1854 xmoment=   0.0000E+00 ymoment=   0.0000E+00 zmoment=   0.0000E+00
 nd#    1855  xforce=   0.0000E+00   yforce=   0.0000E+00  zforce=  -6.8523E-01   energy=   1.0836E-06   setid =    1855 xmoment=   0.0000E+00 ymoment=   0.0000E+00 zmoment=   0.0000E+00
 nd#    1856  xforce=   0.0000E+00   yforce=   0.0000E+00  zforce=  -6.5504E-01   energy=   1.0389E-06   setid =    1856 xmoment=   0.0000E+00 ymoment=   0.0000E+00 zmoment=   0.0000E+00
 nd#    1857  xforce=   0.0000E+00   yforce=   0.0000E+00  zforce=  -5.9617E-01   energy=   9.4357E-07   setid =    1857 xmoment=   0.0000E+00 ymoment=   0.0000E+00 zmoment=   0.0000E+00
 nd#    1858  xforce=   0.0000E+00   yforce=   0.0000E+00  zforce=  -5.3275E-01   energy=   8.4063E-07   setid =    1858 xmoment=   0.0000E+00 ymoment=   0.0000E+00 zmoment=   0.0000E+00
 nd#    1859  xforce=   0.0000E+00   yforce=   0.0000E+00  zforce=  -4.6861E-01   energy=   7.3444E-07   setid =    1859 xmoment=   0.0000E+00 ymoment=   0.0000E+00 zmoment=   0.0000E+00
 nd#    1867  xforce=   0.0000E+00   yforce=   0.0000E+00  zforce=  -5.5189E-01   energy=   8.7940E-07   setid =    1867 xmoment=   0.0000E+00 ymoment=   0.0000E+00 zmoment=   0.0000E+00
 nd#    1868  xforce=   0.0000E+00   yforce=   0.0000E+00  zforce=  -5.8686E-01   energy=   9.3457E-07   setid =    1868 xmoment=   0.0000E+00 ymoment=   0.0000E+00 zmoment=   0.0000E+00
 nd#    1869  xforce=   0.0000E+00   yforce=   0.0000E+00  zforce=  -6.4232E-01   energy=   1.0240E-06   setid =    1869 xmoment=   0.0000E+00 ymoment=   0.0000E+00 zmoment=   0.0000E+00
 nd#    1870  xforce=   0.0000E+00   yforce=   0.0000E+00  zforce=  -6.9684E-01   energy=   1.1108E-06   setid =    1870 xmoment=   0.0000E+00 ymoment=   0.0000E+00 zmoment=   0.0000E+00
 nd#    1871  xforce=   0.0000E+00   yforce=   0.0000E+00  zforce=  -7.5849E-01   energy=   1.2112E-06   setid =    1871 xmoment=   0.0000E+00 ymoment=   0.0000E+00 zmoment=   0.0000E+00
 nd#    1872  xforce=   0.0000E+00   yforce=   0.0000E+00  zforce=  -1.2104E+00   energy=   1.9270E-06   setid =    1872 xmoment=   0.0000E+00 ymoment=   0.0000E+00 zmoment=   0.0000E+00
 nd#    1873  xforce=   0.0000E+00   yforce=   0.0000E+00  zforce=  -2.2760E+00   energy=   3.6275E-06   setid =    1873 xmoment=   0.0000E+00 ymoment=   0.0000E+00 zmoment=   0.0000E+00
 nd#    1874  xforce=   0.0000E+00   yforce=   0.0000E+00  zforce=  -2.3167E+00   energy=   3.6795E-06   setid =    1874 xmoment=   0.0000E+00 ymoment=   0.0000E+00 zmoment=   0.0000E+00
 nd#    1875  xforce=   0.0000E+00   yforce=   0.0000E+00  zforce=  -2.4394E+00   energy=   3.8855E-06   setid =    1875 xmoment=   0.0000E+00 ymoment=   0.0000E+00 zmoment=   0.0000E+00
 nd#    1876  xforce=   0.0000E+00   yforce=   0.0000E+00  zforce=  -2.5371E+00   energy=   4.0721E-06   setid =    1876 xmoment=   0.0000E+00 ymoment=   0.0000E+00 zmoment=   0.0000E+00
 nd#    1877  xforce=   0.0000E+00   yforce=   0.0000E+00  zforce=  -2.6580E+00   energy=   4.2594E-06   setid =    1877 xmoment=   0.0000E+00 ymoment=   0.0000E+00 zmoment=   0.0000E+00
 nd#    1878  xforce=   0.0000E+00   yforce=   0.0000E+00  zforce=  -1.0339E+00   energy=   1.6607E-06   setid =    1878 xmoment=   0.0000E+00 ymoment=   0.0000E+00 zmoment=   0.0000E+00
 nd#    1879  xforce=   0.0000E+00   yforce=   0.0000E+00  zforce=  -9.5469E-01   energy=   1.5157E-06   setid =    1879 xmoment=   0.0000E+00 ymoment=   0.0000E+00 zmoment=   0.0000E+00
 nd#    1880  xforce=   0.0000E+00   yforce=   0.0000E+00  zforce=  -9.7517E-01   energy=   1.5469E-06   setid =    1880 xmoment=   0.0000E+00 ymoment=   0.0000E+00 zmoment=   0.0000E+00
 nd#    1881  xforce=   0.0000E+00   yforce=   0.0000E+00  zforce=  -1.0121E+00   energy=   1.6324E-06   setid =    1881 xmoment=   0.0000E+00 ymoment=   0.0000E+00 zmoment=   0.0000E+00
 nd#    1882  xforce=   0.0000E+00   yforce=   0.0000E+00  zforce=  -1.1050E+00   energy=   1.7716E-06   setid =    1882 xmoment=   0.0000E+00 ymoment=   0.0000E+00 zmoment=   0.0000E+00
 nd#    1883  xforce=   0.0000E+00   yforce=   0.0000E+00  zforce=  -8.0376E-01   energy=   1.2717E-06   setid =    1883 xmoment=   0.0000E+00 ymoment=   0.0000E+00 zmoment=   0.0000E+00
 nd#    1884  xforce=   0.0000E+00   yforce=   0.0000E+00  zforce=  -6.1827E-01   energy=   9.7201E-07   setid =    1884 xmoment=   0.0000E+00 ymoment=   0.0000E+00 zmoment=   0.0000E+00
 nd#    1885  xforce=   0.0000E+00   yforce=   0.0000E+00  zforce=  -7.7614E-01   energy=   1.2287E-06   setid =    1885 xmoment=   0.0000E+00 ymoment=   0.0000E+00 zmoment=   0.0000E+00
 nd#    1886  xforce=   0.0000E+00   yforce=   0.0000E+00  zforce=  -8.6966E-01   energy=   1.3987E-06   setid =    1886 xmoment=   0.0000E+00 ymoment=   0.0000E+00 zmoment=   0.0000E+00
 nd#    1887  xforce=   0.0000E+00   yforce=   0.0000E+00  zforce=  -5.9265E-01   energy=   9.3387E-07   setid =    1887 xmoment=   0.0000E+00 ymoment=   0.0000E+00 zmoment=   0.0000E+00
 nd#    1888  xforce=   0.0000E+00   yforce=   0.0000E+00  zforce=  -7.1683E-01   energy=   1.1574E-06   setid =    1888 xmoment=   0.0000E+00 ymoment=   0.0000E+00 zmoment=   0.0000E+00
 nd#    1889  xforce=   0.0000E+00   yforce=   0.0000E+00  zforce=  -9.6089E-01   energy=   1.5433E-06   setid =    1889 xmoment=   0.0000E+00 ymoment=   0.0000E+00 zmoment=   0.0000E+00
 nd#    1890  xforce=   0.0000E+00   yforce=   0.0000E+00  zforce=  -8.4914E-01   energy=   1.3763E-06   setid =    1890 xmoment=   0.0000E+00 ymoment=   0.0000E+00 zmoment=   0.0000E+00
 nd#    1891  xforce=   0.0000E+00   yforce=   0.0000E+00  zforce=  -8.0487E-01   energy=   1.2947E-06   setid =    1891 xmoment=   0.0000E+00 ymoment=   0.0000E+00 zmoment=   0.0000E+00
 nd#    1892  xforce=   0.0000E+00   yforce=   0.0000E+00  zforce=  -6.6762E-01   energy=   1.0910E-06   setid =    1892 xmoment=   0.0000E+00 ymoment=   0.0000E+00 zmoment=   0.0000E+00
 nd#    1893  xforce=   0.0000E+00   yforce=   0.0000E+00  zforce=  -1.2245E+00   energy=   1.9448E-06   setid =    1893 xmoment=   0.0000E+00 ymoment=   0.0000E+00 zmoment=   0.0000E+00
 nd#    1894  xforce=   0.0000E+00   yforce=   0.0000E+00  zforce=  -1.1299E+00   energy=   1.7935E-06   setid =    1894 xmoment=   0.0000E+00 ymoment=   0.0000E+00 zmoment=   0.0000E+00
 nd#    1895  xforce=   0.0000E+00   yforce=   0.0000E+00  zforce=  -1.3284E+00   energy=   2.1301E-06   setid =    1895 xmoment=   0.0000E+00 ymoment=   0.0000E+00 zmoment=   0.0000E+00
 nd#    1896  xforce=   0.0000E+00   yforce=   0.0000E+00  zforce=  -1.1828E+00   energy=   1.8962E-06   setid =    1896 xmoment=   0.0000E+00 ymoment=   0.0000E+00 zmoment=   0.0000E+00
 nd#    1897  xforce=   0.0000E+00   yforce=   0.0000E+00  zforce=  -1.2412E+00   energy=   1.9756E-06   setid =    1897 xmoment=   0.0000E+00 ymoment=   0.0000E+00 zmoment=   0.0000E+00
 nd#    1898  xforce=   0.0000E+00   yforce=   0.0000E+00  zforce=  -1.1147E+00   energy=   1.7710E-06   setid =    1898 xmoment=   0.0000E+00 ymoment=   0.0000E+00 zmoment=   0.0000E+00
 nd#    1899  xforce=   0.0000E+00   yforce=   0.0000E+00  zforce=  -1.2370E+00   energy=   1.9799E-06   setid =    1899 xmoment=   0.0000E+00 ymoment=   0.0000E+00 zmoment=   0.0000E+00
 nd#    1900  xforce=   0.0000E+00   yforce=   0.0000E+00  zforce=  -1.1591E+00   energy=   1.8631E-06   setid =    1900 xmoment=   0.0000E+00 ymoment=   0.0000E+00 zmoment=   0.0000E+00
 nd#    1901  xforce=   0.0000E+00   yforce=   0.0000E+00  zforce=  -1.3038E+00   energy=   2.0782E-06   setid =    1901 xmoment=   0.0000E+00 ymoment=   0.0000E+00 zmoment=   0.0000E+00
 nd#    1902  xforce=   0.0000E+00   yforce=   0.0000E+00  zforce=  -1.2360E+00   energy=   1.9792E-06   setid =    1902 xmoment=   0.0000E+00 ymoment=   0.0000E+00 zmoment=   0.0000E+00
 nd#    3203  xforce=   0.0000E+00   yforce=   0.0000E+00  zforce=  -7.6572E-01   energy=   1.2029E-06   setid =    3203 xmoment=   0.0000E+00 ymoment=   0.0000E+00 zmoment=   0.0000E+00
 nd#    3204  xforce=   0.0000E+00   yforce=   0.0000E+00  zforce=  -3.9895E+00   energy=   6.3432E-06   setid =    3204 xmoment=   0.0000E+00 ymoment=   0.0000E+00 zmoment=   0.0000E+00
 nd#    3205  xforce=   0.0000E+00   yforce=   0.0000E+00  zforce=  -3.8074E+00   energy=   6.0613E-06   setid =    3205 xmoment=   0.0000E+00 ymoment=   0.0000E+00 zmoment=   0.0000E+00
 nd#    3206  xforce=   0.0000E+00   yforce=   0.0000E+00  zforce=  -3.4310E+00   energy=   5.4644E-06   setid =    3206 xmoment=   0.0000E+00 ymoment=   0.0000E+00 zmoment=   0.0000E+00
 nd#    3207  xforce=   0.0000E+00   yforce=   0.0000E+00  zforce=  -3.0924E+00   energy=   4.9273E-06   setid =    3207 xmoment=   0.0000E+00 ymoment=   0.0000E+00 zmoment=   0.0000E+00
 nd#    3208  xforce=   0.0000E+00   yforce=   0.0000E+00  zforce=  -2.7675E+00   energy=   4.4134E-06   setid =    3208 xmoment=   0.0000E+00 ymoment=   0.0000E+00 zmoment=   0.0000E+00
 nd#    3209  xforce=   0.0000E+00   yforce=   0.0000E+00  zforce=  -2.4470E+00   energy=   3.9061E-06   setid =    3209 xmoment=   0.0000E+00 ymoment=   0.0000E+00 zmoment=   0.0000E+00
 nd#    3210  xforce=   0.0000E+00   yforce=   0.0000E+00  zforce=  -2.1202E+00   energy=   3.3895E-06   setid =    3210 xmoment=   0.0000E+00 ymoment=   0.0000E+00 zmoment=   0.0000E+00
 nd#    3645  xforce=   0.0000E+00   yforce=   0.0000E+00  zforce=  -7.9811E+00   energy=   1.2682E-05   setid =    3645 xmoment=   0.0000E+00 ymoment=   0.0000E+00 zmoment=   0.0000E+00
 nd#    3648  xforce=   0.0000E+00   yforce=   0.0000E+00  zforce=  -1.5410E+00   energy=   2.4036E-06   setid =    3648 xmoment=   0.0000E+00 ymoment=   0.0000E+00 zmoment=   0.0000E+00
 nd#    3649  xforce=   0.0000E+00   yforce=   0.0000E+00  zforce=  -8.0217E+00   energy=   1.2744E-05   setid =    3649 xmoment=   0.0000E+00 ymoment=   0.0000E+00 zmoment=   0.0000E+00
 nd#    3652  xforce=   0.0000E+00   yforce=   0.0000E+00  zforce=  -1.5413E+00   energy=   2.3837E-06   setid =    3652 xmoment=   0.0000E+00 ymoment=   0.0000E+00 zmoment=   0.0000E+00
 nd#    3653  xforce=   0.0000E+00   yforce=   0.0000E+00  zforce=  -8.0135E+00   energy=   1.2751E-05   setid =    3653 xmoment=   0.0000E+00 ymoment=   0.0000E+00 zmoment=   0.0000E+00
 nd#    3656  xforce=   0.0000E+00   yforce=   0.0000E+00  zforce=  -1.5827E+00   energy=   2.4438E-06   setid =    3656 xmoment=   0.0000E+00 ymoment=   0.0000E+00 zmoment=   0.0000E+00
 nd#    3657  xforce=   0.0000E+00   yforce=   0.0000E+00  zforce=  -7.9271E+00   energy=   1.2633E-05   setid =    3657 xmoment=   0.0000E+00 ymoment=   0.0000E+00 zmoment=   0.0000E+00
 nd#    3660  xforce=   0.0000E+00   yforce=   0.0000E+00  zforce=  -1.6817E+00   energy=   2.6039E-06   setid =    3660 xmoment=   0.0000E+00 ymoment=   0.0000E+00 zmoment=   0.0000E+00
 nd#    3661  xforce=   0.0000E+00   yforce=   0.0000E+00  zforce=  -7.8547E+00   energy=   1.2509E-05   setid =    3661 xmoment=   0.0000E+00 ymoment=   0.0000E+00 zmoment=   0.0000E+00
 nd#    3664  xforce=   0.0000E+00   yforce=   0.0000E+00  zforce=  -1.8310E+00   energy=   2.8447E-06   setid =    3664 xmoment=   0.0000E+00 ymoment=   0.0000E+00 zmoment=   0.0000E+00
 nd#    3665  xforce=   0.0000E+00   yforce=   0.0000E+00  zforce=  -3.9228E+00   energy=   6.2412E-06   setid =    3665 xmoment=   0.0000E+00 ymoment=   0.0000E+00 zmoment=   0.0000E+00
 nd#    3668  xforce=   0.0000E+00   yforce=   0.0000E+00  zforce=  -9.5799E-01   energy=   1.4901E-06   setid =    3668 xmoment=   0.0000E+00 ymoment=   0.0000E+00 zmoment=   0.0000E+00
 nd#    4143  xforce=   0.0000E+00   yforce=   0.0000E+00  zforce=  -6.7460E+00   energy=   1.0743E-05   setid =    4143 xmoment=   0.0000E+00 ymoment=   0.0000E+00 zmoment=   0.0000E+00
 nd#    4146  xforce=   0.0000E+00   yforce=   0.0000E+00  zforce=  -7.5239E+00   energy=   1.1975E-05   setid =    4146 xmoment=   0.0000E+00 ymoment=   0.0000E+00 zmoment=   0.0000E+00
 nd#    4147  xforce=   0.0000E+00   yforce=   0.0000E+00  zforce=  -6.6512E+00   energy=   1.0582E-05   setid =    4147 xmoment=   0.0000E+00 ymoment=   0.0000E+00 zmoment=   0.0000E+00
 nd#    4150  xforce=   0.0000E+00   yforce=   0.0000E+00  zforce=  -7.4331E+00   energy=   1.1825E-05   setid =    4150 xmoment=   0.0000E+00 ymoment=   0.0000E+00 zmoment=   0.0000E+00
 nd#    4151  xforce=   0.0000E+00   yforce=   0.0000E+00  zforce=  -6.6047E+00   energy=   1.0514E-05   setid =    4151 xmoment=   0.0000E+00 ymoment=   0.0000E+00 zmoment=   0.0000E+00
 nd#    4154  xforce=   0.0000E+00   yforce=   0.0000E+00  zforce=  -7.3675E+00   energy=   1.1731E-05   setid =    4154 xmoment=   0.0000E+00 ymoment=   0.0000E+00 zmoment=   0.0000E+00
 nd#    4155  xforce=   0.0000E+00   yforce=   0.0000E+00  zforce=  -6.6088E+00   energy=   1.0533E-05   setid =    4155 xmoment=   0.0000E+00 ymoment=   0.0000E+00 zmoment=   0.0000E+00
 nd#    4158  xforce=   0.0000E+00   yforce=   0.0000E+00  zforce=  -7.3403E+00   energy=   1.1699E-05   setid =    4158 xmoment=   0.0000E+00 ymoment=   0.0000E+00 zmoment=   0.0000E+00
 nd#    4159  xforce=   0.0000E+00   yforce=   0.0000E+00  zforce=  -6.6828E+00   energy=   1.0647E-05   setid =    4159 xmoment=   0.0000E+00 ymoment=   0.0000E+00 zmoment=   0.0000E+00
 nd#    4162  xforce=   0.0000E+00   yforce=   0.0000E+00  zforce=  -7.3769E+00   energy=   1.1753E-05   setid =    4162 xmoment=   0.0000E+00 ymoment=   0.0000E+00 zmoment=   0.0000E+00
 nd#    4163  xforce=   0.0000E+00   yforce=   0.0000E+00  zforce=  -3.3784E+00   energy=   5.3782E-06   setid =    4163 xmoment=   0.0000E+00 ymoment=   0.0000E+00 zmoment=   0.0000E+00
 nd#    4166  xforce=   0.0000E+00   yforce=   0.0000E+00  zforce=  -3.7132E+00   energy=   5.9124E-06   setid =    4166 xmoment=   0.0000E+00 ymoment=   0.0000E+00 zmoment=   0.0000E+00
 nd#    4305  xforce=   0.0000E+00   yforce=   0.0000E+00  zforce=  -4.7109E+00   energy=   7.5208E-06   setid =    4305 xmoment=   0.0000E+00 ymoment=   0.0000E+00 zmoment=   0.0000E+00
 nd#    4306  xforce=   0.0000E+00   yforce=   0.0000E+00  zforce=  -5.3783E+00   energy=   8.5774E-06   setid =    4306 xmoment=   0.0000E+00 ymoment=   0.0000E+00 zmoment=   0.0000E+00
 nd#    4307  xforce=   0.0000E+00   yforce=   0.0000E+00  zforce=  -4.6305E+00   energy=   7.3728E-06   setid =    4307 xmoment=   0.0000E+00 ymoment=   0.0000E+00 zmoment=   0.0000E+00
 nd#    4308  xforce=   0.0000E+00   yforce=   0.0000E+00  zforce=  -5.2956E+00   energy=   8.4296E-06   setid =    4308 xmoment=   0.0000E+00 ymoment=   0.0000E+00 zmoment=   0.0000E+00
 nd#    4309  xforce=   0.0000E+00   yforce=   0.0000E+00  zforce=  -4.6381E+00   energy=   7.3869E-06   setid =    4309 xmoment=   0.0000E+00 ymoment=   0.0000E+00 zmoment=   0.0000E+00
 nd#    4310  xforce=   0.0000E+00   yforce=   0.0000E+00  zforce=  -5.2856E+00   energy=   8.4171E-06   setid =    4310 xmoment=   0.0000E+00 ymoment=   0.0000E+00 zmoment=   0.0000E+00
 nd#    4311  xforce=   0.0000E+00   yforce=   0.0000E+00  zforce=  -4.6853E+00   energy=   7.4856E-06   setid =    4311 xmoment=   0.0000E+00 ymoment=   0.0000E+00 zmoment=   0.0000E+00
 nd#    4312  xforce=   0.0000E+00   yforce=   0.0000E+00  zforce=  -5.3232E+00   energy=   8.4969E-06   setid =    4312 xmoment=   0.0000E+00 ymoment=   0.0000E+00 zmoment=   0.0000E+00
 nd#    4313  xforce=   0.0000E+00   yforce=   0.0000E+00  zforce=  -4.8083E+00   energy=   7.6762E-06   setid =    4313 xmoment=   0.0000E+00 ymoment=   0.0000E+00 zmoment=   0.0000E+00
 nd#    4314  xforce=   0.0000E+00   yforce=   0.0000E+00  zforce=  -5.4355E+00   energy=   8.6721E-06   setid =    4314 xmoment=   0.0000E+00 ymoment=   0.0000E+00 zmoment=   0.0000E+00
 nd#    4315  xforce=   0.0000E+00   yforce=   0.0000E+00  zforce=  -2.4599E+00   energy=   3.9177E-06   setid =    4315 xmoment=   0.0000E+00 ymoment=   0.0000E+00 zmoment=   0.0000E+00
 nd#    4316  xforce=   0.0000E+00   yforce=   0.0000E+00  zforce=  -2.7690E+00   energy=   4.4104E-06   setid =    4316 xmoment=   0.0000E+00 ymoment=   0.0000E+00 zmoment=   0.0000E+00
 nd#    4323  xforce=   0.0000E+00   yforce=   0.0000E+00  zforce=  -4.0208E+00   energy=   6.4275E-06   setid =    4323 xmoment=   0.0000E+00 ymoment=   0.0000E+00 zmoment=   0.0000E+00
 nd#    4324  xforce=   0.0000E+00   yforce=   0.0000E+00  zforce=  -3.9171E+00   energy=   6.2370E-06   setid =    4324 xmoment=   0.0000E+00 ymoment=   0.0000E+00 zmoment=   0.0000E+00
 nd#    4325  xforce=   0.0000E+00   yforce=   0.0000E+00  zforce=  -3.9195E+00   energy=   6.2406E-06   setid =    4325 xmoment=   0.0000E+00 ymoment=   0.0000E+00 zmoment=   0.0000E+00
 nd#    4326  xforce=   0.0000E+00   yforce=   0.0000E+00  zforce=  -3.9677E+00   energy=   6.3443E-06   setid =    4326 xmoment=   0.0000E+00 ymoment=   0.0000E+00 zmoment=   0.0000E+00
 nd#    4327  xforce=   0.0000E+00   yforce=   0.0000E+00  zforce=  -4.1032E+00   energy=   6.5526E-06   setid =    4327 xmoment=   0.0000E+00 ymoment=   0.0000E+00 zmoment=   0.0000E+00
 nd#    4328  xforce=   0.0000E+00   yforce=   0.0000E+00  zforce=  -2.1118E+00   energy=   3.3609E-06   setid =    4328 xmoment=   0.0000E+00 ymoment=   0.0000E+00 zmoment=   0.0000E+00
 nd#    4365  xforce=   0.0000E+00   yforce=   0.0000E+00  zforce=  -6.0501E+00   energy=   9.6401E-06   setid =    4365 xmoment=   0.0000E+00 ymoment=   0.0000E+00 zmoment=   0.0000E+00
 nd#    4366  xforce=   0.0000E+00   yforce=   0.0000E+00  zforce=  -5.9631E+00   energy=   9.4886E-06   setid =    4366 xmoment=   0.0000E+00 ymoment=   0.0000E+00 zmoment=   0.0000E+00
 nd#    4367  xforce=   0.0000E+00   yforce=   0.0000E+00  zforce=  -5.9370E+00   energy=   9.4516E-06   setid =    4367 xmoment=   0.0000E+00 ymoment=   0.0000E+00 zmoment=   0.0000E+00
 nd#    4368  xforce=   0.0000E+00   yforce=   0.0000E+00  zforce=  -5.9603E+00   energy=   9.5053E-06   setid =    4368 xmoment=   0.0000E+00 ymoment=   0.0000E+00 zmoment=   0.0000E+00
 nd#    4369  xforce=   0.0000E+00   yforce=   0.0000E+00  zforce=  -6.0561E+00   energy=   9.6549E-06   setid =    4369 xmoment=   0.0000E+00 ymoment=   0.0000E+00 zmoment=   0.0000E+00
 nd#    4370  xforce=   0.0000E+00   yforce=   0.0000E+00  zforce=  -3.0731E+00   energy=   4.8936E-06   setid =    4370 xmoment=   0.0000E+00 ymoment=   0.0000E+00 zmoment=   0.0000E+00
              xtotal=   0.0000E+00   ytotal=   0.0000E+00  ztotal=  -3.1654E+02   etotal=   5.0402E-04

 n o d a l   f o r c e/e n e r g y    o u t p u t  t=   1.27419E+01

 velocity boundary condition forces/rigid body moments 

 nd#    1157  xforce=   0.0000E+00   yforce=   0.0000E+00  zforce=  -6.4398E-01   energy=   2.0493E-06   setid =    1157 xmoment=   0.0000E+00 ymoment=   0.0000E+00 zmoment=   0.0000E+00
 nd#    1158  xforce=   0.0000E+00   yforce=   0.0000E+00  zforce=  -3.6418E-01   energy=   1.2382E-06   setid =    1158 xmoment=   0.0000E+00 ymoment=   0.0000E+00 zmoment=   0.0000E+00
 nd#    1159  xforce=   0.0000E+00   yforce=   0.0000E+00  zforce=   9.9243E-02   energy=  -1.4303E-07   setid =    1159 xmoment=   0.0000E+00 ymoment=   0.0000E+00 zmoment=   0.0000E+00
 nd#    1160  xforce=   0.0000E+00   yforce=   0.0000E+00  zforce=  -3.0620E-01   energy=   1.0068E-06   setid =    1160 xmoment=   0.0000E+00 ymoment=   0.0000E+00 zmoment=   0.0000E+00
 nd#    1221  xforce=   0.0000E+00   yforce=   0.0000E+00  zforce=  -7.7197E-01   energy=   2.3057E-06   setid =    1221 xmoment=   0.0000E+00 ymoment=   0.0000E+00 zmoment=   0.0000E+00
 nd#    1222  xforce=   0.0000E+00   yforce=   0.0000E+00  zforce=  -1.1257E+00   energy=   3.5600E-06   setid =    1222 xmoment=   0.0000E+00 ymoment=   0.0000E+00 zmoment=   0.0000E+00
 nd#    1223  xforce=   0.0000E+00   yforce=   0.0000E+00  zforce=  -5.3720E-01   energy=   1.5672E-06   setid =    1223 xmoment=   0.0000E+00 ymoment=   0.0000E+00 zmoment=   0.0000E+00
 nd#    1284  xforce=   0.0000E+00   yforce=   0.0000E+00  zforce=  -4.0002E-01   energy=   1.1116E-06   setid =    1284 xmoment=   0.0000E+00 ymoment=   0.0000E+00 zmoment=   0.0000E+00
 nd#    1285  xforce=   0.0000E+00   yforce=   0.0000E+00  zforce=  -5.7524E-01   energy=   2.0237E-06   setid =    1285 xmoment=   0.0000E+00 ymoment=   0.0000E+00 zmoment=   0.0000E+00
 nd#    1286  xforce=   0.0000E+00   yforce=   0.0000E+00  zforce=  -9.0506E-01   energy=   2.6161E-06   setid =    1286 xmoment=   0.0000E+00 ymoment=   0.0000E+00 zmoment=   0.0000E+00
 nd#    1347  xforce=   0.0000E+00   yforce=   0.0000E+00  zforce=   5.4859E-02   energy=  -1.0128E-07   setid =    1347 xmoment=   0.0000E+00 ymoment=   0.0000E+00 zmoment=   0.0000E+00
 nd#    1348  xforce=   0.0000E+00   yforce=   0.0000E+00  zforce=   4.2470E-01   energy=  -9.1664E-07   setid =    1348 xmoment=   0.0000E+00 ymoment=   0.0000E+00 zmoment=   0.0000E+00
 nd#    1349  xforce=   0.0000E+00   yforce=   0.0000E+00  zforce=   4.7062E-01   energy=  -1.2030E-06   setid =    1349 xmoment=   0.0000E+00 ymoment=   0.0000E+00 zmoment=   0.0000E+00
 nd#    1430  xforce=   0.0000E+00   yforce=   0.0000E+00  zforce=  -8.9227E-01   energy=   2.6193E-06   setid =    1430 xmoment=   0.0000E+00 ymoment=   0.0000E+00 zmoment=   0.0000E+00
 nd#    1431  xforce=   0.0000E+00   yforce=   0.0000E+00  zforce=  -7.5872E-01   energy=   2.1024E-06   setid =    1431 xmoment=   0.0000E+00 ymoment=   0.0000E+00 zmoment=   0.0000E+00
 nd#    1432  xforce=   0.0000E+00   yforce=   0.0000E+00  zforce=   7.8589E-01   energy=  -2.2461E-06   setid =    1432 xmoment=   0.0000E+00 ymoment=   0.0000E+00 zmoment=   0.0000E+00
 nd#    1433  xforce=   0.0000E+00   yforce=   0.0000E+00  zforce=  -4.8448E-01   energy=   1.6115E-06   setid =    1433 xmoment=   0.0000E+00 ymoment=   0.0000E+00 zmoment=   0.0000E+00
[...]
 nd#    1706  xforce=   0.0000E+00   yforce=   0.0000E+00  zforce=   7.6385E+00   energy=  -1.6620E-05   setid =    1706 xmoment=   0.0000E+00 ymoment=   0.0000E+00 zmoment=   0.0000E+00
 nd#    1727  xforce=   0.0000E+00   yforce=   0.0000E+00  zforce=  -1.0244E+01   energy=   9.3249E-05   setid =    1727 xmoment=   0.0000E+00 ymoment=   0.0000E+00 zmoment=   0.0000E+00
 nd#    1808  xforce=   0.0000E+00   yforce=   0.0000E+00  zforce=  -1.2883E+01   energy=   1.3100E-04   setid =    1808 xmoment=   0.0000E+00 ymoment=   0.0000E+00 zmoment=   0.0000E+00
 nd#    1809  xforce=   0.0000E+00   yforce=   0.0000E+00  zforce=  -1.6523E+01   energy=   1.3582E-04   setid =    1809 xmoment=   0.0000E+00 ymoment=   0.0000E+00 zmoment=   0.0000E+00
 nd#    1810  xforce=   0.0000E+00   yforce=   0.0000E+00  zforce=   1.1684E+01   energy=  -6.1723E-05   setid =    1810 xmoment=   0.0000E+00 ymoment=   0.0000E+00 zmoment=   0.0000E+00
 nd#    1811  xforce=   0.0000E+00   yforce=   0.0000E+00  zforce=  -8.1022E+00   energy=   1.1289E-04   setid =    1811 xmoment=   0.0000E+00 ymoment=   0.0000E+00 zmoment=   0.0000E+00
 nd#    1832  xforce=   0.0000E+00   yforce=   0.0000E+00  zforce=  -1.8324E+01   energy=   1.3616E-04   setid =    1832 xmoment=   0.0000E+00 ymoment=   0.0000E+00 zmoment=   0.0000E+00
 nd#    1853  xforce=   0.0000E+00   yforce=   0.0000E+00  zforce=  -1.3627E+01   energy=   1.4526E-04   setid =    1853 xmoment=   0.0000E+00 ymoment=   0.0000E+00 zmoment=   0.0000E+00
 nd#    1854  xforce=   0.0000E+00   yforce=   0.0000E+00  zforce=  -1.6462E+01   energy=   2.3956E-04   setid =    1854 xmoment=   0.0000E+00 ymoment=   0.0000E+00 zmoment=   0.0000E+00
 nd#    1855  xforce=   0.0000E+00   yforce=   0.0000E+00  zforce=  -1.0291E+01   energy=   1.3213E-04   setid =    1855 xmoment=   0.0000E+00 ymoment=   0.0000E+00 zmoment=   0.0000E+00
 nd#    1856  xforce=   0.0000E+00   yforce=   0.0000E+00  zforce=  -1.1086E+01   energy=   1.3536E-04   setid =    1856 xmoment=   0.0000E+00 ymoment=   0.0000E+00 zmoment=   0.0000E+00
 nd#    1857  xforce=   0.0000E+00   yforce=   0.0000E+00  zforce=  -1.1321E+01   energy=   1.3238E-04   setid =    1857 xmoment=   0.0000E+00 ymoment=   0.0000E+00 zmoment=   0.0000E+00
 nd#    1858  xforce=   0.0000E+00   yforce=   0.0000E+00  zforce=  -1.1756E+01   energy=   1.3050E-04   setid =    1858 xmoment=   0.0000E+00 ymoment=   0.0000E+00 zmoment=   0.0000E+00
 nd#    1859  xforce=   0.0000E+00   yforce=   0.0000E+00  zforce=  -1.3641E+01   energy=   1.3807E-04   setid =    1859 xmoment=   0.0000E+00 ymoment=   0.0000E+00 zmoment=   0.0000E+00
 nd#    1867  xforce=   0.0000E+00   yforce=   0.0000E+00  zforce=  -1.0567E+01   energy=   1.2811E-04   setid =    1867 xmoment=   0.0000E+00 ymoment=   0.0000E+00 zmoment=   0.0000E+00
 nd#    1868  xforce=   0.0000E+00   yforce=   0.0000E+00  zforce=  -9.9899E+00   energy=   1.2537E-04   setid =    1868 xmoment=   0.0000E+00 ymoment=   0.0000E+00 zmoment=   0.0000E+00
 nd#    1869  xforce=   0.0000E+00   yforce=   0.0000E+00  zforce=  -9.5689E+00   energy=   1.2650E-04   setid =    1869 xmoment=   0.0000E+00 ymoment=   0.0000E+00 zmoment=   0.0000E+00
 nd#    1870  xforce=   0.0000E+00   yforce=   0.0000E+00  zforce=  -9.5505E+00   energy=   1.3044E-04   setid =    1870 xmoment=   0.0000E+00 ymoment=   0.0000E+00 zmoment=   0.0000E+00
 nd#    1871  xforce=   0.0000E+00   yforce=   0.0000E+00  zforce=  -1.0214E+01   energy=   1.4042E-04   setid =    1871 xmoment=   0.0000E+00 ymoment=   0.0000E+00 zmoment=   0.0000E+00
 nd#    1872  xforce=   0.0000E+00   yforce=   0.0000E+00  zforce=  -6.5659E+00   energy=   1.5315E-04   setid =    1872 xmoment=   0.0000E+00 ymoment=   0.0000E+00 zmoment=   0.0000E+00
 nd#    1873  xforce=   0.0000E+00   yforce=   0.0000E+00  zforce=  -7.0840E+00   energy=   2.4710E-04   setid =    1873 xmoment=   0.0000E+00 ymoment=   0.0000E+00 zmoment=   0.0000E+00
 nd#    1874  xforce=   0.0000E+00   yforce=   0.0000E+00  zforce=  -1.6586E+01   energy=   3.1521E-04   setid =    1874 xmoment=   0.0000E+00 ymoment=   0.0000E+00 zmoment=   0.0000E+00
 nd#    1875  xforce=   0.0000E+00   yforce=   0.0000E+00  zforce=  -2.0218E+01   energy=   3.5477E-04   setid =    1875 xmoment=   0.0000E+00 ymoment=   0.0000E+00 zmoment=   0.0000E+00
 nd#    1876  xforce=   0.0000E+00   yforce=   0.0000E+00  zforce=  -2.0949E+01   energy=   3.6937E-04   setid =    1876 xmoment=   0.0000E+00 ymoment=   0.0000E+00 zmoment=   0.0000E+00
 nd#    1877  xforce=   0.0000E+00   yforce=   0.0000E+00  zforce=  -1.7808E+01   energy=   3.6541E-04   setid =    1877 xmoment=   0.0000E+00 ymoment=   0.0000E+00 zmoment=   0.0000E+00
 nd#    1878  xforce=   0.0000E+00   yforce=   0.0000E+00  zforce=  -3.1998E+00   energy=   1.1427E-04   setid =    1878 xmoment=   0.0000E+00 ymoment=   0.0000E+00 zmoment=   0.0000E+00
 nd#    1879  xforce=   0.0000E+00   yforce=   0.0000E+00  zforce=  -7.6188E+00   energy=   1.3356E-04   setid =    1879 xmoment=   0.0000E+00 ymoment=   0.0000E+00 zmoment=   0.0000E+00
 nd#    1880  xforce=   0.0000E+00   yforce=   0.0000E+00  zforce=  -9.4981E+00   energy=   1.4907E-04   setid =    1880 xmoment=   0.0000E+00 ymoment=   0.0000E+00 zmoment=   0.0000E+00
 nd#    1881  xforce=   0.0000E+00   yforce=   0.0000E+00  zforce=  -9.1514E+00   energy=   1.4858E-04   setid =    1881 xmoment=   0.0000E+00 ymoment=   0.0000E+00 zmoment=   0.0000E+00
 nd#    1882  xforce=   0.0000E+00   yforce=   0.0000E+00  zforce=  -4.8711E+00   energy=   1.3402E-04   setid =    1882 xmoment=   0.0000E+00 ymoment=   0.0000E+00 zmoment=   0.0000E+00
 nd#    1883  xforce=   0.0000E+00   yforce=   0.0000E+00  zforce=  -8.4172E+00   energy=   1.2584E-04   setid =    1883 xmoment=   0.0000E+00 ymoment=   0.0000E+00 zmoment=   0.0000E+00
 nd#    1884  xforce=   0.0000E+00   yforce=   0.0000E+00  zforce=  -7.6509E+00   energy=   1.0293E-04   setid =    1884 xmoment=   0.0000E+00 ymoment=   0.0000E+00 zmoment=   0.0000E+00
 nd#    1885  xforce=   0.0000E+00   yforce=   0.0000E+00  zforce=  -6.4441E+00   energy=   1.0864E-04   setid =    1885 xmoment=   0.0000E+00 ymoment=   0.0000E+00 zmoment=   0.0000E+00
 nd#    1886  xforce=   0.0000E+00   yforce=   0.0000E+00  zforce=  -2.1586E+00   energy=   9.2051E-05   setid =    1886 xmoment=   0.0000E+00 ymoment=   0.0000E+00 zmoment=   0.0000E+00
 nd#    1887  xforce=   0.0000E+00   yforce=   0.0000E+00  zforce=  -4.5916E+00   energy=   7.8791E-05   setid =    1887 xmoment=   0.0000E+00 ymoment=   0.0000E+00 zmoment=   0.0000E+00
 nd#    1888  xforce=   0.0000E+00   yforce=   0.0000E+00  zforce=   1.3549E+00   energy=   5.5668E-05   setid =    1888 xmoment=   0.0000E+00 ymoment=   0.0000E+00 zmoment=   0.0000E+00
 nd#    1889  xforce=   0.0000E+00   yforce=   0.0000E+00  zforce=  -1.3764E+00   energy=   9.8733E-05   setid =    1889 xmoment=   0.0000E+00 ymoment=   0.0000E+00 zmoment=   0.0000E+00
 nd#    1890  xforce=   0.0000E+00   yforce=   0.0000E+00  zforce=  -7.4720E+00   energy=   1.2196E-04   setid =    1890 xmoment=   0.0000E+00 ymoment=   0.0000E+00 zmoment=   0.0000E+00
 nd#    1891  xforce=   0.0000E+00   yforce=   0.0000E+00  zforce=   2.1652E+00   energy=   6.1513E-05   setid =    1891 xmoment=   0.0000E+00 ymoment=   0.0000E+00 zmoment=   0.0000E+00
 nd#    1892  xforce=   0.0000E+00   yforce=   0.0000E+00  zforce=  -6.3665E+00   energy=   9.6263E-05   setid =    1892 xmoment=   0.0000E+00 ymoment=   0.0000E+00 zmoment=   0.0000E+00
 nd#    1893  xforce=   0.0000E+00   yforce=   0.0000E+00  zforce=  -1.0742E+01   energy=   1.7953E-04   setid =    1893 xmoment=   0.0000E+00 ymoment=   0.0000E+00 zmoment=   0.0000E+00
 nd#    1894  xforce=   0.0000E+00   yforce=   0.0000E+00  zforce=  -1.0772E+01   energy=   1.7175E-04   setid =    1894 xmoment=   0.0000E+00 ymoment=   0.0000E+00 zmoment=   0.0000E+00
 nd#    1895  xforce=   0.0000E+00   yforce=   0.0000E+00  zforce=  -8.6016E+00   energy=   1.7771E-04   setid =    1895 xmoment=   0.0000E+00 ymoment=   0.0000E+00 zmoment=   0.0000E+00
 nd#    1896  xforce=   0.0000E+00   yforce=   0.0000E+00  zforce=  -5.3550E+00   energy=   1.4201E-04   setid =    1896 xmoment=   0.0000E+00 ymoment=   0.0000E+00 zmoment=   0.0000E+00
 nd#    1897  xforce=   0.0000E+00   yforce=   0.0000E+00  zforce=  -1.0845E+01   energy=   1.8176E-04   setid =    1897 xmoment=   0.0000E+00 ymoment=   0.0000E+00 zmoment=   0.0000E+00
 nd#    1898  xforce=   0.0000E+00   yforce=   0.0000E+00  zforce=  -9.4421E+00   energy=   1.6055E-04   setid =    1898 xmoment=   0.0000E+00 ymoment=   0.0000E+00 zmoment=   0.0000E+00
 nd#    1899  xforce=   0.0000E+00   yforce=   0.0000E+00  zforce=  -1.0533E+01   energy=   1.7801E-04   setid =    1899 xmoment=   0.0000E+00 ymoment=   0.0000E+00 zmoment=   0.0000E+00
 nd#    1900  xforce=   0.0000E+00   yforce=   0.0000E+00  zforce=  -1.0561E+01   energy=   1.7164E-04   setid =    1900 xmoment=   0.0000E+00 ymoment=   0.0000E+00 zmoment=   0.0000E+00
 nd#    1901  xforce=   0.0000E+00   yforce=   0.0000E+00  zforce=  -7.1792E+00   energy=   1.6592E-04   setid =    1901 xmoment=   0.0000E+00 ymoment=   0.0000E+00 zmoment=   0.0000E+00
 nd#    1902  xforce=   0.0000E+00   yforce=   0.0000E+00  zforce=  -6.8181E+00   energy=   1.5822E-04   setid =    1902 xmoment=   0.0000E+00 ymoment=   0.0000E+00 zmoment=   0.0000E+00
 nd#    3203  xforce=   0.0000E+00   yforce=   0.0000E+00  zforce=   2.4878E+01   energy=  -1.0905E-04   setid =    3203 xmoment=   0.0000E+00 ymoment=   0.0000E+00 zmoment=   0.0000E+00
 nd#    3204  xforce=   0.0000E+00   yforce=   0.0000E+00  zforce=  -2.0459E+01   energy=   4.9317E-04   setid =    3204 xmoment=   0.0000E+00 ymoment=   0.0000E+00 zmoment=   0.0000E+00
 nd#    3205  xforce=   0.0000E+00   yforce=   0.0000E+00  zforce=  -2.9562E+01   energy=   5.4014E-04   setid =    3205 xmoment=   0.0000E+00 ymoment=   0.0000E+00 zmoment=   0.0000E+00
 nd#    3206  xforce=   0.0000E+00   yforce=   0.0000E+00  zforce=  -2.8213E+01   energy=   4.9779E-04   setid =    3206 xmoment=   0.0000E+00 ymoment=   0.0000E+00 zmoment=   0.0000E+00
 nd#    3207  xforce=   0.0000E+00   yforce=   0.0000E+00  zforce=  -2.4831E+01   energy=   4.4552E-04   setid =    3207 xmoment=   0.0000E+00 ymoment=   0.0000E+00 zmoment=   0.0000E+00
 nd#    3208  xforce=   0.0000E+00   yforce=   0.0000E+00  zforce=  -2.1651E+01   energy=   3.9585E-04   setid =    3208 xmoment=   0.0000E+00 ymoment=   0.0000E+00 zmoment=   0.0000E+00
 nd#    3209  xforce=   0.0000E+00   yforce=   0.0000E+00  zforce=  -1.8635E+01   energy=   3.4780E-04   setid =    3209 xmoment=   0.0000E+00 ymoment=   0.0000E+00 zmoment=   0.0000E+00
 nd#    3210  xforce=   0.0000E+00   yforce=   0.0000E+00  zforce=  -1.7184E+01   energy=   3.0978E-04   setid =    3210 xmoment=   0.0000E+00 ymoment=   0.0000E+00 zmoment=   0.0000E+00
 nd#    3645  xforce=   0.0000E+00   yforce=   0.0000E+00  zforce=  -6.5569E+01   energy=   1.1459E-03   setid =    3645 xmoment=   0.0000E+00 ymoment=   0.0000E+00 zmoment=   0.0000E+00
 nd#    3648  xforce=   0.0000E+00   yforce=   0.0000E+00  zforce=   3.5907E+01   energy=  -1.2449E-04   setid =    3648 xmoment=   0.0000E+00 ymoment=   0.0000E+00 zmoment=   0.0000E+00
 nd#    3649  xforce=   0.0000E+00   yforce=   0.0000E+00  zforce=  -7.2237E+01   energy=   1.1979E-03   setid =    3649 xmoment=   0.0000E+00 ymoment=   0.0000E+00 zmoment=   0.0000E+00
 nd#    3652  xforce=   0.0000E+00   yforce=   0.0000E+00  zforce=   1.9477E+01   energy=  -1.5824E-05   setid =    3652 xmoment=   0.0000E+00 ymoment=   0.0000E+00 zmoment=   0.0000E+00
 nd#    3653  xforce=   0.0000E+00   yforce=   0.0000E+00  zforce=  -6.5441E+01   energy=   1.1530E-03   setid =    3653 xmoment=   0.0000E+00 ymoment=   0.0000E+00 zmoment=   0.0000E+00
 nd#    3656  xforce=   0.0000E+00   yforce=   0.0000E+00  zforce=   1.3892E+01   energy=   2.6886E-05   setid =    3656 xmoment=   0.0000E+00 ymoment=   0.0000E+00 zmoment=   0.0000E+00
 nd#    3657  xforce=   0.0000E+00   yforce=   0.0000E+00  zforce=  -5.7354E+01   energy=   1.0874E-03   setid =    3657 xmoment=   0.0000E+00 ymoment=   0.0000E+00 zmoment=   0.0000E+00
 nd#    3660  xforce=   0.0000E+00   yforce=   0.0000E+00  zforce=   7.7374E+00   energy=   7.8825E-05   setid =    3660 xmoment=   0.0000E+00 ymoment=   0.0000E+00 zmoment=   0.0000E+00
 nd#    3661  xforce=   0.0000E+00   yforce=   0.0000E+00  zforce=  -4.9747E+01   energy=   1.0267E-03   setid =    3661 xmoment=   0.0000E+00 ymoment=   0.0000E+00 zmoment=   0.0000E+00
 nd#    3664  xforce=   0.0000E+00   yforce=   0.0000E+00  zforce=   2.5221E+00   energy=   1.3045E-04   setid =    3664 xmoment=   0.0000E+00 ymoment=   0.0000E+00 zmoment=   0.0000E+00
 nd#    3665  xforce=   0.0000E+00   yforce=   0.0000E+00  zforce=  -2.5259E+01   energy=   5.1483E-04   setid =    3665 xmoment=   0.0000E+00 ymoment=   0.0000E+00 zmoment=   0.0000E+00
 nd#    3668  xforce=   0.0000E+00   yforce=   0.0000E+00  zforce=  -9.0331E-01   energy=   8.4333E-05   setid =    3668 xmoment=   0.0000E+00 ymoment=   0.0000E+00 zmoment=   0.0000E+00
 nd#    4143  xforce=   0.0000E+00   yforce=   0.0000E+00  zforce=  -5.9936E+01   energy=   1.0042E-03   setid =    4143 xmoment=   0.0000E+00 ymoment=   0.0000E+00 zmoment=   0.0000E+00
 nd#    4146  xforce=   0.0000E+00   yforce=   0.0000E+00  zforce=  -7.0212E+01   energy=   1.1406E-03   setid =    4146 xmoment=   0.0000E+00 ymoment=   0.0000E+00 zmoment=   0.0000E+00
 nd#    4147  xforce=   0.0000E+00   yforce=   0.0000E+00  zforce=  -6.0195E+01   energy=   9.9734E-04   setid =    4147 xmoment=   0.0000E+00 ymoment=   0.0000E+00 zmoment=   0.0000E+00
 nd#    4150  xforce=   0.0000E+00   yforce=   0.0000E+00  zforce=  -6.7718E+01   energy=   1.1165E-03   setid =    4150 xmoment=   0.0000E+00 ymoment=   0.0000E+00 zmoment=   0.0000E+00
 nd#    4151  xforce=   0.0000E+00   yforce=   0.0000E+00  zforce=  -5.5497E+01   energy=   9.6193E-04   setid =    4151 xmoment=   0.0000E+00 ymoment=   0.0000E+00 zmoment=   0.0000E+00
 nd#    4154  xforce=   0.0000E+00   yforce=   0.0000E+00  zforce=  -6.0391E+01   energy=   1.0613E-03   setid =    4154 xmoment=   0.0000E+00 ymoment=   0.0000E+00 zmoment=   0.0000E+00
 nd#    4155  xforce=   0.0000E+00   yforce=   0.0000E+00  zforce=  -5.2992E+01   energy=   9.4439E-04   setid =    4155 xmoment=   0.0000E+00 ymoment=   0.0000E+00 zmoment=   0.0000E+00
 nd#    4158  xforce=   0.0000E+00   yforce=   0.0000E+00  zforce=  -5.6353E+01   energy=   1.0300E-03   setid =    4158 xmoment=   0.0000E+00 ymoment=   0.0000E+00 zmoment=   0.0000E+00
 nd#    4159  xforce=   0.0000E+00   yforce=   0.0000E+00  zforce=  -4.9345E+01   energy=   9.2786E-04   setid =    4159 xmoment=   0.0000E+00 ymoment=   0.0000E+00 zmoment=   0.0000E+00
 nd#    4162  xforce=   0.0000E+00   yforce=   0.0000E+00  zforce=  -5.1863E+01   energy=   1.0030E-03   setid =    4162 xmoment=   0.0000E+00 ymoment=   0.0000E+00 zmoment=   0.0000E+00
 nd#    4163  xforce=   0.0000E+00   yforce=   0.0000E+00  zforce=  -2.8079E+01   energy=   4.9050E-04   setid =    4163 xmoment=   0.0000E+00 ymoment=   0.0000E+00 zmoment=   0.0000E+00
 nd#    4166  xforce=   0.0000E+00   yforce=   0.0000E+00  zforce=  -2.8027E+01   energy=   5.1773E-04   setid =    4166 xmoment=   0.0000E+00 ymoment=   0.0000E+00 zmoment=   0.0000E+00
 nd#    4305  xforce=   0.0000E+00   yforce=   0.0000E+00  zforce=  -3.5925E+01   energy=   6.6273E-04   setid =    4305 xmoment=   0.0000E+00 ymoment=   0.0000E+00 zmoment=   0.0000E+00
 nd#    4306  xforce=   0.0000E+00   yforce=   0.0000E+00  zforce=  -4.3525E+01   energy=   7.7290E-04   setid =    4306 xmoment=   0.0000E+00 ymoment=   0.0000E+00 zmoment=   0.0000E+00
 nd#    4307  xforce=   0.0000E+00   yforce=   0.0000E+00  zforce=  -4.2257E+01   energy=   6.9594E-04   setid =    4307 xmoment=   0.0000E+00 ymoment=   0.0000E+00 zmoment=   0.0000E+00
 nd#    4308  xforce=   0.0000E+00   yforce=   0.0000E+00  zforce=  -4.7539E+01   energy=   7.9139E-04   setid =    4308 xmoment=   0.0000E+00 ymoment=   0.0000E+00 zmoment=   0.0000E+00
 nd#    4309  xforce=   0.0000E+00   yforce=   0.0000E+00  zforce=  -4.1275E+01   energy=   6.9168E-04   setid =    4309 xmoment=   0.0000E+00 ymoment=   0.0000E+00 zmoment=   0.0000E+00
 nd#    4310  xforce=   0.0000E+00   yforce=   0.0000E+00  zforce=  -4.5343E+01   energy=   7.7707E-04   setid =    4310 xmoment=   0.0000E+00 ymoment=   0.0000E+00 zmoment=   0.0000E+00
 nd#    4311  xforce=   0.0000E+00   yforce=   0.0000E+00  zforce=  -4.0673E+01   energy=   6.9131E-04   setid =    4311 xmoment=   0.0000E+00 ymoment=   0.0000E+00 zmoment=   0.0000E+00
 nd#    4312  xforce=   0.0000E+00   yforce=   0.0000E+00  zforce=  -4.4660E+01   energy=   7.7514E-04   setid =    4312 xmoment=   0.0000E+00 ymoment=   0.0000E+00 zmoment=   0.0000E+00
 nd#    4313  xforce=   0.0000E+00   yforce=   0.0000E+00  zforce=  -3.7221E+01   energy=   6.8421E-04   setid =    4313 xmoment=   0.0000E+00 ymoment=   0.0000E+00 zmoment=   0.0000E+00
 nd#    4314  xforce=   0.0000E+00   yforce=   0.0000E+00  zforce=  -4.1317E+01   energy=   7.6659E-04   setid =    4314 xmoment=   0.0000E+00 ymoment=   0.0000E+00 zmoment=   0.0000E+00
 nd#    4315  xforce=   0.0000E+00   yforce=   0.0000E+00  zforce=  -2.6237E+01   energy=   3.9974E-04   setid =    4315 xmoment=   0.0000E+00 ymoment=   0.0000E+00 zmoment=   0.0000E+00
 nd#    4316  xforce=   0.0000E+00   yforce=   0.0000E+00  zforce=  -2.6804E+01   energy=   4.3025E-04   setid =    4316 xmoment=   0.0000E+00 ymoment=   0.0000E+00 zmoment=   0.0000E+00
 nd#    4323  xforce=   0.0000E+00   yforce=   0.0000E+00  zforce=  -2.8768E+01   energy=   5.5419E-04   setid =    4323 xmoment=   0.0000E+00 ymoment=   0.0000E+00 zmoment=   0.0000E+00
 nd#    4324  xforce=   0.0000E+00   yforce=   0.0000E+00  zforce=  -3.4097E+01   energy=   5.7758E-04   setid =    4324 xmoment=   0.0000E+00 ymoment=   0.0000E+00 zmoment=   0.0000E+00
 nd#    4325  xforce=   0.0000E+00   yforce=   0.0000E+00  zforce=  -3.3532E+01   energy=   5.7511E-04   setid =    4325 xmoment=   0.0000E+00 ymoment=   0.0000E+00 zmoment=   0.0000E+00
 nd#    4326  xforce=   0.0000E+00   yforce=   0.0000E+00  zforce=  -3.2770E+01   energy=   5.7357E-04   setid =    4326 xmoment=   0.0000E+00 ymoment=   0.0000E+00 zmoment=   0.0000E+00
 nd#    4327  xforce=   0.0000E+00   yforce=   0.0000E+00  zforce=  -2.9886E+01   energy=   5.7265E-04   setid =    4327 xmoment=   0.0000E+00 ymoment=   0.0000E+00 zmoment=   0.0000E+00
 nd#    4328  xforce=   0.0000E+00   yforce=   0.0000E+00  zforce=  -2.3964E+01   energy=   3.5414E-04   setid =    4328 xmoment=   0.0000E+00 ymoment=   0.0000E+00 zmoment=   0.0000E+00
 nd#    4365  xforce=   0.0000E+00   yforce=   0.0000E+00  zforce=  -5.1997E+01   energy=   8.8913E-04   setid =    4365 xmoment=   0.0000E+00 ymoment=   0.0000E+00 zmoment=   0.0000E+00
 nd#    4366  xforce=   0.0000E+00   yforce=   0.0000E+00  zforce=  -5.4585E+01   energy=   8.9807E-04   setid =    4366 xmoment=   0.0000E+00 ymoment=   0.0000E+00 zmoment=   0.0000E+00
 nd#    4367  xforce=   0.0000E+00   yforce=   0.0000E+00  zforce=  -5.1312E+01   energy=   8.7466E-04   setid =    4367 xmoment=   0.0000E+00 ymoment=   0.0000E+00 zmoment=   0.0000E+00
 nd#    4368  xforce=   0.0000E+00   yforce=   0.0000E+00  zforce=  -4.9671E+01   energy=   8.6496E-04   setid =    4368 xmoment=   0.0000E+00 ymoment=   0.0000E+00 zmoment=   0.0000E+00
 nd#    4369  xforce=   0.0000E+00   yforce=   0.0000E+00  zforce=  -4.6147E+01   energy=   8.5250E-04   setid =    4369 xmoment=   0.0000E+00 ymoment=   0.0000E+00 zmoment=   0.0000E+00
 nd#    4370  xforce=   0.0000E+00   yforce=   0.0000E+00  zforce=  -2.7832E+01   energy=   4.6300E-04   setid =    4370 xmoment=   0.0000E+00 ymoment=   0.0000E+00 zmoment=   0.0000E+00
              xtotal=   0.0000E+00   ytotal=   0.0000E+00  ztotal=  -2.4073E+03   etotal=   4.4348E-02
