 LS-DYNA keyword deck by LS-PrePost                                      
                    ls-dyna smp d R14 R14.1.1s_1_ef50e1 date 06/16/2024



 n o d a l  s t r e s s  c a l c u l a t i o n s   f o r   t i m e  s t e p        1   ( at time 0.00000E+00 )

 node (global)
          stress       sig-xx      sig-yy      sig-zz      sig-xy      sig-yz      sig-zx       plastic
                                                                                                 strain 
      94-
 mid.  surface     2.6058E-05  2.6058E-05  2.6058E-05  0.0000E+00  0.0000E+00  0.0000E+00  0.0000E+00
      98-
 mid.  surface     3.6315E-05  3.6315E-05  3.6315E-05  0.0000E+00  0.0000E+00  0.0000E+00  0.0000E+00
     100-
 mid.  surface    -1.6011E-04 -1.6011E-04 -1.6011E-04  0.0000E+00  0.0000E+00  0.0000E+00  0.0000E+00
     101-
 mid.  surface    -1.1843E-04 -1.1843E-04 -1.1843E-04  0.0000E+00  0.0000E+00  0.0000E+00  0.0000E+00
     104-
 mid.  surface     2.6058E-05  2.6058E-05  2.6058E-05  0.0000E+00  0.0000E+00  0.0000E+00  0.0000E+00
     105-
 mid.  surface     3.6315E-05  3.6315E-05  3.6315E-05  0.0000E+00  0.0000E+00  0.0000E+00  0.0000E+00
     108-
 mid.  surface    -8.4835E-05 -8.4835E-05 -8.4835E-05  0.0000E+00  0.0000E+00  0.0000E+00  0.0000E+00
     109-
 mid.  surface    -1.2220E-04 -1.2220E-04 -1.2220E-04  0.0000E+00  0.0000E+00  0.0000E+00  0.0000E+00
     112-
 mid.  surface    -4.3161E-05 -4.3161E-05 -4.3161E-05  0.0000E+00  0.0000E+00  0.0000E+00  0.0000E+00
     113-
 mid.  surface    -8.4835E-05 -8.4835E-05 -8.4835E-05  0.0000E+00  0.0000E+00  0.0000E+00  0.0000E+00
     131-
 mid.  surface    -5.2982E-05 -5.2982E-05 -5.2982E-05  0.0000E+00  0.0000E+00  0.0000E+00  0.0000E+00
     134-
 mid.  surface    -1.5617E-05 -1.5617E-05 -1.5617E-05  0.0000E+00  0.0000E+00  0.0000E+00  0.0000E+00
     135-
 mid.  surface     1.2887E-04  1.2887E-04  1.2887E-04  0.0000E+00  0.0000E+00  0.0000E+00  0.0000E+00
     138-
 mid.  surface     1.7055E-04  1.7055E-04  1.7055E-04  0.0000E+00  0.0000E+00  0.0000E+00  0.0000E+00
     139-
 mid.  surface     1.0133E-04  1.0133E-04  1.0133E-04  0.0000E+00  0.0000E+00  0.0000E+00  0.0000E+00
     142-
 mid.  surface     5.9654E-05  5.9654E-05  5.9654E-05  0.0000E+00  0.0000E+00  0.0000E+00  0.0000E+00
     143-
 mid.  surface     1.1159E-04  1.1159E-04  1.1159E-04  0.0000E+00  0.0000E+00  0.0000E+00  0.0000E+00
     146-
 mid.  surface     1.0133E-04  1.0133E-04  1.0133E-04  0.0000E+00  0.0000E+00  0.0000E+00  0.0000E+00
     155-
 mid.  surface     2.1942E-06  2.1942E-06  2.1942E-06  0.0000E+00  0.0000E+00  0.0000E+00  0.0000E+00
     156-
 mid.  surface     3.0263E-05  3.0263E-05  3.0263E-05  0.0000E+00  0.0000E+00  0.0000E+00  0.0000E+00
     157-
 mid.  surface     2.0005E-05  2.0005E-05  2.0005E-05  0.0000E+00  0.0000E+00  0.0000E+00  0.0000E+00
     158-
 mid.  surface    -3.7326E-05 -3.7326E-05 -3.7326E-05  0.0000E+00  0.0000E+00  0.0000E+00  0.0000E+00
     159-
 mid.  surface     2.1940E-06  2.1940E-06  2.1940E-06  0.0000E+00  0.0000E+00  0.0000E+00  0.0000E+00
     160-
 mid.  surface     2.0005E-05  2.0005E-05  2.0005E-05  0.0000E+00  0.0000E+00  0.0000E+00  0.0000E+00
     161-
 mid.  surface    -2.1669E-05 -2.1669E-05 -2.1669E-05  0.0000E+00  0.0000E+00  0.0000E+00  0.0000E+00
     162-
 mid.  surface    -3.7326E-05 -3.7326E-05 -3.7326E-05  0.0000E+00  0.0000E+00  0.0000E+00  0.0000E+00
     163-
 mid.  surface    -1.6644E-06 -1.6644E-06 -1.6644E-06  0.0000E+00  0.0000E+00  0.0000E+00  0.0000E+00
     164-
 mid.  surface    -1.6644E-06 -1.6644E-06 -1.6644E-06  0.0000E+00  0.0000E+00  0.0000E+00  0.0000E+00
     165-
 mid.  surface    -2.8772E-05 -2.8772E-05 -2.8772E-05  0.0000E+00  0.0000E+00  0.0000E+00  0.0000E+00
     166-
 mid.  surface    -1.6644E-06 -1.6644E-06 -1.6644E-06  0.0000E+00  0.0000E+00  0.0000E+00  0.0000E+00
     167-
 mid.  surface    -2.8772E-05 -2.8772E-05 -2.8772E-05  0.0000E+00  0.0000E+00  0.0000E+00  0.0000E+00
     168-
 mid.  surface    -1.6645E-06 -1.6645E-06 -1.6645E-06  0.0000E+00  0.0000E+00  0.0000E+00  0.0000E+00
     169-
 mid.  surface    -1.6645E-06 -1.6645E-06 -1.6645E-06  0.0000E+00  0.0000E+00  0.0000E+00  0.0000E+00
     170-
 mid.  surface    -1.6645E-06 -1.6645E-06 -1.6645E-06  0.0000E+00  0.0000E+00  0.0000E+00  0.0000E+00
     187-
 mid.  surface    -1.5617E-05 -1.5617E-05 -1.5617E-05  0.0000E+00  0.0000E+00  0.0000E+00  0.0000E+00
     188-
 mid.  surface     2.6058E-05  2.6058E-05  2.6058E-05  0.0000E+00  0.0000E+00  0.0000E+00  0.0000E+00
     195-
 mid.  surface     5.0268E-05  5.0268E-05  5.0268E-05  0.0000E+00  0.0000E+00  0.0000E+00  0.0000E+00
     196-
 mid.  surface    -1.6644E-06 -1.6644E-06 -1.6644E-06  0.0000E+00  0.0000E+00  0.0000E+00  0.0000E+00
     197-
 mid.  surface    -8.0704E-05 -8.0704E-05 -8.0704E-05  0.0000E+00  0.0000E+00  0.0000E+00  0.0000E+00
     198-
 mid.  surface    -1.6644E-06 -1.6644E-06 -1.6644E-06  0.0000E+00  0.0000E+00  0.0000E+00  0.0000E+00
     199-
 mid.  surface     5.0268E-05  5.0268E-05  5.0268E-05  0.0000E+00  0.0000E+00  0.0000E+00  0.0000E+00
     200-
 mid.  surface    -1.6645E-06 -1.6645E-06 -1.6645E-06  0.0000E+00  0.0000E+00  0.0000E+00  0.0000E+00
     201-
 mid.  surface    -8.0704E-05 -8.0704E-05 -8.0704E-05  0.0000E+00  0.0000E+00  0.0000E+00  0.0000E+00
     202-
 mid.  surface    -1.6645E-06 -1.6645E-06 -1.6645E-06  0.0000E+00  0.0000E+00  0.0000E+00  0.0000E+00
     219-
 mid.  surface     2.0005E-05  2.0005E-05  2.0005E-05  0.0000E+00  0.0000E+00  0.0000E+00  0.0000E+00
     220-
 mid.  surface    -2.1669E-05 -2.1669E-05 -2.1669E-05  0.0000E+00  0.0000E+00  0.0000E+00  0.0000E+00
     221-
 mid.  surface    -5.9035E-05 -5.9035E-05 -5.9035E-05  0.0000E+00  0.0000E+00  0.0000E+00  0.0000E+00
     222-
 mid.  surface    -2.1669E-05 -2.1669E-05 -2.1669E-05  0.0000E+00  0.0000E+00  0.0000E+00  0.0000E+00
     223-
 mid.  surface     3.0263E-05  3.0263E-05  3.0263E-05  0.0000E+00  0.0000E+00  0.0000E+00  0.0000E+00
     224-
 mid.  surface     2.0005E-05  2.0005E-05  2.0005E-05  0.0000E+00  0.0000E+00  0.0000E+00  0.0000E+00
     225-
 mid.  surface    -2.1669E-05 -2.1669E-05 -2.1669E-05  0.0000E+00  0.0000E+00  0.0000E+00  0.0000E+00
     226-
 mid.  surface     2.0005E-05  2.0005E-05  2.0005E-05  0.0000E+00  0.0000E+00  0.0000E+00  0.0000E+00



 n o d a l  s t r a i n  c a l c u l a t i o n s   f o r   t i m e  s t e p        1   ( at time 0.00000E+00 )

 node (global)
          strain       eps-xx      eps-yy      eps-zz      eps-xy      eps-yz      eps-zx       
      94-
 mid.  surface     0.0000E+00  0.0000E+00  0.0000E+00  0.0000E+00  0.0000E+00  0.0000E+00
      98-
 mid.  surface     0.0000E+00  0.0000E+00  0.0000E+00  0.0000E+00  0.0000E+00  0.0000E+00
     100-
 mid.  surface     0.0000E+00  0.0000E+00  0.0000E+00  0.0000E+00  0.0000E+00  0.0000E+00
     101-
 mid.  surface     0.0000E+00  0.0000E+00  0.0000E+00  0.0000E+00  0.0000E+00  0.0000E+00
     104-
 mid.  surface     0.0000E+00  0.0000E+00  0.0000E+00  0.0000E+00  0.0000E+00  0.0000E+00
     105-
 mid.  surface     0.0000E+00  0.0000E+00  0.0000E+00  0.0000E+00  0.0000E+00  0.0000E+00
     108-
 mid.  surface     0.0000E+00  0.0000E+00  0.0000E+00  0.0000E+00  0.0000E+00  0.0000E+00
     109-
 mid.  surface     0.0000E+00  0.0000E+00  0.0000E+00  0.0000E+00  0.0000E+00  0.0000E+00
     112-
 mid.  surface     0.0000E+00  0.0000E+00  0.0000E+00  0.0000E+00  0.0000E+00  0.0000E+00
     113-
 mid.  surface     0.0000E+00  0.0000E+00  0.0000E+00  0.0000E+00  0.0000E+00  0.0000E+00
     131-
 mid.  surface     0.0000E+00  0.0000E+00  0.0000E+00  0.0000E+00  0.0000E+00  0.0000E+00
     134-
 mid.  surface     0.0000E+00  0.0000E+00  0.0000E+00  0.0000E+00  0.0000E+00  0.0000E+00
     135-
 mid.  surface     0.0000E+00  0.0000E+00  0.0000E+00  0.0000E+00  0.0000E+00  0.0000E+00
     138-
 mid.  surface     0.0000E+00  0.0000E+00  0.0000E+00  0.0000E+00  0.0000E+00  0.0000E+00
     139-
 mid.  surface     0.0000E+00  0.0000E+00  0.0000E+00  0.0000E+00  0.0000E+00  0.0000E+00
     142-
 mid.  surface     0.0000E+00  0.0000E+00  0.0000E+00  0.0000E+00  0.0000E+00  0.0000E+00
     143-
 mid.  surface     0.0000E+00  0.0000E+00  0.0000E+00  0.0000E+00  0.0000E+00  0.0000E+00
     146-
 mid.  surface     0.0000E+00  0.0000E+00  0.0000E+00  0.0000E+00  0.0000E+00  0.0000E+00
     155-
 mid.  surface     0.0000E+00  0.0000E+00  0.0000E+00  0.0000E+00  0.0000E+00  0.0000E+00
     156-
 mid.  surface     0.0000E+00  0.0000E+00  0.0000E+00  0.0000E+00  0.0000E+00  0.0000E+00
     157-
 mid.  surface     0.0000E+00  0.0000E+00  0.0000E+00  0.0000E+00  0.0000E+00  0.0000E+00
     158-
 mid.  surface     0.0000E+00  0.0000E+00  0.0000E+00  0.0000E+00  0.0000E+00  0.0000E+00
     159-
 mid.  surface     0.0000E+00  0.0000E+00  0.0000E+00  0.0000E+00  0.0000E+00  0.0000E+00
     160-
 mid.  surface     0.0000E+00  0.0000E+00  0.0000E+00  0.0000E+00  0.0000E+00  0.0000E+00
     161-
 mid.  surface     0.0000E+00  0.0000E+00  0.0000E+00  0.0000E+00  0.0000E+00  0.0000E+00
     162-
 mid.  surface     0.0000E+00  0.0000E+00  0.0000E+00  0.0000E+00  0.0000E+00  0.0000E+00
     163-
 mid.  surface     0.0000E+00  0.0000E+00  0.0000E+00  0.0000E+00  0.0000E+00  0.0000E+00
     164-
 mid.  surface     0.0000E+00  0.0000E+00  0.0000E+00  0.0000E+00  0.0000E+00  0.0000E+00
     165-
 mid.  surface     0.0000E+00  0.0000E+00  0.0000E+00  0.0000E+00  0.0000E+00  0.0000E+00
     166-
 mid.  surface     0.0000E+00  0.0000E+00  0.0000E+00  0.0000E+00  0.0000E+00  0.0000E+00
     167-
 mid.  surface     0.0000E+00  0.0000E+00  0.0000E+00  0.0000E+00  0.0000E+00  0.0000E+00
     168-
 mid.  surface     0.0000E+00  0.0000E+00  0.0000E+00  0.0000E+00  0.0000E+00  0.0000E+00
     169-
 mid.  surface     0.0000E+00  0.0000E+00  0.0000E+00  0.0000E+00  0.0000E+00  0.0000E+00
     170-
 mid.  surface     0.0000E+00  0.0000E+00  0.0000E+00  0.0000E+00  0.0000E+00  0.0000E+00
     187-
 mid.  surface     0.0000E+00  0.0000E+00  0.0000E+00  0.0000E+00  0.0000E+00  0.0000E+00
     188-
 mid.  surface     0.0000E+00  0.0000E+00  0.0000E+00  0.0000E+00  0.0000E+00  0.0000E+00
     195-
 mid.  surface     0.0000E+00  0.0000E+00  0.0000E+00  0.0000E+00  0.0000E+00  0.0000E+00
     196-
 mid.  surface     0.0000E+00  0.0000E+00  0.0000E+00  0.0000E+00  0.0000E+00  0.0000E+00
     197-
 mid.  surface     0.0000E+00  0.0000E+00  0.0000E+00  0.0000E+00  0.0000E+00  0.0000E+00
     198-
 mid.  surface     0.0000E+00  0.0000E+00  0.0000E+00  0.0000E+00  0.0000E+00  0.0000E+00
     199-
 mid.  surface     0.0000E+00  0.0000E+00  0.0000E+00  0.0000E+00  0.0000E+00  0.0000E+00
     200-
 mid.  surface     0.0000E+00  0.0000E+00  0.0000E+00  0.0000E+00  0.0000E+00  0.0000E+00
     201-
 mid.  surface     0.0000E+00  0.0000E+00  0.0000E+00  0.0000E+00  0.0000E+00  0.0000E+00
     202-
 mid.  surface     0.0000E+00  0.0000E+00  0.0000E+00  0.0000E+00  0.0000E+00  0.0000E+00
     219-
 mid.  surface     0.0000E+00  0.0000E+00  0.0000E+00  0.0000E+00  0.0000E+00  0.0000E+00
     220-
 mid.  surface     0.0000E+00  0.0000E+00  0.0000E+00  0.0000E+00  0.0000E+00  0.0000E+00
     221-
 mid.  surface     0.0000E+00  0.0000E+00  0.0000E+00  0.0000E+00  0.0000E+00  0.0000E+00
     222-
 mid.  surface     0.0000E+00  0.0000E+00  0.0000E+00  0.0000E+00  0.0000E+00  0.0000E+00
     223-
 mid.  surface     0.0000E+00  0.0000E+00  0.0000E+00  0.0000E+00  0.0000E+00  0.0000E+00
     224-
 mid.  surface     0.0000E+00  0.0000E+00  0.0000E+00  0.0000E+00  0.0000E+00  0.0000E+00
     225-
 mid.  surface     0.0000E+00  0.0000E+00  0.0000E+00  0.0000E+00  0.0000E+00  0.0000E+00
     226-
 mid.  surface     0.0000E+00  0.0000E+00  0.0000E+00  0.0000E+00  0.0000E+00  0.0000E+00



 n o d a l  s t r e s s  c a l c u l a t i o n s   f o r   t i m e  s t e p        6   ( at time 2.50000E+00 )

 node (global)
          stress       sig-xx      sig-yy      sig-zz      sig-xy      sig-yz      sig-zx       plastic
                                                                                                 strain 
      94-
 mid.  surface    -4.6947E+06 -4.5643E+06 -9.9955E+06 -3.5914E+05 -2.1943E+06 -2.3717E+06  0.0000E+00
      98-
 mid.  surface    -4.6754E+06 -4.5440E+06 -9.9833E+06 -3.6549E+05  7.9716E+05  6.6749E+05  0.0000E+00
     100-
 mid.  surface    -4.2858E+06 -4.3294E+06 -1.2256E+07  1.8926E+05 -5.2454E+05 -1.1619E+06  0.0000E+00
     101-
 mid.  surface    -4.1532E+06 -3.9157E+06 -1.1974E+07  1.8600E+05 -1.2817E+06 -5.4688E+05  0.0000E+00
     104-
 mid.  surface    -4.2481E+06 -4.2936E+06 -1.2233E+07  1.8178E+05  2.8746E+06  1.2736E+06  0.0000E+00
     105-
 mid.  surface    -4.1139E+06 -3.8785E+06 -1.1950E+07  1.7925E+05  2.3981E+06  2.0257E+06  0.0000E+00
     108-
 mid.  surface    -4.1272E+06 -4.1579E+06 -1.2076E+07  1.7297E+05  2.5346E+05 -9.8194E+05  0.0000E+00
     109-
 mid.  surface    -3.9731E+06 -3.7452E+06 -1.1730E+07  1.6402E+05 -8.3317E+05 -2.5673E+04  0.0000E+00
     112-
 mid.  surface    -4.0687E+06 -4.1013E+06 -1.2039E+07  1.6314E+05  3.3023E+06  1.1621E+06  0.0000E+00
     113-
 mid.  surface    -3.9106E+06 -3.6861E+06 -1.1691E+07  1.5612E+05  2.5639E+06  2.2911E+06  0.0000E+00
     131-
 mid.  surface    -4.5608E+06 -4.5864E+06 -1.3139E+07  9.4733E+04 -2.6963E+06 -2.2500E+06  0.0000E+00
     134-
 mid.  surface    -4.4403E+06 -4.1876E+06 -1.2879E+07  9.8868E+04 -2.7522E+06 -2.0233E+06  0.0000E+00
     135-
 mid.  surface    -4.5235E+06 -4.5537E+06 -1.3116E+07  8.8697E+04  5.3361E+05  3.7515E+05  0.0000E+00
     138-
 mid.  surface    -4.4000E+06 -4.1515E+06 -1.2854E+07  9.3927E+04  8.0704E+05  8.0897E+05  0.0000E+00
     139-
 mid.  surface    -4.3504E+06 -4.3787E+06 -1.2846E+07  8.7678E+04 -3.0822E+06 -2.5566E+06  0.0000E+00
     142-
 mid.  surface    -4.2070E+06 -3.9781E+06 -1.2523E+07  8.6579E+04 -3.1349E+06 -2.2058E+06  0.0000E+00
     143-
 mid.  surface    -4.2932E+06 -4.3233E+06 -1.2809E+07  7.9228E+04 -1.7596E+05 -2.5299E+05  0.0000E+00
     146-
 mid.  surface    -4.1448E+06 -3.9193E+06 -1.2483E+07  8.0006E+04  1.5489E+05  3.4115E+05  0.0000E+00
     155-
 mid.  surface    -4.3195E+06 -3.8283E+06 -1.0388E+07  4.3852E+04  1.3393E+05 -1.0457E+06  0.0000E+00
     156-
 mid.  surface    -4.8020E+06 -4.0482E+06 -1.1876E+07  1.7380E+05  2.4744E+06 -7.8485E+04  0.0000E+00
     157-
 mid.  surface    -4.5339E+06 -4.5925E+06 -1.3913E+07  6.5192E+05  3.6669E+04 -7.5262E+05  0.0000E+00
     158-
 mid.  surface    -3.5909E+06 -4.0910E+06 -1.2229E+07  6.0616E+05 -5.2101E+05 -5.6488E+05  0.0000E+00
     159-
 mid.  surface    -4.2938E+06 -3.7999E+06 -1.0371E+07  4.0534E+04  1.5555E+05  8.9548E+05  0.0000E+00
     160-
 mid.  surface    -4.7719E+06 -4.0139E+06 -1.1855E+07  1.7276E+05 -4.1729E+05  1.0324E+06  0.0000E+00
     161-
 mid.  surface    -4.5009E+06 -4.5576E+06 -1.3891E+07  6.5116E+05 -2.8696E+06 -2.5485E+05  0.0000E+00
     162-
 mid.  surface    -3.5604E+06 -4.0601E+06 -1.2209E+07  6.0329E+05 -6.1572E+05  1.2694E+04  0.0000E+00
     163-
 mid.  surface    -3.8060E+06 -3.8788E+06 -8.9964E+06 -2.5195E+05  3.0424E+05 -2.2800E+06  0.0000E+00
     164-
 mid.  surface    -4.6881E+06 -3.9700E+06 -1.1796E+07  1.6843E+05  3.7405E+06  5.6304E+05  0.0000E+00
     165-
 mid.  surface    -4.4397E+06 -4.4944E+06 -1.3748E+07  6.2596E+05 -1.8702E+06 -1.3978E+06  0.0000E+00
     166-
 mid.  surface    -3.5148E+06 -4.3603E+06 -1.0846E+07  2.0114E+05 -1.0381E+06 -2.2405E+05  0.0000E+00
     167-
 mid.  surface    -3.7431E+06 -3.8140E+06 -8.9548E+06 -2.5949E+05  2.3550E+05 -9.0592E+05  0.0000E+00
     168-
 mid.  surface    -4.6196E+06 -3.8960E+06 -1.1749E+07  1.6476E+05  9.8632E+05  1.6252E+06  0.0000E+00
     169-
 mid.  surface    -4.3630E+06 -4.4180E+06 -1.3699E+07  6.2369E+05 -4.6384E+06 -9.2051E+05  0.0000E+00
     170-
 mid.  surface    -3.4418E+06 -4.2900E+06 -1.0800E+07  1.9570E+05 -1.1743E+06  4.1788E+05  0.0000E+00
     187-
 mid.  surface    -3.6491E+06 -4.6878E+06 -1.1910E+07  2.8427E+05 -1.0144E+06 -2.7763E+05  0.0000E+00
     188-
 mid.  surface    -3.6232E+06 -4.6641E+06 -1.1895E+07  2.7839E+05  1.6119E+06  5.3525E+05  0.0000E+00
     195-
 mid.  surface    -3.4717E+06 -3.6704E+06 -1.1340E+07  2.2625E+05 -9.2985E+05  1.9046E+05  0.0000E+00
     196-
 mid.  surface    -4.4445E+06 -4.5868E+06 -1.2978E+07  1.6653E+05 -3.5003E+05  1.4854E+06  0.0000E+00
     197-
 mid.  surface    -5.0713E+06 -5.0696E+06 -1.4214E+07  1.9915E+05 -1.7975E+05  2.1272E+06  0.0000E+00
     198-
 mid.  surface    -4.0856E+06 -4.1431E+06 -1.2531E+07  2.4659E+05 -9.4824E+05  1.5885E+05  0.0000E+00
     199-
 mid.  surface    -3.4669E+06 -3.6573E+06 -1.1335E+07  2.2265E+05  6.3636E+05 -4.1460E+05  0.0000E+00
     200-
 mid.  surface    -4.4400E+06 -4.5763E+06 -1.2974E+07  1.6084E+05  9.6672E+03 -2.3216E+06  0.0000E+00
     201-
 mid.  surface    -5.0687E+06 -5.0651E+06 -1.4212E+07  1.9294E+05  2.1669E+05 -1.6843E+06  0.0000E+00
     202-
 mid.  surface    -4.0815E+06 -4.1346E+06 -1.2528E+07  2.4295E+05  7.5057E+05 -5.1671E+05  0.0000E+00
     219-
 mid.  surface    -3.1465E+06 -3.2341E+06 -1.0734E+07  1.6285E+05 -1.1854E+06 -2.2360E+05  0.0000E+00
     220-
 mid.  surface    -3.8967E+06 -3.9771E+06 -1.2093E+07  1.1933E+05 -9.2357E+05 -4.2034E+05  0.0000E+00
     221-
 mid.  surface    -4.3314E+06 -4.3291E+06 -1.2973E+07  1.3189E+05 -3.1631E+04  2.6656E+06  0.0000E+00
     222-
 mid.  surface    -3.6063E+06 -3.6127E+06 -1.1654E+07  1.6811E+05 -8.9897E+05 -3.5329E+05  0.0000E+00
     223-
 mid.  surface    -3.0831E+06 -3.1678E+06 -1.0691E+07  1.4549E+05 -9.0531E+04 -8.8478E+05  0.0000E+00
     224-
 mid.  surface    -3.8549E+06 -3.9159E+06 -1.2060E+07  1.0454E+05 -7.0423E+05 -3.4028E+06  0.0000E+00
     225-
 mid.  surface    -4.2980E+06 -4.2721E+06 -1.2943E+07  1.2602E+05  1.8859E+05 -3.1234E+05  0.0000E+00
     226-
 mid.  surface    -3.5622E+06 -3.5564E+06 -1.1621E+07  1.5895E+05  2.6888E+05 -1.0511E+06  0.0000E+00



 n o d a l  s t r a i n  c a l c u l a t i o n s   f o r   t i m e  s t e p        6   ( at time 2.50000E+00 )

 node (global)
          strain       eps-xx      eps-yy      eps-zz      eps-xy      eps-yz      eps-zx       
      94-
 mid.  surface     2.4549E-06  4.9427E-06 -9.8709E-05 -6.8531E-06 -4.1878E-05 -4.5263E-05
      98-
 mid.  surface     2.5737E-06  5.0826E-06 -9.8722E-05 -6.9744E-06  1.5216E-05  1.2741E-05
     100-
 mid.  surface     1.7987E-05  1.7154E-05 -1.3412E-04  3.6103E-06 -1.0013E-05 -2.2175E-05
     101-
 mid.  surface     1.6555E-05  2.1087E-05 -1.3269E-04  3.5487E-06 -2.4463E-05 -1.0439E-05
     104-
 mid.  surface     1.8243E-05  1.7372E-05 -1.3414E-04  3.4670E-06  5.4859E-05  2.4307E-05
     105-
 mid.  surface     1.6821E-05  2.1313E-05 -1.3271E-04  3.4193E-06  4.5766E-05  3.8659E-05
     108-
 mid.  surface     1.8572E-05  1.7986E-05 -1.3311E-04  3.2997E-06  4.8332E-06 -1.8740E-05
     109-
 mid.  surface     1.7152E-05  2.1502E-05 -1.3088E-04  3.1297E-06 -1.5903E-05 -4.9234E-07
     112-
 mid.  surface     1.8959E-05  1.8334E-05 -1.3314E-04  3.1112E-06  6.3021E-05  2.2179E-05
     113-
 mid.  surface     1.7574E-05  2.1857E-05 -1.3090E-04  2.9781E-06  4.8930E-05  4.3724E-05
     131-
 mid.  surface     1.9501E-05  1.9011E-05 -1.4421E-04  1.8081E-06 -5.1457E-05 -4.2939E-05
     134-
 mid.  surface     1.8074E-05  2.2900E-05 -1.4298E-04  1.8873E-06 -5.2524E-05 -3.8615E-05
     135-
 mid.  surface     1.9772E-05  1.9194E-05 -1.4422E-04  1.6925E-06  1.0188E-05  7.1629E-06
     138-
 mid.  surface     1.8363E-05  2.3106E-05 -1.4298E-04  1.7925E-06  1.5406E-05  1.5441E-05
     139-
 mid.  surface     2.0116E-05  1.9574E-05 -1.4202E-04  1.6744E-06 -5.8820E-05 -4.8791E-05
     142-
 mid.  surface     1.8708E-05  2.3081E-05 -1.4001E-04  1.6534E-06 -5.9826E-05 -4.2095E-05
     143-
 mid.  surface     2.0496E-05  1.9919E-05 -1.4202E-04  1.5126E-06 -3.3530E-06 -4.8241E-06
     146-
 mid.  surface     1.9129E-05  2.3438E-05 -1.4001E-04  1.5273E-06  2.9610E-06  6.5138E-06
     155-
 mid.  surface     6.1773E-06  1.5552E-05 -1.0963E-04  8.3695E-07  2.5568E-06 -1.9956E-05
     156-
 mid.  surface     7.4384E-06  2.1826E-05 -1.2756E-04  3.3162E-06  4.7223E-05 -1.4976E-06
     157-
 mid.  surface     2.3616E-05  2.2497E-05 -1.5537E-04  1.2441E-05  7.0366E-07 -1.4362E-05
     158-
 mid.  surface     2.6654E-05  1.7109E-05 -1.3819E-04  1.1568E-05 -9.9412E-06 -1.0779E-05
     159-
 mid.  surface     6.3261E-06  1.5752E-05 -1.0965E-04  7.7326E-07  2.9671E-06  1.7090E-05
     160-
 mid.  surface     7.6073E-06  2.2073E-05 -1.2757E-04  3.2963E-06 -7.9685E-06  1.9700E-05
     161-
 mid.  surface     2.3816E-05  2.2733E-05 -1.5539E-04  1.2427E-05 -5.4762E-05 -4.8632E-06
     162-
 mid.  surface     2.6849E-05  1.7310E-05 -1.3820E-04  1.1513E-05 -1.1750E-05  2.4227E-07
     163-
 mid.  surface     7.1100E-06  5.7291E-06 -9.1947E-05 -4.8067E-06  5.8065E-06 -4.3509E-05
     164-
 mid.  surface     8.3096E-06  2.2015E-05 -1.2733E-04  3.2117E-06  7.1385E-05  1.0745E-05
     165-
 mid.  surface     2.3711E-05  2.2661E-05 -1.5394E-04  1.1945E-05 -3.5684E-05 -2.6673E-05
     166-
 mid.  surface     2.2424E-05  6.2890E-06 -1.1749E-04  3.8428E-06 -1.9808E-05 -4.2753E-06
     167-
 mid.  surface     7.5006E-06  6.1534E-06 -9.1961E-05 -4.9514E-06  4.4926E-06 -1.7286E-05
     168-
 mid.  surface     8.7131E-06  2.2522E-05 -1.2733E-04  3.1415E-06  1.8817E-05  3.1013E-05
     169-
 mid.  surface     2.4201E-05  2.3144E-05 -1.5396E-04  1.1902E-05 -8.8516E-05 -1.7566E-05
     170-
 mid.  surface     2.2907E-05  6.7191E-06 -1.1751E-04  3.7383E-06 -2.2410E-05  7.9742E-06
     187-
 mid.  surface     2.7154E-05  7.3325E-06 -1.3050E-04  5.4254E-06 -1.9360E-05 -5.2978E-06
     188-
 mid.  surface     2.7335E-05  7.4711E-06 -1.3053E-04  5.3128E-06  3.0761E-05  1.0214E-05
     195-
 mid.  surface     2.2097E-05  1.8309E-05 -1.2806E-04  4.3179E-06 -1.7746E-05  3.6351E-06
     196-
 mid.  surface     2.0398E-05  1.7682E-05 -1.4246E-04  3.1782E-06 -6.6798E-06  2.8350E-05
     197-
 mid.  surface     1.9647E-05  1.9678E-05 -1.5483E-04  3.8006E-06 -3.4304E-06  4.0599E-05
     198-
 mid.  surface     2.1268E-05  2.0174E-05 -1.3989E-04  4.7061E-06 -1.8097E-05  3.0320E-06
     199-
 mid.  surface     2.2079E-05  1.8450E-05 -1.2807E-04  4.2493E-06  1.2146E-05 -7.9121E-06
     200-
 mid.  surface     2.0394E-05  1.7790E-05 -1.4247E-04  3.0695E-06  1.8493E-07 -4.4308E-05
     201-
 mid.  surface     1.9656E-05  1.9723E-05 -1.5484E-04  3.6820E-06  4.1354E-06 -3.2147E-05
     202-
 mid.  surface     2.1270E-05  2.0260E-05 -1.3991E-04  4.6365E-06  1.4325E-05 -9.8607E-06
     219-
 mid.  surface     2.1767E-05  2.0096E-05 -1.2303E-04  3.1088E-06 -2.2621E-05 -4.2658E-06
     220-
 mid.  surface     2.1086E-05  1.9553E-05 -1.3532E-04  2.2777E-06 -1.7624E-05 -8.0166E-06
     221-
 mid.  surface     2.0756E-05  2.0801E-05 -1.4415E-04  2.5163E-06 -6.0357E-07  5.0872E-05
     222-
 mid.  surface     2.1400E-05  2.1278E-05 -1.3218E-04  3.2087E-06 -1.7156E-05 -6.7405E-06
     223-
 mid.  surface     2.2154E-05  2.0538E-05 -1.2304E-04  2.7774E-06 -1.7258E-06 -1.6884E-05
     224-
 mid.  surface     2.1231E-05  2.0066E-05 -1.3535E-04  1.9955E-06 -1.3438E-05 -6.4937E-05
     225-
 mid.  surface     2.0821E-05  2.1316E-05 -1.4417E-04  2.4042E-06  3.5990E-06 -5.9641E-06
     226-
 mid.  surface     2.1605E-05  2.1715E-05 -1.3220E-04  3.0336E-06  5.1328E-06 -2.0058E-05



 n o d a l  s t r e s s  c a l c u l a t i o n s   f o r   t i m e  s t e p       12   ( at time 6.46223E+00 )

 node (global)
          stress       sig-xx      sig-yy      sig-zz      sig-xy      sig-yz      sig-zx       plastic
                                                                                                 strain 
      94-
 mid.  surface    -1.2061E+07 -1.1965E+07 -2.5955E+07 -9.3040E+05 -5.6784E+06 -6.3616E+06  0.0000E+00
      98-
 mid.  surface    -1.2017E+07 -1.1919E+07 -2.5927E+07 -9.5018E+05  1.9813E+06  1.8556E+06  0.0000E+00
     100-
 mid.  surface    -1.0937E+07 -1.0960E+07 -3.1609E+07  5.1772E+05 -1.8420E+06 -3.5449E+06  0.0000E+00
     101-
 mid.  surface    -1.0755E+07 -1.0242E+07 -3.0857E+07  4.1218E+05 -3.2777E+06 -1.6047E+06  0.0000E+00
     104-
 mid.  surface    -1.0843E+07 -1.0871E+07 -3.1552E+07  4.9833E+05  7.6444E+06  3.6613E+06  0.0000E+00
     105-
 mid.  surface    -1.0658E+07 -1.0149E+07 -3.0798E+07  3.9434E+05  6.1064E+06  5.5338E+06  0.0000E+00
     108-
 mid.  surface    -1.0516E+07 -1.0519E+07 -3.1100E+07  4.6887E+05  1.5851E+05 -3.0580E+06  0.0000E+00
     109-
 mid.  surface    -1.0298E+07 -9.8162E+06 -3.0275E+07  3.6313E+05 -2.0723E+06 -1.8230E+05  0.0000E+00
     112-
 mid.  surface    -1.0367E+07 -1.0376E+07 -3.1007E+07  4.4368E+05  8.5680E+06  3.2489E+06  0.0000E+00
     113-
 mid.  surface    -1.0142E+07 -9.6681E+06 -3.0178E+07  3.4177E+05  6.3990E+06  6.1434E+06  0.0000E+00
     131-
 mid.  surface    -1.1699E+07 -1.1834E+07 -3.4034E+07  3.3838E+05 -7.0711E+06 -6.1864E+06  0.0000E+00
     134-
 mid.  surface    -1.1544E+07 -1.1153E+07 -3.3336E+07  2.5222E+05 -7.0573E+06 -5.5197E+06  0.0000E+00
     135-
 mid.  surface    -1.1601E+07 -1.1746E+07 -3.3971E+07  3.2330E+05  1.8650E+06  1.6270E+06  0.0000E+00
     138-
 mid.  surface    -1.1440E+07 -1.1057E+07 -3.3269E+07  2.3949E+05  1.9848E+06  2.3486E+06  0.0000E+00
     139-
 mid.  surface    -1.1144E+07 -1.1277E+07 -3.3204E+07  3.0946E+05 -7.8710E+06 -6.8101E+06  0.0000E+00
     142-
 mid.  surface    -1.0951E+07 -1.0604E+07 -3.2434E+07  2.2371E+05 -7.9316E+06 -5.8955E+06  0.0000E+00
     143-
 mid.  surface    -1.0993E+07 -1.1127E+07 -3.3102E+07  2.8858E+05  6.8828E+04  1.4384E+04  0.0000E+00
     146-
 mid.  surface    -1.0790E+07 -1.0450E+07 -3.2327E+07  2.0645E+05  2.4015E+05  1.0675E+06  0.0000E+00
     155-
 mid.  surface    -1.1145E+07 -1.0094E+07 -2.7022E+07  6.5500E+04  8.6364E+05 -2.9095E+06  0.0000E+00
     156-
 mid.  surface    -1.2848E+07 -1.0814E+07 -3.2063E+07  3.7102E+05  8.2818E+06 -4.8334E+05  0.0000E+00
     157-
 mid.  surface    -1.1785E+07 -1.1664E+07 -3.6118E+07  1.8573E+06  5.9911E+05 -2.0601E+06  0.0000E+00
     158-
 mid.  surface    -8.9597E+06 -1.0276E+07 -3.0678E+07  1.6893E+06 -1.1403E+06 -1.8158E+06  0.0000E+00
     159-
 mid.  surface    -1.1083E+07 -1.0024E+07 -2.6982E+07  5.3637E+04  2.7162E+05  2.4864E+06  0.0000E+00
     160-
 mid.  surface    -1.2768E+07 -1.0720E+07 -3.2007E+07  3.6537E+05 -1.5122E+06  2.7100E+06  0.0000E+00
     161-
 mid.  surface    -1.1700E+07 -1.1574E+07 -3.6065E+07  1.8534E+06 -9.2351E+06 -3.0351E+05  0.0000E+00
     162-
 mid.  surface    -8.8823E+06 -1.0197E+07 -3.0630E+07  1.6803E+06 -2.0158E+06  2.9899E+05  0.0000E+00
     163-
 mid.  surface    -9.5780E+06 -1.0161E+07 -2.2839E+07 -6.5635E+05  1.5905E+06 -6.1305E+06  0.0000E+00
     164-
 mid.  surface    -1.2524E+07 -1.0612E+07 -3.1792E+07  3.5842E+05  1.2370E+07  1.0367E+06  0.0000E+00
     165-
 mid.  surface    -1.1533E+07 -1.1414E+07 -3.5615E+07  1.7635E+06 -5.2452E+06 -3.5388E+06  0.0000E+00
     166-
 mid.  surface    -8.4479E+06 -1.0828E+07 -2.6341E+07  7.3681E+05 -2.6192E+06 -1.5637E+06  0.0000E+00
     167-
 mid.  surface    -9.4214E+06 -9.9965E+06 -2.2737E+07 -6.8327E+05  7.7429E+05 -2.1376E+06  0.0000E+00
     168-
 mid.  surface    -1.2343E+07 -1.0405E+07 -3.1663E+07  3.4360E+05  3.1260E+06  4.0595E+06  0.0000E+00
     169-
 mid.  surface    -1.1335E+07 -1.1213E+07 -3.5492E+07  1.7542E+06 -1.4528E+07 -1.8704E+06  0.0000E+00
     170-
 mid.  surface    -8.2617E+06 -1.0647E+07 -2.6224E+07  7.1873E+05 -3.6046E+06  6.1599E+05  0.0000E+00
     187-
 mid.  surface    -9.1355E+06 -1.1855E+07 -2.9938E+07  8.2432E+05 -2.5392E+06 -1.3424E+06  0.0000E+00
     188-
 mid.  surface    -9.0730E+06 -1.1799E+07 -2.9903E+07  8.0706E+05  4.2374E+06  1.5040E+06  0.0000E+00
     195-
 mid.  surface    -8.7589E+06 -9.2519E+06 -2.9007E+07  6.5355E+05 -3.0646E+06 -4.6679E+05  0.0000E+00
     196-
 mid.  surface    -1.1806E+07 -1.2054E+07 -3.3945E+07  4.5785E+05 -1.1204E+06  3.7778E+06  0.0000E+00
     197-
 mid.  surface    -1.3508E+07 -1.3341E+07 -3.7227E+07  5.7262E+05 -6.8103E+05  5.3776E+06  0.0000E+00
     198-
 mid.  surface    -1.0410E+07 -1.0501E+07 -3.2156E+07  7.3831E+05 -3.2031E+06 -8.6896E+05  0.0000E+00
     199-
 mid.  surface    -8.7440E+06 -9.2187E+06 -2.8994E+07  6.4249E+05  2.2962E+06  2.4614E+05  0.0000E+00
     200-
 mid.  surface    -1.1796E+07 -1.2029E+07 -3.3936E+07  4.4174E+05  3.4043E+05 -5.8630E+06  0.0000E+00
     201-
 mid.  surface    -1.3501E+07 -1.3327E+07 -3.7223E+07  5.5740E+05  7.9214E+05 -4.2512E+06  0.0000E+00
     202-
 mid.  surface    -1.0400E+07 -1.0477E+07 -3.2148E+07  7.2879E+05  2.4910E+06 -3.3126E+05  0.0000E+00
     219-
 mid.  surface    -7.9903E+06 -8.1980E+06 -2.7569E+07  4.7002E+05 -3.5561E+06 -6.3446E+05  0.0000E+00
     220-
 mid.  surface    -1.0396E+07 -1.0503E+07 -3.1767E+07  3.4265E+05 -2.3628E+06 -1.0009E+06  0.0000E+00
     221-
 mid.  surface    -1.1481E+07 -1.1359E+07 -3.3903E+07  4.0627E+05 -2.5346E+05  6.5338E+06  0.0000E+00
     222-
 mid.  surface    -9.1487E+06 -9.1320E+06 -2.9829E+07  5.1404E+05 -3.4619E+06 -2.6881E+06  0.0000E+00
     223-
 mid.  surface    -7.8405E+06 -8.0163E+06 -2.7462E+07  4.2616E+05  3.2237E+05 -3.4017E+05  0.0000E+00
     224-
 mid.  surface    -1.0289E+07 -1.0347E+07 -3.1684E+07  2.9202E+05 -1.3588E+06 -8.3345E+06  0.0000E+00
     225-
 mid.  surface    -1.1390E+07 -1.1223E+07 -3.3830E+07  3.6817E+05  7.4602E+05 -7.8592E+05  0.0000E+00
     226-
 mid.  surface    -9.0305E+06 -8.9774E+06 -2.9741E+07  4.8293E+05  6.4989E+05 -2.5142E+06  0.0000E+00



 n o d a l  s t r a i n  c a l c u l a t i o n s   f o r   t i m e  s t e p       12   ( at time 6.46223E+00 )

 node (global)
          strain       eps-xx      eps-yy      eps-zz      eps-xy      eps-yz      eps-zx       
      94-
 mid.  surface     8.7763E-06  1.0594E-05 -2.5639E-04 -1.7754E-05 -1.0836E-04 -1.2140E-04
      98-
 mid.  surface     9.0463E-06  1.0921E-05 -2.5642E-04 -1.8132E-05  3.7815E-05  3.5415E-05
     100-
 mid.  surface     4.7072E-05  4.6637E-05 -3.4744E-04  9.8820E-06 -3.5135E-05 -6.7641E-05
     101-
 mid.  surface     4.2646E-05  5.2436E-05 -3.4097E-04  7.8664E-06 -6.2541E-05 -3.0619E-05
     104-
 mid.  surface     4.7714E-05  4.7187E-05 -3.4750E-04  9.5118E-06  1.4590E-04  6.9879E-05
     105-
 mid.  surface     4.3300E-05  5.3009E-05 -3.4103E-04  7.5222E-06  1.1652E-04  1.0560E-04
     108-
 mid.  surface     4.8557E-05  4.8483E-05 -3.4426E-04  8.9491E-06  3.0446E-06 -5.8352E-05
     109-
 mid.  surface     4.4370E-05  5.3556E-05 -3.3687E-04  6.9300E-06 -3.9535E-05 -3.4746E-06
     112-
 mid.  surface     4.9543E-05  4.9381E-05 -3.4434E-04  8.4689E-06  1.6353E-04  6.2007E-05
     113-
 mid.  surface     4.5417E-05  5.4463E-05 -3.3694E-04  6.5197E-06  1.2210E-04  1.1723E-04
     131-
 mid.  surface     5.1939E-05  4.9348E-05 -3.7432E-04  6.4604E-06 -1.3493E-04 -1.1805E-04
     134-
 mid.  surface     4.7547E-05  5.5021E-05 -3.6832E-04  4.8109E-06 -1.3469E-04 -1.0535E-04
     135-
 mid.  surface     5.2625E-05  4.9858E-05 -3.7428E-04  6.1678E-06  3.5580E-05  3.1043E-05
     138-
 mid.  surface     4.8270E-05  5.5580E-05 -3.6830E-04  4.5644E-06  3.7842E-05  4.4802E-05
     139-
 mid.  surface     5.3235E-05  5.0701E-05 -3.6776E-04  5.9084E-06 -1.5020E-04 -1.2996E-04
     142-
 mid.  surface     4.9099E-05  5.5714E-05 -3.6088E-04  4.2676E-06 -1.5138E-04 -1.1252E-04
     143-
 mid.  surface     5.4217E-05  5.1649E-05 -3.6772E-04  5.5058E-06  1.3003E-06  2.7028E-07
     146-
 mid.  surface     5.0168E-05  5.6668E-05 -3.6084E-04  3.9355E-06  4.5438E-06  2.0358E-05
     155-
 mid.  surface     1.8030E-05  3.8087E-05 -2.8497E-04  1.2499E-06  1.6481E-05 -5.5523E-05
     156-
 mid.  surface     2.1208E-05  6.0015E-05 -3.4550E-04  7.0802E-06  1.5805E-04 -9.2242E-06
     157-
 mid.  surface     5.9861E-05  6.2173E-05 -4.0449E-04  3.5445E-05  1.1437E-05 -3.9315E-05
     158-
 mid.  surface     6.7630E-05  4.2518E-05 -3.4684E-04  3.2238E-05 -2.1764E-05 -3.4654E-05
     159-
 mid.  surface     1.8384E-05  3.8594E-05 -2.8504E-04  1.0228E-06  5.1805E-06  4.7450E-05
     160-
 mid.  surface     2.1630E-05  6.0717E-05 -3.4551E-04  6.9726E-06 -2.8856E-05  5.1717E-05
     161-
 mid.  surface     6.0381E-05  6.2787E-05 -4.0459E-04  3.5372E-05 -1.7623E-04 -5.7921E-06
     162-
 mid.  surface     6.8127E-05  4.3032E-05 -3.4690E-04  3.2065E-05 -3.8472E-05  5.7019E-06
     163-
 mid.  surface     2.0759E-05  9.6463E-06 -2.3231E-04 -1.2527E-05  3.0350E-05 -1.1700E-04
     164-
 mid.  surface     2.3570E-05  6.0059E-05 -3.4414E-04  6.8390E-06  2.3607E-04  1.9781E-05
     165-
 mid.  surface     5.9884E-05  6.2151E-05 -3.9970E-04  3.3654E-05 -1.0010E-04 -6.7530E-05
     166-
 mid.  surface     5.6864E-05  1.1443E-05 -2.8462E-04  1.4063E-05 -4.9984E-05 -2.9846E-05
     167-
 mid.  surface     2.1720E-05  1.0751E-05 -2.3239E-04 -1.3040E-05  1.4775E-05 -4.0796E-05
     168-
 mid.  surface     2.4568E-05  6.1547E-05 -3.4413E-04  6.5557E-06  5.9657E-05  7.7475E-05
     169-
 mid.  surface     6.1137E-05  6.3452E-05 -3.9987E-04  3.3477E-05 -2.7724E-04 -3.5683E-05
     170-
 mid.  surface     5.8097E-05  1.2574E-05 -2.8470E-04  1.3719E-05 -6.8789E-05  1.1759E-05
     187-
 mid.  surface     6.9133E-05  1.7230E-05 -3.2787E-04  1.5732E-05 -4.8456E-05 -2.5615E-05
     188-
 mid.  surface     6.9582E-05  1.7554E-05 -3.2794E-04  1.5401E-05  8.0864E-05  2.8699E-05
     195-
 mid.  surface     5.7617E-05  4.8210E-05 -3.2881E-04  1.2473E-05 -5.8477E-05 -8.9062E-06
     196-
 mid.  surface     5.1035E-05  4.6308E-05 -3.7146E-04  8.7363E-06 -2.1378E-05  7.2097E-05
     197-
 mid.  surface     4.8541E-05  5.1714E-05 -4.0411E-04  1.0927E-05 -1.3001E-05  1.0263E-04
     198-
 mid.  surface     5.5021E-05  5.3297E-05 -3.5998E-04  1.4091E-05 -6.1123E-05 -1.6582E-05
     199-
 mid.  surface     5.7608E-05  4.8549E-05 -3.2884E-04  1.2262E-05  4.3825E-05  4.6976E-06
     200-
 mid.  surface     5.1018E-05  4.6571E-05 -3.7151E-04  8.4290E-06  6.4922E-06 -1.1189E-04
     201-
 mid.  surface     4.8538E-05  5.1871E-05 -4.0415E-04  1.0637E-05  1.5105E-05 -8.1133E-05
     202-
 mid.  surface     5.5011E-05  5.3547E-05 -3.6002E-04  1.3909E-05  4.7534E-05 -6.3235E-06
     219-
 mid.  surface     5.6699E-05  5.2736E-05 -3.1695E-04  8.9707E-06 -6.7864E-05 -1.2108E-05
     220-
 mid.  surface     5.3380E-05  5.1342E-05 -3.5446E-04  6.5386E-06 -4.5091E-05 -1.9099E-05
     221-
 mid.  surface     5.2154E-05  5.4497E-05 -3.7574E-04  7.7522E-06 -4.8364E-06  1.2469E-04
     222-
 mid.  surface     5.5401E-05  5.5717E-05 -3.3927E-04  9.8105E-06 -6.6067E-05 -5.1301E-05
     223-
 mid.  surface     5.7454E-05  5.4101E-05 -3.1699E-04  8.1329E-06  6.1521E-06 -6.4928E-06
     224-
 mid.  surface     5.3753E-05  5.2656E-05 -3.5454E-04  5.5729E-06 -2.5931E-05 -1.5905E-04
     225-
 mid.  surface     5.2462E-05  5.5647E-05 -3.7578E-04  7.0258E-06  1.4238E-05 -1.4996E-05
     226-
 mid.  surface     5.5927E-05  5.6941E-05 -3.3932E-04  9.2168E-06  1.2403E-05 -4.7981E-05



 n o d a l  s t r e s s  c a l c u l a t i o n s   f o r   t i m e  s t e p       18   ( at time 1.27419E+01 )

 node (global)
          stress       sig-xx      sig-yy      sig-zz      sig-xy      sig-yz      sig-zx       plastic
                                                                                                 strain 
      94-
 mid.  surface    -2.3902E+07 -2.3963E+07 -4.9281E+07 -2.2674E+06 -1.3340E+07 -1.5238E+07  0.0000E+00
      98-
 mid.  surface    -2.3834E+07 -2.3886E+07 -4.9239E+07 -2.3175E+06  4.6192E+06  4.5847E+06  0.0000E+00
     100-
 mid.  surface    -2.1386E+07 -2.1398E+07 -6.2310E+07  1.1259E+06 -4.7159E+06 -8.9600E+06  0.0000E+00
     101-
 mid.  surface    -2.1209E+07 -2.0207E+07 -6.0691E+07  7.7979E+05 -7.4639E+06 -3.8747E+06  0.0000E+00
     104-
 mid.  surface    -2.1216E+07 -2.1233E+07 -6.2214E+07  1.0861E+06  1.8630E+07  9.3465E+06  0.0000E+00
     105-
 mid.  surface    -2.1039E+07 -2.0034E+07 -6.0592E+07  7.4152E+05  1.4451E+07  1.3665E+07  0.0000E+00
     108-
 mid.  surface    -2.0578E+07 -2.0545E+07 -6.1310E+07  1.0203E+06  1.3669E+05 -7.6758E+06  0.0000E+00
     109-
 mid.  surface    -2.0296E+07 -1.9354E+07 -5.9524E+07  6.8529E+05 -4.5072E+06 -3.1977E+05  0.0000E+00
     112-
 mid.  surface    -2.0306E+07 -2.0274E+07 -6.1147E+07  9.6939E+05  2.0709E+07  8.2714E+06  0.0000E+00
     113-
 mid.  surface    -2.0017E+07 -1.9076E+07 -5.9356E+07  6.3997E+05  1.5131E+07  1.5121E+07  0.0000E+00
     131-
 mid.  surface    -2.3140E+07 -2.3581E+07 -6.7901E+07  7.8818E+05 -1.6706E+07 -1.4949E+07  0.0000E+00
     134-
 mid.  surface    -2.2996E+07 -2.2440E+07 -6.6345E+07  4.8061E+05 -1.6266E+07 -1.3227E+07  0.0000E+00
     135-
 mid.  surface    -2.2935E+07 -2.3388E+07 -6.7756E+07  7.6363E+05  5.2465E+06  4.8871E+06  0.0000E+00
     138-
 mid.  surface    -2.2783E+07 -2.2235E+07 -6.6196E+07  4.5977E+05  4.8416E+06  6.0308E+06  0.0000E+00
     139-
 mid.  surface    -2.2033E+07 -2.2451E+07 -6.6164E+07  7.1998E+05 -1.8249E+07 -1.6092E+07  0.0000E+00
     142-
 mid.  surface    -2.1781E+07 -2.1302E+07 -6.4449E+07  4.2591E+05 -1.8106E+07 -1.3931E+07  0.0000E+00
     143-
 mid.  surface    -2.1718E+07 -2.2126E+07 -6.5933E+07  6.8582E+05  1.1378E+06  1.1552E+06  0.0000E+00
     146-
 mid.  surface    -2.1454E+07 -2.0973E+07 -6.4215E+07  3.9740E+05  8.3071E+05  2.9985E+06  0.0000E+00
     155-
 mid.  surface    -2.1821E+07 -1.9595E+07 -5.1994E+07  7.0837E+04  2.7366E+06 -7.0913E+06  0.0000E+00
     156-
 mid.  surface    -2.6340E+07 -2.1478E+07 -6.5249E+07  7.8395E+05  2.1849E+07 -1.4741E+06  0.0000E+00
     157-
 mid.  surface    -2.3536E+07 -2.3014E+07 -7.3859E+07  4.5848E+06  2.0430E+06 -5.0340E+06  0.0000E+00
     158-
 mid.  surface    -1.6417E+07 -1.9606E+07 -5.9751E+07  4.1190E+06 -2.4289E+06 -4.6639E+06  0.0000E+00
     159-
 mid.  surface    -2.1714E+07 -1.9466E+07 -5.1933E+07  3.9051E+04  5.5120E+05  6.0869E+06  0.0000E+00
     160-
 mid.  surface    -2.6173E+07 -2.1261E+07 -6.5120E+07  7.7049E+05 -4.0200E+06  6.4315E+06  0.0000E+00
     161-
 mid.  surface    -2.3377E+07 -2.2846E+07 -7.3777E+07  4.5749E+06 -2.3930E+07 -3.7551E+05  0.0000E+00
     162-
 mid.  surface    -1.6272E+07 -1.9455E+07 -5.9668E+07  4.0959E+06 -5.2694E+06  9.9558E+05  0.0000E+00
     163-
 mid.  surface    -1.7906E+07 -1.9766E+07 -4.1459E+07 -1.5832E+06  4.8695E+06 -1.4675E+07  0.0000E+00
     164-
 mid.  surface    -2.5641E+07 -2.1093E+07 -6.4621E+07  7.6122E+05  3.2535E+07  1.9393E+06  0.0000E+00
     165-
 mid.  surface    -2.3016E+07 -2.2505E+07 -7.2663E+07  4.3370E+06 -1.2808E+07 -8.3824E+06  0.0000E+00
     166-
 mid.  surface    -1.4911E+07 -2.0839E+07 -4.8669E+07  1.9636E+06 -6.0742E+06 -4.6554E+06  0.0000E+00
     167-
 mid.  surface    -1.7617E+07 -1.9450E+07 -4.1284E+07 -1.6538E+06  2.1903E+06 -4.7381E+06  0.0000E+00
     168-
 mid.  surface    -2.5263E+07 -2.0619E+07 -6.4330E+07  7.2676E+05  8.2099E+06  9.3950E+06  0.0000E+00
     169-
 mid.  surface    -2.2646E+07 -2.2130E+07 -7.2467E+07  4.3138E+06 -3.7231E+07 -3.9745E+06  0.0000E+00
     170-
 mid.  surface    -1.4552E+07 -2.0481E+07 -4.8459E+07  1.9200E+06 -9.1511E+06  1.0605E+06  0.0000E+00
     187-
 mid.  surface    -1.6796E+07 -2.3323E+07 -5.7896E+07  2.0157E+06 -5.8322E+06 -3.7657E+06  0.0000E+00
     188-
 mid.  surface    -1.6691E+07 -2.3232E+07 -5.7850E+07  1.9709E+06  1.0102E+07  3.7416E+06  0.0000E+00
     195-
 mid.  surface    -1.6411E+07 -1.7314E+07 -5.5710E+07  1.4321E+06 -7.9110E+06 -2.0423E+06  0.0000E+00
     196-
 mid.  surface    -2.4130E+07 -2.4262E+07 -6.7930E+07  9.6630E+05 -2.8804E+06  8.8593E+06  0.0000E+00
     197-
 mid.  surface    -2.7895E+07 -2.7046E+07 -7.5005E+07  1.2918E+06 -1.8407E+06  1.2578E+07  0.0000E+00
     198-
 mid.  surface    -2.0074E+07 -2.0017E+07 -6.2501E+07  1.6964E+06 -8.2714E+06 -3.2399E+06  0.0000E+00
     199-
 mid.  surface    -1.6379E+07 -1.7249E+07 -5.5683E+07  1.4084E+06  6.1954E+06  2.1116E+06  0.0000E+00
     200-
 mid.  surface    -2.4113E+07 -2.4220E+07 -6.7919E+07  9.3013E+05  1.2780E+06 -1.3403E+07  0.0000E+00
     201-
 mid.  surface    -2.7882E+07 -2.7020E+07 -7.4998E+07  1.2582E+06  2.2340E+06 -9.6227E+06  0.0000E+00
     202-
 mid.  surface    -2.0052E+07 -1.9969E+07 -6.2484E+07  1.6767E+06  6.5818E+06  5.2409E+05  0.0000E+00
     219-
 mid.  surface    -1.5151E+07 -1.5481E+07 -5.3271E+07  1.0351E+06 -8.6362E+06 -1.0964E+06  0.0000E+00
     220-
 mid.  surface    -2.1148E+07 -2.1102E+07 -6.3480E+07  7.3779E+05 -5.3063E+06 -1.7994E+06  0.0000E+00
     221-
 mid.  surface    -2.3483E+07 -2.2900E+07 -6.7953E+07  9.3362E+05 -5.8558E+05  1.5505E+07  0.0000E+00
     222-
 mid.  surface    -1.7672E+07 -1.7472E+07 -5.8055E+07  1.1887E+06 -8.8069E+06 -7.1711E+06  0.0000E+00
     223-
 mid.  surface    -1.4861E+07 -1.5116E+07 -5.3060E+07  9.4485E+05  1.5138E+06  1.4979E+06  0.0000E+00
     224-
 mid.  surface    -2.0951E+07 -2.0817E+07 -6.3336E+07  6.1505E+05 -2.3868E+06 -1.8398E+07  0.0000E+00
     225-
 mid.  surface    -2.3298E+07 -2.2658E+07 -6.7818E+07  8.2720E+05  2.2980E+06 -1.0532E+06  0.0000E+00
     226-
 mid.  surface    -1.7429E+07 -1.7160E+07 -5.7878E+07  1.1179E+06  1.9076E+06 -4.8701E+06  0.0000E+00



 n o d a l  s t r a i n  c a l c u l a t i o n s   f o r   t i m e  s t e p       18   ( at time 1.27419E+01 )

 node (global)
          strain       eps-xx      eps-yy      eps-zz      eps-xy      eps-yz      eps-zx       
      94-
 mid.  surface     8.2974E-06  7.1157E-06 -4.7605E-04 -4.3265E-05 -2.5455E-04 -2.9077E-04
      98-
 mid.  surface     8.6990E-06  7.6899E-06 -4.7614E-04 -4.4225E-05  8.8145E-05  8.7485E-05
     100-
 mid.  surface     9.4331E-05  9.4115E-05 -6.8673E-04  2.1517E-05 -8.9827E-05 -1.7090E-04
     101-
 mid.  surface     8.3430E-05  1.0255E-04 -6.7010E-04  1.4902E-05 -1.4232E-04 -7.3874E-05
     104-
 mid.  surface     9.5489E-05  9.5173E-05 -6.8698E-04  2.0754E-05  3.5561E-04  1.7840E-04
     105-
 mid.  surface     8.4519E-05  1.0369E-04 -6.7029E-04  1.4142E-05  2.7568E-04  2.6073E-04
     108-
 mid.  surface     9.7024E-05  9.7652E-05 -6.8034E-04  1.9493E-05  2.7981E-06 -1.4641E-04
     109-
 mid.  surface     8.6820E-05  1.0478E-04 -6.6182E-04  1.3093E-05 -8.5888E-05 -6.0356E-06
     112-
 mid.  surface     9.8822E-05  9.9418E-05 -6.8065E-04  1.8524E-05  3.9531E-04  1.5787E-04
     113-
 mid.  surface     8.8632E-05  1.0661E-04 -6.6211E-04  1.2207E-05  2.8865E-04  2.8852E-04
     131-
 mid.  surface     1.0634E-04  9.7914E-05 -7.4792E-04  1.5059E-05 -3.1872E-04 -2.8522E-04
     134-
 mid.  surface     9.5474E-05  1.0608E-04 -7.3174E-04  9.1543E-06 -3.1050E-04 -2.5246E-04
     135-
 mid.  surface     1.0769E-04  9.9056E-05 -7.4762E-04  1.4555E-05  9.9985E-05  9.3177E-05
     138-
 mid.  surface     9.6871E-05  1.0732E-04 -7.3150E-04  8.7291E-06  9.2093E-05  1.1492E-04
     139-
 mid.  surface     1.0845E-04  1.0047E-04 -7.3376E-04  1.3749E-05 -3.4816E-04 -3.0705E-04
     142-
 mid.  surface     9.8342E-05  1.0747E-04 -7.1588E-04  8.1107E-06 -3.4564E-04 -2.6590E-04
     143-
 mid.  surface     1.1037E-04  1.0260E-04 -7.3341E-04  1.3069E-05  2.1564E-05  2.1965E-05
     146-
 mid.  surface     1.0040E-04  1.0959E-04 -7.1558E-04  7.5462E-06  1.5517E-05  5.7077E-05
     155-
 mid.  surface     3.0146E-05  7.2627E-05 -5.4569E-04  1.3528E-06  5.2212E-05 -1.3532E-04
     156-
 mid.  surface     3.7831E-05  1.3062E-04 -7.0470E-04  1.4963E-05  4.1691E-04 -2.8135E-05
     157-
 mid.  surface     1.2652E-04  1.3648E-04 -8.3383E-04  8.7495E-05  3.8964E-05 -9.6080E-05
     158-
 mid.  surface     1.4458E-04  8.3732E-05 -6.8239E-04  7.8600E-05 -4.6386E-05 -8.9024E-05
     159-
 mid.  surface     3.0722E-05  7.3641E-05 -5.4596E-04  7.4354E-07  1.0517E-05  1.1615E-04
     160-
 mid.  surface     3.8603E-05  1.3233E-04 -7.0465E-04  1.4710E-05 -7.6633E-05  1.2275E-04
     161-
 mid.  surface     1.2753E-04  1.3765E-04 -8.3428E-04  8.7314E-05 -4.5663E-04 -7.1675E-06
     162-
 mid.  surface     1.4551E-04  8.4766E-05 -6.8264E-04  7.8160E-05 -1.0058E-04  1.8971E-05
     163-
 mid.  surface     3.6585E-05  1.0621E-06 -4.1285E-04 -3.0223E-05  9.2919E-05 -2.8010E-04
     164-
 mid.  surface     4.2960E-05  1.2976E-04 -7.0092E-04  1.4544E-05  6.2088E-04  3.6986E-05
     165-
 mid.  surface     1.2583E-04  1.3562E-04 -8.2162E-04  8.2765E-05 -2.4449E-04 -1.5996E-04
     166-
 mid.  surface     1.1904E-04  5.9271E-06 -5.2516E-04  3.7448E-05 -1.1595E-04 -8.8877E-05
     167-
 mid.  surface     3.8345E-05  3.3322E-06 -4.1330E-04 -3.1560E-05  4.1812E-05 -9.0470E-05
     168-
 mid.  surface     4.4810E-05  1.3342E-04 -7.0077E-04  1.3885E-05  1.5677E-04  1.7934E-04
     169-
 mid.  surface     1.2827E-04  1.3812E-04 -8.2255E-04  8.2330E-05 -7.1053E-04 -7.5785E-05
     170-
 mid.  surface     1.2143E-04  8.2816E-06 -5.2564E-04  3.6619E-05 -1.7464E-04  2.0264E-05
     187-
 mid.  surface     1.4807E-04  2.3510E-05 -6.3630E-04  3.8470E-05 -1.1128E-04 -7.1849E-05
     188-
 mid.  surface     1.4886E-04  2.4036E-05 -6.3660E-04  3.7605E-05  1.9277E-04  7.1387E-05
     195-
 mid.  surface     1.1438E-04  9.7140E-05 -6.3564E-04  2.7331E-05 -1.5091E-04 -3.8952E-05
     196-
 mid.  surface     9.5603E-05  9.3103E-05 -7.4026E-04  1.8440E-05 -5.4937E-05  1.6905E-04
     197-
 mid.  surface     8.8886E-05  1.0508E-04 -8.1013E-04  2.4649E-05 -3.5159E-05  2.4001E-04
     198-
 mid.  surface     1.0737E-04  1.0845E-04 -7.0234E-04  3.2374E-05 -1.5780E-04 -6.1813E-05
     199-
 mid.  surface     1.1441E-04  9.7781E-05 -6.3572E-04  2.6878E-05  1.1824E-04  4.0298E-05
     200-
 mid.  surface     9.5571E-05  9.3547E-05 -7.4038E-04  1.7748E-05  2.4352E-05 -2.5577E-04
     201-
 mid.  surface     8.8908E-05  1.0534E-04 -8.1021E-04  2.4008E-05  4.2544E-05 -1.8364E-04
     202-
 mid.  surface     1.0737E-04  1.0894E-04 -7.0241E-04  3.1996E-05  1.2555E-04  9.9763E-06
     219-
 mid.  surface     1.1196E-04  1.0567E-04 -6.1552E-04  1.9750E-05 -1.6481E-04 -2.0914E-05
     220-
 mid.  surface     1.0189E-04  1.0278E-04 -7.0596E-04  1.4077E-05 -1.0127E-04 -3.4377E-05
     221-
 mid.  surface     9.8471E-05  1.0958E-04 -7.5021E-04  1.7819E-05 -1.1174E-05  2.9588E-04
     222-
 mid.  surface     1.0830E-04  1.1211E-04 -6.6237E-04  2.2684E-05 -1.6807E-04 -1.3686E-04
     223-
 mid.  surface     1.1335E-04  1.0849E-04 -6.1564E-04  1.8025E-05  2.8872E-05  2.8583E-05
     224-
 mid.  surface     1.0261E-04  1.0517E-04 -7.0624E-04  1.1735E-05 -4.5563E-05 -3.5112E-04
     225-
 mid.  surface     9.9287E-05  1.1150E-04 -7.5033E-04  1.5791E-05  4.3848E-05 -2.0071E-05
     226-
 mid.  surface     1.0942E-04  1.1456E-04 -6.6249E-04  2.1331E-05  3.6380E-05 -9.2964E-05



 n o d a l  s t r e s s  c a l c u l a t i o n s   f o r   t i m e  s t e p       24   ( at time 2.26946E+01 )

 node (global)
          stress       sig-xx      sig-yy      sig-zz      sig-xy      sig-yz      sig-zx       plastic
                                                                                                 strain 
      94-
 mid.  surface    -4.2735E+07 -4.3334E+07 -8.4746E+07 -4.7323E+06 -2.7092E+07 -3.1454E+07  0.0000E+00
      98-
 mid.  surface    -4.2645E+07 -4.3221E+07 -8.4696E+07 -4.8433E+06  9.2848E+06  9.6880E+06  0.0000E+00
     100-
 mid.  surface    -3.7720E+07 -3.7638E+07 -1.1088E+08  2.1934E+06 -1.0334E+07 -1.9374E+07  0.0000E+00
     101-
 mid.  surface    -3.7785E+07 -3.6079E+07 -1.0782E+08  1.3134E+06 -1.4802E+07 -8.1100E+06  0.0000E+00
     104-
 mid.  surface    -3.7453E+07 -3.7375E+07 -1.1075E+08  2.1170E+06  3.8936E+07  2.0223E+07  0.0000E+00
     105-
 mid.  surface    -3.7534E+07 -3.5795E+07 -1.0769E+08  1.2370E+06  2.9434E+07  2.8844E+07  0.0000E+00
     108-
 mid.  surface    -3.6329E+07 -3.6155E+07 -1.0911E+08  1.9859E+06 -2.4323E+05 -1.6549E+07  0.0000E+00
     109-
 mid.  surface    -3.6139E+07 -3.4535E+07 -1.0571E+08  1.1536E+06 -8.6314E+06 -5.5131E+05  0.0000E+00
     112-
 mid.  surface    -3.5888E+07 -3.5708E+07 -1.0887E+08  1.8901E+06  4.2968E+07  1.7819E+07  0.0000E+00
     113-
 mid.  surface    -3.5710E+07 -3.4071E+07 -1.0547E+08  1.0633E+06  3.0783E+07  3.1820E+07  0.0000E+00
     131-
 mid.  surface    -4.1335E+07 -4.2437E+07 -1.2228E+08  1.6352E+06 -3.4203E+07 -3.1183E+07  0.0000E+00
     134-
 mid.  surface    -4.1422E+07 -4.0925E+07 -1.1925E+08  8.2540E+05 -3.2567E+07 -2.7389E+07  0.0000E+00
     135-
 mid.  surface    -4.0910E+07 -4.2008E+07 -1.2193E+08  1.6116E+06  1.2056E+07  1.1703E+07  0.0000E+00
     138-
 mid.  surface    -4.0996E+07 -4.0487E+07 -1.1891E+08  8.0579E+05  1.0019E+07  1.3061E+07  0.0000E+00
     139-
 mid.  surface    -3.9353E+07 -4.0375E+07 -1.1901E+08  1.4851E+06 -3.6806E+07 -3.2988E+07  0.0000E+00
     142-
 mid.  surface    -3.9178E+07 -3.8792E+07 -1.1567E+08  7.2934E+05 -3.6004E+07 -2.8552E+07  0.0000E+00
     143-
 mid.  surface    -3.8712E+07 -3.9678E+07 -1.1848E+08  1.4509E+06  3.8482E+06  4.1698E+06  0.0000E+00
     146-
 mid.  surface    -3.8535E+07 -3.8105E+07 -1.1515E+08  7.0135E+05  1.9844E+06  6.8308E+06  0.0000E+00
     155-
 mid.  surface    -3.8619E+07 -3.4497E+07 -9.0597E+07  1.4625E+04  6.8023E+06 -1.4848E+07  0.0000E+00
     156-
 mid.  surface    -4.8730E+07 -3.8706E+07 -1.2000E+08  1.4440E+06  4.8539E+07 -3.5905E+06  0.0000E+00
     157-
 mid.  surface    -4.2429E+07 -4.0918E+07 -1.3577E+08  9.6955E+06  5.2339E+06 -1.0584E+07  0.0000E+00
     158-
 mid.  surface    -2.7130E+07 -3.3744E+07 -1.0484E+08  8.6367E+06 -4.5082E+06 -1.0165E+07  0.0000E+00
     159-
 mid.  surface    -3.8473E+07 -3.4294E+07 -9.0546E+07 -5.9107E+04  9.2982E+05  1.2776E+07  0.0000E+00
     160-
 mid.  surface    -4.8391E+07 -3.8217E+07 -1.1971E+08  1.4237E+06 -8.9967E+06  1.3166E+07  0.0000E+00
     161-
 mid.  surface    -4.2202E+07 -4.0694E+07 -1.3574E+08  9.6774E+06 -5.2543E+07 -2.0981E+05  0.0000E+00
     162-
 mid.  surface    -2.6898E+07 -3.3492E+07 -1.0473E+08  8.5865E+06 -1.1697E+07  2.5009E+06  0.0000E+00
     163-
 mid.  surface    -3.0224E+07 -3.4860E+07 -6.7893E+07 -3.2880E+06  1.1851E+07 -3.0271E+07  0.0000E+00
     164-
 mid.  surface    -4.7382E+07 -3.8046E+07 -1.1872E+08  1.4171E+06  7.2103E+07  3.0571E+06  0.0000E+00
     165-
 mid.  surface    -4.1454E+07 -3.9946E+07 -1.3327E+08  9.1455E+06 -2.6933E+07 -1.7205E+07  0.0000E+00
     166-
 mid.  surface    -2.3511E+07 -3.6116E+07 -8.0707E+07  4.3763E+06 -1.2254E+07 -1.1122E+07  0.0000E+00
     167-
 mid.  surface    -2.9762E+07 -3.4324E+07 -6.7683E+07 -3.4436E+06  5.0439E+06 -9.1298E+06  0.0000E+00
     168-
 mid.  surface    -4.6618E+07 -3.6977E+07 -1.1807E+08  1.3633E+06  1.8156E+07  1.8816E+07  0.0000E+00
     169-
 mid.  surface    -4.0910E+07 -3.9437E+07 -1.3316E+08  9.1036E+06 -8.1107E+07 -7.4156E+06  0.0000E+00
     170-
 mid.  surface    -2.2911E+07 -3.5491E+07 -8.0424E+07  4.2926E+06 -1.9871E+07  1.5070E+06  0.0000E+00
     187-
 mid.  surface    -2.7862E+07 -4.1341E+07 -1.0091E+08  4.2441E+06 -1.1619E+07 -8.6816E+06  0.0000E+00
     188-
 mid.  surface    -2.7729E+07 -4.1231E+07 -1.0090E+08  4.1401E+06  2.0733E+07  7.9467E+06  0.0000E+00
     195-
 mid.  surface    -2.7867E+07 -2.9385E+07 -9.6905E+07  2.7902E+06 -1.7282E+07 -5.7923E+06  0.0000E+00
     196-
 mid.  surface    -4.4389E+07 -4.4036E+07 -1.2259E+08  1.8209E+06 -6.3038E+06  1.7819E+07  0.0000E+00
     197-
 mid.  surface    -5.1768E+07 -4.9385E+07 -1.3617E+08  2.5675E+06 -4.1960E+06  2.5244E+07  0.0000E+00
     198-
 mid.  surface    -3.5058E+07 -3.4580E+07 -1.0994E+08  3.4246E+06 -1.8063E+07 -8.6449E+06  0.0000E+00
     199-
 mid.  surface    -2.7804E+07 -2.9273E+07 -9.6859E+07  2.7438E+06  1.3894E+07  6.8093E+06  0.0000E+00
     200-
 mid.  surface    -4.4373E+07 -4.3980E+07 -1.2259E+08  1.7492E+06  3.4352E+06 -2.6517E+07  0.0000E+00
     201-
 mid.  surface    -5.1745E+07 -4.9346E+07 -1.3616E+08  2.5019E+06  5.1707E+06 -1.8908E+07  0.0000E+00
     202-
 mid.  surface    -3.5012E+07 -3.4492E+07 -1.0991E+08  3.3883E+06  1.4549E+07  3.2099E+06  0.0000E+00
     219-
 mid.  surface    -2.6062E+07 -2.6549E+07 -9.3267E+07  2.0168E+06 -1.8084E+07 -1.7787E+06  0.0000E+00
     220-
 mid.  surface    -3.8710E+07 -3.8210E+07 -1.1437E+08  1.4110E+06 -1.0385E+07 -2.9522E+06  0.0000E+00
     221-
 mid.  surface    -4.3172E+07 -4.1569E+07 -1.2273E+08  1.8824E+06 -1.2925E+06  3.1244E+07  0.0000E+00
     222-
 mid.  surface    -3.0919E+07 -3.0308E+07 -1.0227E+08  2.4046E+06 -1.9058E+07 -1.6124E+07  0.0000E+00
     223-
 mid.  surface    -2.5559E+07 -2.5893E+07 -9.2904E+07  1.8491E+06  4.1999E+06  6.5870E+06  0.0000E+00
     224-
 mid.  surface    -3.8400E+07 -3.7759E+07 -1.1417E+08  1.1539E+06 -3.4792E+06 -3.5418E+07  0.0000E+00
     225-
 mid.  surface    -4.2838E+07 -4.1192E+07 -1.2251E+08  1.6360E+06  5.4871E+06 -1.1219E+06  0.0000E+00
     226-
 mid.  surface    -3.0465E+07 -2.9743E+07 -1.0195E+08  2.2626E+06  4.3813E+06 -8.3626E+06  0.0000E+00



 n o d a l  s t r a i n  c a l c u l a t i o n s   f o r   t i m e  s t e p       24   ( at time 2.26946E+01 )

 node (global)
          strain       eps-xx      eps-yy      eps-zz      eps-xy      eps-yz      eps-zx       
      94-
 mid.  surface     1.1320E-06 -1.0312E-05 -8.0068E-04 -9.0301E-05 -5.1687E-04 -6.0010E-04
      98-
 mid.  surface     1.6170E-06 -9.3741E-06 -8.0093E-04 -9.2429E-05  1.7713E-04  1.8482E-04
     100-
 mid.  surface     1.7073E-04  1.7231E-04 -1.2258E-03  4.2022E-05 -1.9647E-04 -3.6932E-04
     101-
 mid.  surface     1.4770E-04  1.8025E-04 -1.1891E-03  2.5209E-05 -2.8197E-04 -1.5444E-04
     104-
 mid.  surface     1.7259E-04  1.7412E-04 -1.2266E-03  4.0560E-05  7.4339E-04  3.8603E-04
     105-
 mid.  surface     1.4913E-04  1.8231E-04 -1.1897E-03  2.3606E-05  5.6125E-04  5.5023E-04
     108-
 mid.  surface     1.7503E-04  1.7832E-04 -1.2141E-03  3.8019E-05 -3.8109E-06 -3.1547E-04
     109-
 mid.  surface     1.5377E-04  1.8429E-04 -1.1741E-03  2.2126E-05 -1.6416E-04 -1.0204E-05
     112-
 mid.  surface     1.7799E-04  1.8143E-04 -1.2152E-03  3.6207E-05  8.2042E-04  3.4014E-04
     113-
 mid.  surface     1.5639E-04  1.8770E-04 -1.1751E-03  2.0301E-05  5.8698E-04  6.0708E-04
     131-
 mid.  surface     1.9612E-04  1.7512E-04 -1.3487E-03  3.1278E-05 -6.5226E-04 -5.9482E-04
     134-
 mid.  surface     1.7309E-04  1.8252E-04 -1.3119E-03  1.5679E-05 -6.2184E-04 -5.2283E-04
     135-
 mid.  surface     1.9861E-04  1.7771E-04 -1.3473E-03  3.0660E-05  2.2945E-04  2.2293E-04
     138-
 mid.  surface     1.7558E-04  1.8527E-04 -1.3107E-03  1.5171E-05  1.8989E-04  2.4850E-04
     139-
 mid.  surface     1.9889E-04  1.7940E-04 -1.3212E-03  2.8360E-05 -7.0195E-04 -6.2934E-04
     142-
 mid.  surface     1.7782E-04  1.8513E-04 -1.2816E-03  1.3840E-05 -6.8752E-04 -5.4503E-04
     143-
 mid.  surface     2.0243E-04  1.8414E-04 -1.3196E-03  2.7578E-05  7.2768E-05  7.9193E-05
     146-
 mid.  surface     1.8151E-04  1.8975E-04 -1.2802E-03  1.3211E-05  3.6437E-05  1.2969E-04
     155-
 mid.  surface     4.5736E-05  1.2440E-04 -9.4627E-04  2.8896E-07  1.2974E-04 -2.8332E-04
     156-
 mid.  surface     6.1623E-05  2.5281E-04 -1.2983E-03  2.7577E-05  9.2607E-04 -6.8546E-05
     157-
 mid.  surface     2.3801E-04  2.6684E-04 -1.5432E-03  1.8502E-04  9.9708E-05 -2.0205E-04
     158-
 mid.  surface     2.7455E-04  1.4844E-04 -1.2084E-03  1.6479E-04 -8.6201E-05 -1.9408E-04
     159-
 mid.  surface     4.6469E-05  1.2626E-04 -9.4733E-04 -1.1231E-06  1.7767E-05  2.4376E-04
     160-
 mid.  surface     6.2884E-05  2.5694E-04 -1.2980E-03  2.7214E-05 -1.7124E-04  2.5134E-04
     161-
 mid.  surface     2.3975E-04  2.6850E-04 -1.5452E-03  1.8472E-04 -1.0025E-03 -4.0056E-06
     162-
 mid.  surface     2.7607E-04  1.5035E-04 -1.2094E-03  1.6383E-04 -2.2327E-04  4.7606E-05
     163-
 mid.  surface     5.9012E-05 -2.9898E-05 -6.5949E-04 -6.2800E-05  2.2613E-04 -5.7791E-04
     164-
 mid.  surface     7.1527E-05  2.4973E-04 -1.2898E-03  2.7189E-05  1.3760E-03  5.8250E-05
     165-
 mid.  surface     2.3545E-04  2.6451E-04 -1.5167E-03  1.7451E-04 -5.1439E-04 -3.2832E-04
     166-
 mid.  surface     2.2230E-04 -1.8311E-05 -8.6889E-04  8.3291E-05 -2.3398E-04 -2.1240E-04
     167-
 mid.  surface     6.1901E-05 -2.5489E-05 -6.6161E-04 -6.5705E-05  9.6365E-05 -1.7446E-04
     168-
 mid.  surface     7.4622E-05  2.5862E-04 -1.2891E-03  2.6153E-05  3.4699E-04  3.5930E-04
     169-
 mid.  surface     2.3974E-04  2.6811E-04 -1.5210E-03  1.7375E-04 -1.5480E-03 -1.4126E-04
     170-
 mid.  surface     2.2647E-04 -1.3659E-05 -8.7112E-04  8.1719E-05 -3.7923E-04  2.8852E-05
     187-
 mid.  surface     2.8168E-04  2.4428E-05 -1.1125E-03  8.0987E-05 -2.2163E-04 -1.6562E-04
     188-
 mid.  surface     2.8281E-04  2.5115E-05 -1.1136E-03  7.8964E-05  3.9561E-04  1.5158E-04
     195-
 mid.  surface     2.0527E-04  1.7622E-04 -1.1125E-03  5.3237E-05 -3.2952E-04 -1.1040E-04
     196-
 mid.  surface     1.6170E-04  1.6858E-04 -1.3307E-03  3.4774E-05 -1.2016E-04  3.3999E-04
     197-
 mid.  surface     1.4663E-04  1.9218E-04 -1.4640E-03  4.9005E-05 -8.0205E-05  4.8157E-04
     198-
 mid.  surface     1.8959E-04  1.9861E-04 -1.2397E-03  6.5340E-05 -3.4448E-04 -1.6487E-04
     199-
 mid.  surface     2.0542E-04  1.7728E-04 -1.1127E-03  5.2345E-05  2.6518E-04  1.2995E-04
     200-
 mid.  surface     1.6160E-04  1.6919E-04 -1.3310E-03  3.3391E-05  6.5386E-05 -5.0605E-04
     201-
 mid.  surface     1.4671E-04  1.9252E-04 -1.4641E-03  4.7741E-05  9.8276E-05 -3.6085E-04
     202-
 mid.  surface     1.8964E-04  1.9943E-04 -1.2398E-03  6.4628E-05  2.7740E-04  6.1106E-05
     219-
 mid.  surface     2.0008E-04  1.9074E-04 -1.0825E-03  3.8455E-05 -3.4507E-04 -3.3835E-05
     220-
 mid.  surface     1.7584E-04  1.8542E-04 -1.2680E-03  2.6927E-05 -1.9820E-04 -5.6502E-05
     221-
 mid.  surface     1.6801E-04  1.9860E-04 -1.3502E-03  3.5954E-05 -2.4670E-05  5.9620E-04
     222-
 mid.  surface     1.9159E-04  2.0324E-04 -1.1701E-03  4.5875E-05 -3.6365E-04 -3.0771E-04
     223-
 mid.  surface     2.0236E-04  1.9595E-04 -1.0829E-03  3.5244E-05  8.0069E-05  1.2573E-04
     224-
 mid.  surface     1.7699E-04  1.8928E-04 -1.2689E-03  2.2010E-05 -6.6477E-05 -6.7602E-04
     225-
 mid.  surface     1.6989E-04  2.0131E-04 -1.3506E-03  3.1251E-05  1.0465E-04 -2.1357E-05
     226-
 mid.  surface     1.9380E-04  2.0759E-04 -1.1703E-03  4.3148E-05  8.3472E-05 -1.5976E-04



 n o d a l  s t r e s s  c a l c u l a t i o n s   f o r   t i m e  s t e p       68   ( at time 3.84686E+01 )

 node (global)
          stress       sig-xx      sig-yy      sig-zz      sig-xy      sig-yz      sig-zx       plastic
                                                                                                 strain 
      94-
 mid.  surface    -7.3121E+07 -7.5092E+07 -1.3869E+08 -9.2569E+06 -5.1800E+07 -6.1003E+07  0.0000E+00
      98-
 mid.  surface    -7.3007E+07 -7.4912E+07 -1.3865E+08 -9.4941E+06  1.7554E+07  1.9163E+07  0.0000E+00
     100-
 mid.  surface    -6.3552E+07 -6.3171E+07 -1.8828E+08  4.1139E+06 -2.1126E+07 -3.9124E+07  0.0000E+00
     101-
 mid.  surface    -6.4373E+07 -6.1696E+07 -1.8277E+08  2.1275E+06 -2.7640E+07 -1.5898E+07  0.0000E+00
     104-
 mid.  surface    -6.3120E+07 -6.2747E+07 -1.8815E+08  3.9690E+06  7.6352E+07  4.0799E+07  0.0000E+00
     105-
 mid.  surface    -6.4019E+07 -6.1201E+07 -1.8265E+08  1.9753E+06  5.6415E+07  5.7045E+07  0.0000E+00
     108-
 mid.  surface    -6.1182E+07 -6.0617E+07 -1.8528E+08  3.7241E+06 -1.4460E+06 -3.3381E+07  0.0000E+00
     109-
 mid.  surface    -6.1450E+07 -5.8942E+07 -1.7920E+08  1.8846E+06 -1.5565E+07 -8.7475E+05  0.0000E+00
     112-
 mid.  surface    -6.0463E+07 -5.9887E+07 -1.8500E+08  3.5432E+06  8.3701E+07  3.5806E+07  0.0000E+00
     113-
 mid.  surface    -6.0823E+07 -5.8145E+07 -1.7893E+08  1.7024E+06  5.8902E+07  6.2756E+07  0.0000E+00
     131-
 mid.  surface    -7.0783E+07 -7.3274E+07 -2.1053E+08  3.2282E+06 -6.5932E+07 -6.1076E+07  0.0000E+00
     134-
 mid.  surface    -7.1554E+07 -7.1779E+07 -2.0491E+08  1.3690E+06 -6.1532E+07 -5.3333E+07  0.0000E+00
     135-
 mid.  surface    -6.9750E+07 -7.2146E+07 -2.0956E+08  3.2599E+06  2.5469E+07  2.5439E+07  0.0000E+00
     138-
 mid.  surface    -7.0569E+07 -7.0673E+07 -2.0400E+08  1.3982E+06  1.9352E+07  2.6267E+07  0.0000E+00
     139-
 mid.  surface    -6.7317E+07 -6.9561E+07 -2.0462E+08  2.9034E+06 -7.0039E+07 -6.3679E+07  0.0000E+00
     142-
 mid.  surface    -6.7530E+07 -6.7866E+07 -1.9849E+08  1.2048E+06 -6.7620E+07 -5.5140E+07  0.0000E+00
     143-
 mid.  surface    -6.5833E+07 -6.7856E+07 -2.0323E+08  2.9378E+06  9.9583E+06  1.1090E+07  0.0000E+00
     146-
 mid.  surface    -6.6105E+07 -6.6234E+07 -1.9718E+08  1.2375E+06  4.1223E+06  1.4198E+07  0.0000E+00
     155-
 mid.  surface    -6.5401E+07 -5.8234E+07 -1.5043E+08 -1.7218E+05  1.5165E+07 -2.9173E+07  0.0000E+00
     156-
 mid.  surface    -8.6461E+07 -6.7140E+07 -2.1108E+08  2.5120E+06  1.0004E+08 -7.9113E+06  0.0000E+00
     157-
 mid.  surface    -7.3210E+07 -6.9513E+07 -2.3805E+08  1.9205E+07  1.1849E+07 -2.0919E+07  0.0000E+00
     158-
 mid.  surface    -4.2487E+07 -5.5358E+07 -1.7499E+08  1.6998E+07 -7.8980E+06 -2.0633E+07  0.0000E+00
     159-
 mid.  surface    -6.5264E+07 -5.7949E+07 -1.5053E+08 -3.3653E+05  1.4353E+06  2.5136E+07  0.0000E+00
     160-
 mid.  surface    -8.5699E+07 -6.5910E+07 -2.1032E+08  2.5120E+06 -1.8616E+07  2.5369E+07  0.0000E+00
     161-
 mid.  surface    -7.3038E+07 -6.9442E+07 -2.3844E+08  1.9187E+07 -1.0736E+08  4.9609E+05  0.0000E+00
     162-
 mid.  surface    -4.2166E+07 -5.4967E+07 -1.7498E+08  1.6896E+07 -2.4131E+07  5.5710E+06  0.0000E+00
     163-
 mid.  surface    -4.8511E+07 -5.8981E+07 -1.0460E+08 -6.4283E+06  2.6044E+07 -5.8697E+07  0.0000E+00
     164-
 mid.  surface    -8.3971E+07 -6.6034E+07 -2.0872E+08  2.5170E+06  1.4833E+08  4.3086E+06  0.0000E+00
     165-
 mid.  surface    -7.1373E+07 -6.7533E+07 -2.3305E+08  1.8069E+07 -5.3211E+07 -3.3341E+07  0.0000E+00
     166-
 mid.  surface    -3.4526E+07 -5.9644E+07 -1.2589E+08  8.9817E+06 -2.3329E+07 -2.4085E+07  0.0000E+00
     167-
 mid.  surface    -4.7858E+07 -5.8121E+07 -1.0460E+08 -6.7414E+06  1.0654E+07 -1.6611E+07  0.0000E+00
     168-
 mid.  surface    -8.2279E+07 -6.3367E+07 -2.0706E+08  2.4980E+06  3.7330E+07  3.5531E+07  0.0000E+00
     169-
 mid.  surface    -7.0903E+07 -6.7319E+07 -2.3379E+08  1.8026E+07 -1.6473E+08 -1.3184E+07  0.0000E+00
     170-
 mid.  surface    -3.3611E+07 -5.8592E+07 -1.2574E+08  8.8591E+06 -4.0284E+07  1.8144E+06  0.0000E+00
     187-
 mid.  surface    -4.3873E+07 -7.0054E+07 -1.6729E+08  8.3865E+06 -2.1810E+07 -1.8319E+07  0.0000E+00
     188-
 mid.  surface    -4.3788E+07 -6.9992E+07 -1.6748E+08  8.1471E+06  4.0011E+07  1.5788E+07  0.0000E+00
     195-
 mid.  surface    -4.5274E+07 -4.7751E+07 -1.6089E+08  5.1913E+06 -3.5118E+07 -1.3870E+07  0.0000E+00
     196-
 mid.  surface    -7.8131E+07 -7.6548E+07 -2.1122E+08  3.2910E+06 -1.2926E+07  3.3561E+07  0.0000E+00
     197-
 mid.  surface    -9.1918E+07 -8.6390E+07 -2.3614E+08  4.8412E+06 -8.9122E+06  4.7492E+07  0.0000E+00
     198-
 mid.  surface    -5.8705E+07 -5.7300E+07 -1.8482E+08  6.5455E+06 -3.6662E+07 -1.9988E+07  0.0000E+00
     199-
 mid.  surface    -4.5115E+07 -4.7541E+07 -1.6080E+08  5.1015E+06  2.8787E+07  1.7193E+07  0.0000E+00
     200-
 mid.  surface    -7.8107E+07 -7.6470E+07 -2.1125E+08  3.1583E+06  8.0998E+06 -4.9316E+07  0.0000E+00
     201-
 mid.  surface    -9.1842E+07 -8.6308E+07 -2.3612E+08  4.7219E+06  1.1045E+07 -3.4918E+07  0.0000E+00
     202-
 mid.  surface    -5.8575E+07 -5.7114E+07 -1.8474E+08  6.4838E+06  2.9821E+07  9.7332E+06  0.0000E+00
     219-
 mid.  surface    -4.2727E+07 -4.3523E+07 -1.5612E+08  3.7171E+06 -3.5495E+07 -2.8172E+06  0.0000E+00
     220-
 mid.  surface    -6.7446E+07 -6.5932E+07 -1.9656E+08  2.5853E+06 -1.9221E+07 -4.7485E+06  0.0000E+00
     221-
 mid.  surface    -7.5582E+07 -7.1882E+07 -2.1148E+08  3.6204E+06 -2.8332E+06  5.8552E+07  0.0000E+00
     222-
 mid.  surface    -5.1669E+07 -5.0258E+07 -1.7227E+08  4.5801E+06 -3.8318E+07 -3.3401E+07  0.0000E+00
     223-
 mid.  surface    -4.1837E+07 -4.2358E+07 -1.5551E+08  3.4098E+06  9.7944E+06  1.8186E+07  0.0000E+00
     224-
 mid.  surface    -6.6984E+07 -6.5250E+07 -1.9634E+08  2.0846E+06 -4.1980E+06 -6.4134E+07  0.0000E+00
     225-
 mid.  surface    -7.4949E+07 -7.1301E+07 -2.1113E+08  3.0998E+06  1.1824E+07 -6.0084E+05  0.0000E+00
     226-
 mid.  surface    -5.0775E+07 -4.9222E+07 -1.7168E+08  4.3130E+06  9.1351E+06 -1.3539E+07  0.0000E+00



 n o d a l  s t r a i n  c a l c u l a t i o n s   f o r   t i m e  s t e p       68   ( at time 3.84686E+01 )

 node (global)
          strain       eps-xx      eps-yy      eps-zz      eps-xy      eps-yz      eps-zx       
      94-
 mid.  surface    -2.3577E-05 -6.1270E-05 -1.2752E-03 -1.7665E-04 -9.8798E-04 -1.1636E-03
      98-
 mid.  surface    -2.3081E-05 -5.9495E-05 -1.2759E-03 -1.8121E-04  3.3475E-04  3.6545E-04
     100-
 mid.  surface     2.9409E-04  3.0143E-04 -2.0881E-03  7.9201E-05 -4.0050E-04 -7.4513E-04
     101-
 mid.  surface     2.4904E-04  3.0003E-04 -2.0124E-03  4.1299E-05 -5.2566E-04 -3.0218E-04
     104-
 mid.  surface     2.9738E-04  3.0461E-04 -2.0907E-03  7.6416E-05  1.4582E-03  7.7892E-04
     105-
 mid.  surface     2.5041E-04  3.0420E-04 -2.0141E-03  3.7788E-05  1.0750E-03  1.0878E-03
     108-
 mid.  surface     3.0126E-04  3.1189E-04 -2.0682E-03  7.1564E-05 -2.4640E-05 -6.3576E-04
     109-
 mid.  surface     2.6046E-04  3.0796E-04 -1.9879E-03  3.6499E-05 -2.9507E-04 -1.5520E-05
     112-
 mid.  surface     3.0646E-04  3.1745E-04 -2.0718E-03  6.8181E-05  1.5988E-03  6.8356E-04
     113-
 mid.  surface     2.6370E-04  3.1495E-04 -1.9911E-03  3.2606E-05  1.1224E-03  1.1970E-03
     131-
 mid.  surface     3.4403E-04  2.9664E-04 -2.3233E-03  6.1870E-05 -1.2566E-03 -1.1645E-03
     134-
 mid.  surface     2.9873E-04  2.9429E-04 -2.2454E-03  2.5881E-05 -1.1754E-03 -1.0183E-03
     135-
 mid.  surface     3.4909E-04  3.0363E-04 -2.3178E-03  6.1791E-05  4.8384E-04  4.8396E-04
     138-
 mid.  surface     3.0352E-04  3.0146E-04 -2.2408E-03  2.5886E-05  3.6473E-04  4.9853E-04
     139-
 mid.  surface     3.4721E-04  3.0442E-04 -2.2726E-03  5.5429E-05 -1.3350E-03 -1.2145E-03
     142-
 mid.  surface     3.0675E-04  3.0004E-04 -2.1914E-03  2.2714E-05 -1.2919E-03 -1.0528E-03
     143-
 mid.  surface     3.5436E-04  3.1634E-04 -2.2664E-03  5.5571E-05  1.8766E-04  2.1025E-04
     146-
 mid.  surface     3.1384E-04  3.1154E-04 -2.1862E-03  2.2957E-05  7.3643E-05  2.6853E-04
     155-
 mid.  surface     6.2378E-05  1.9919E-04 -1.5604E-03 -3.2316E-06  2.8909E-04 -5.5661E-04
     156-
 mid.  surface     9.3064E-05  4.6110E-04 -2.2844E-03  4.8038E-05  1.9083E-03 -1.5109E-04
     157-
 mid.  surface     4.2403E-04  4.9446E-04 -2.7214E-03  3.6643E-04  2.2536E-04 -3.9946E-04
     158-
 mid.  surface     4.9392E-04  2.4878E-04 -2.0351E-03  3.2424E-04 -1.5136E-04 -3.9412E-04
     159-
 mid.  surface     6.2945E-05  2.0279E-04 -1.5644E-03 -6.3713E-06  2.7539E-05  4.7950E-04
     160-
 mid.  surface     9.5069E-05  4.7212E-04 -2.2827E-03  4.8141E-05 -3.5348E-04  4.8443E-04
     161-
 mid.  surface     4.2694E-04  4.9548E-04 -2.7293E-03  3.6628E-04 -2.0481E-03  9.4787E-06
     162-
 mid.  surface     4.9616E-04  2.5245E-04 -2.0387E-03  3.2231E-04 -4.6069E-04  1.0589E-04
     163-
 mid.  surface     8.8589E-05 -1.1369E-04 -9.7992E-04 -1.2286E-04  4.9691E-04 -1.1210E-03
     164-
 mid.  surface     1.1163E-04  4.5409E-04 -2.2686E-03  4.8744E-05  2.8305E-03  8.1910E-05
     165-
 mid.  surface     4.1711E-04  4.9183E-04 -2.6681E-03  3.4471E-04 -1.0171E-03 -6.3627E-04
     166-
 mid.  surface     3.9348E-04 -8.6529E-05 -1.3483E-03  1.7029E-04 -4.4572E-04 -4.6019E-04
     167-
 mid.  surface     9.3234E-05 -1.0439E-04 -9.8881E-04 -1.2855E-04  2.0383E-04 -3.1783E-04
     168-
 mid.  surface     1.1676E-04  4.7794E-04 -2.2656E-03  4.8338E-05  7.1439E-04  6.7882E-04
     169-
 mid.  surface     4.2445E-04  4.9433E-04 -2.6854E-03  3.4407E-04 -3.1442E-03 -2.5074E-04
     170-
 mid.  surface     4.0056E-04 -7.6518E-05 -1.3576E-03  1.6806E-04 -7.6875E-04  3.4911E-05
     187-
 mid.  surface     5.0759E-04  7.8755E-06 -1.8480E-03  1.5998E-04 -4.1583E-04 -3.4939E-04
     188-
 mid.  surface     5.0876E-04  8.6263E-06 -1.8517E-03  1.5527E-04  7.6339E-04  3.0104E-04
     195-
 mid.  surface     3.5038E-04  3.0272E-04 -1.8570E-03  9.8993E-05 -6.6913E-04 -2.6406E-04
     196-
 mid.  surface     2.5830E-04  2.8908E-04 -2.2815E-03  6.2997E-05 -2.4614E-04  6.4024E-04
     197-
 mid.  surface     2.2722E-04  3.3306E-04 -2.5247E-03  9.2471E-05 -1.7054E-04  9.0566E-04
     198-
 mid.  surface     3.1830E-04  3.4471E-04 -2.0894E-03  1.2481E-04 -6.9879E-04 -3.8096E-04
     199-
 mid.  surface     3.5116E-04  3.0443E-04 -1.8574E-03  9.7247E-05  5.4945E-04  3.2815E-04
     200-
 mid.  surface     2.5821E-04  2.8979E-04 -2.2822E-03  6.0364E-05  1.5394E-04 -9.4116E-04
     201-
 mid.  surface     2.2772E-04  3.3346E-04 -2.5249E-03  9.0113E-05  2.0929E-04 -6.6657E-04
     202-
 mid.  surface     3.1881E-04  3.4607E-04 -2.0893E-03  1.2352E-04  5.6812E-04  1.8510E-04
     219-
 mid.  surface     3.4355E-04  3.2815E-04 -1.8208E-03  7.0782E-05 -6.7715E-04 -5.3182E-05
     220-
 mid.  surface     2.9049E-04  3.1953E-04 -2.1734E-03  4.9380E-05 -3.6680E-04 -9.1123E-05
     221-
 mid.  surface     2.7379E-04  3.4449E-04 -2.3196E-03  6.9253E-05 -5.4103E-05  1.1171E-03
     222-
 mid.  surface     3.2487E-04  3.5182E-04 -1.9767E-03  8.7345E-05 -7.3105E-04 -6.3728E-04
     223-
 mid.  surface     3.4766E-04  3.3749E-04 -1.8219E-03  6.4877E-05  1.8663E-04  3.4724E-04
     224-
 mid.  surface     2.9228E-04  3.2554E-04 -2.1761E-03  3.9744E-05 -8.0438E-05 -1.2244E-03
     225-
 mid.  surface     2.7824E-04  3.4794E-04 -2.3206E-03  5.9283E-05  2.2532E-04 -1.1530E-05
     226-
 mid.  surface     3.2973E-04  3.5942E-04 -1.9773E-03  8.2154E-05  1.7376E-04 -2.5910E-04



 n o d a l  s t r e s s  c a l c u l a t i o n s   f o r   t i m e  s t e p      109   ( at time 6.34686E+01 )

 node (global)
          stress       sig-xx      sig-yy      sig-zz      sig-xy      sig-yz      sig-zx       plastic
                                                                                                 strain 
      94-
 mid.  surface    -2.6329E+07 -5.6407E+07 -3.9220E+08  6.0502E+06 -7.5787E+08 -8.1315E+08 -4.2065E-03
      98-
 mid.  surface     3.0761E+07  2.6421E+06 -5.2402E+08  2.6002E+06 -2.3494E+08 -1.6447E+08 -5.6714E-03
     100-
 mid.  surface     8.2932E+07  1.4192E+08 -3.6215E+08  3.8898E+07  4.8336E+08  6.5924E+07 -3.6073E-03
     101-
 mid.  surface     2.1397E+07 -1.6005E+07 -3.3838E+08  2.6906E+07  3.5296E+08  5.2025E+08  5.4650E-03
     104-
 mid.  surface     1.0295E+07  6.2891E+07 -3.8189E+08  4.0808E+07  9.6734E+08  3.8123E+08 -2.5434E-03
     105-
 mid.  surface    -7.8506E+07 -1.0500E+08 -2.6488E+08  1.4603E+07  8.1382E+08  7.8372E+08  6.4390E-03
     108-
 mid.  surface    -2.4516E+07  1.2238E+08 -4.0577E+08  9.3454E+05  2.4826E+08 -1.6138E+08 -2.0289E-03
     109-
 mid.  surface     1.1886E+08  3.6762E+07 -4.7174E+08  2.8015E+07  1.3294E+08  3.9532E+08  3.6476E-04
     112-
 mid.  surface    -2.7164E+07  6.8261E+07 -4.8155E+08  1.8880E+07  1.0291E+09  3.8336E+08 -3.8460E-03
     113-
 mid.  surface     3.2754E+07 -4.3336E+07 -4.2956E+08  1.9350E+07  8.9527E+08  8.2453E+08 -2.9697E-04
     131-
 mid.  surface    -3.9927E+08 -4.0880E+08 -2.3600E+08 -3.4779E+06 -8.1876E+08 -7.4617E+08  1.1995E-02
     134-
 mid.  surface    -4.8100E+08 -5.6869E+08 -1.1045E+08 -3.1194E+07 -9.2126E+08 -3.9010E+08  2.0699E-02
     135-
 mid.  surface    -2.5908E+08 -2.6298E+08 -2.7365E+08  2.5509E+07 -3.2172E+08 -4.6016E+08 -7.9317E-04
     138-
 mid.  surface    -3.3065E+08 -4.4178E+08 -2.3831E+08  1.0304E+07 -5.4774E+08 -1.1525E+08  9.5782E-03
     139-
 mid.  surface    -4.7320E+08 -4.2513E+08 -3.7529E+07 -1.1544E+07 -9.0130E+08 -7.7088E+08  1.7767E-02
     142-
 mid.  surface    -3.8668E+08 -5.0798E+08  4.3556E+07 -1.3240E+07 -9.8297E+08 -3.9733E+08  2.0964E-02
     143-
 mid.  surface    -2.5376E+08 -2.0740E+08 -2.2395E+08  2.2739E+07 -9.6917E+07 -3.2088E+08  1.0797E-03
     146-
 mid.  surface    -1.3921E+08 -3.4154E+08 -1.8516E+08  4.1317E+07 -3.8692E+08  9.3010E+06  5.8425E-03
     155-
 mid.  surface     3.3056E+07  5.4527E+07  5.3153E+07 -2.8322E+07  4.6692E+08 -1.5868E+08  4.9391E-03
     156-
 mid.  surface    -4.9847E+08 -4.1289E+08 -8.8674E+08  1.2679E+08  1.3513E+09  2.5258E+07 -2.0315E-03
     157-
 mid.  surface    -3.2452E+08 -3.1707E+08 -8.3910E+08  2.7612E+08 -6.1588E+08  1.7200E+07 -9.3983E-03
     158-
 mid.  surface     1.1450E+08  5.1248E+07  2.0738E+08  4.0311E+07 -2.0686E+08  7.5858E+06  9.9124E-03
     159-
 mid.  surface    -1.4783E+07  1.9158E+07  9.5177E+07 -5.5301E+07  3.7763E+08  2.3607E+08  7.5293E-03
     160-
 mid.  surface    -3.5912E+08 -2.6338E+08 -8.5967E+08  1.4820E+08  4.8503E+08  8.1593E+07 -1.1652E-02
     161-
 mid.  surface    -4.7441E+08 -4.4523E+08 -7.6915E+08  2.2455E+08 -1.5155E+09 -2.9384E+07  1.7655E-03
     162-
 mid.  surface     7.8932E+07  2.7127E+07  2.7353E+08  1.7985E+07 -3.4938E+08  3.2977E+08  1.1201E-02
     163-
 mid.  surface     3.4480E+08  3.0655E+08  2.8366E+08 -1.3938E+08  1.3441E+09 -3.1084E+08  1.5348E-02
     164-
 mid.  surface    -6.0802E+08 -5.6873E+08 -7.5523E+08  1.4458E+08  1.5728E+09  8.7108E+07 -1.3139E-03
     165-
 mid.  surface    -2.6948E+08 -2.5717E+08 -4.8082E+08  2.3244E+08  1.9989E+08  5.8812E+07 -1.4091E-02
     166-
 mid.  surface     4.4895E+08  3.7200E+08  3.6696E+08 -8.5673E+07  3.2076E+08 -2.4420E+08  1.9645E-02
     167-
 mid.  surface     2.7281E+08  2.3951E+08  2.1269E+08 -1.3433E+08 -4.6670E+08 -3.6708E+08  1.6255E-02
     168-
 mid.  surface    -4.0576E+08 -3.4177E+08 -5.8714E+08  2.0208E+08 -2.7672E+08  1.8727E+08 -1.6717E-02
     169-
 mid.  surface    -5.9659E+08 -5.9069E+08 -5.6167E+08  1.9679E+08 -1.5384E+09  1.0301E+07  5.8482E-03
     170-
 mid.  surface     3.7432E+08  3.0647E+08  4.4882E+08 -8.3629E+07 -1.5181E+09 -2.0685E+08  2.0029E-02
     187-
 mid.  surface     9.0598E+07 -5.6602E+07 -3.1675E+08  5.5738E+07 -5.4293E+07 -5.4108E+08 -1.4958E-03
     188-
 mid.  surface    -1.0379E+07 -1.5293E+08 -1.8922E+08  4.3954E+06  5.9869E+08  5.8806E+07  3.3665E-03
     195-
 mid.  surface     1.6090E+08  9.2523E+07 -1.9591E+08  5.6986E+07 -1.0573E+08 -2.5891E+07 -2.4925E-03
     196-
 mid.  surface    -2.4720E+08 -3.0977E+08 -2.5409E+08 -1.7905E+07 -3.7840E+07  1.2985E+08  9.8535E-03
     197-
 mid.  surface    -5.1702E+08 -4.3069E+08 -3.1738E+08 -2.0321E+07 -2.5214E+08 -1.9012E+08  1.1937E-02
     198-
 mid.  surface    -1.2526E+08 -4.7555E+07 -2.4735E+08  4.9210E+07 -3.0666E+08 -3.4205E+08  1.1929E-03
     199-
 mid.  surface     1.1131E+08  3.7909E+07 -2.1779E+08  4.8909E+07  2.4913E+08  3.2823E+08 -1.0475E-03
     200-
 mid.  surface    -2.8108E+08 -3.4606E+08 -2.7833E+08 -1.9489E+07  3.2771E+08  2.1211E+08  1.0128E-02
     201-
 mid.  surface    -5.3645E+08 -4.5482E+08 -3.5560E+08 -1.7865E+07  8.8375E+07 -1.0739E+08  1.1807E-02
     202-
 mid.  surface    -1.0783E+08 -4.4945E+07 -2.9446E+08  5.4996E+07  4.4662E+07 -6.4482E+06 -1.1479E-03
     219-
 mid.  surface     1.3242E+08 -1.1945E+08 -4.9948E+08 -9.4463E+07 -1.6666E+08  3.9549E+07 -3.3680E-03
     220-
 mid.  surface    -1.0910E+08 -2.2185E+07 -3.7957E+08  5.9268E+07  4.1269E+07  8.2464E+07  3.4452E-03
     221-
 mid.  surface    -3.9336E+08 -1.4106E+08  2.0910E+08  9.6576E+07 -3.0059E+08 -4.1922E+08  9.9252E-03
     222-
 mid.  surface    -2.4755E+08 -2.9006E+08  7.3327E+07 -3.9443E+07 -4.9134E+08 -4.8734E+08  6.5302E-03
     223-
 mid.  surface     1.0689E+08 -1.4962E+08 -6.1027E+08 -9.0044E+07  3.1951E+08  5.0546E+08 -2.0157E-03
     224-
 mid.  surface    -1.0041E+08 -3.1609E+07 -5.3771E+08  6.2552E+07  5.3976E+08  4.0747E+08  2.5522E-03
     225-
 mid.  surface    -3.7002E+08 -1.1105E+08  1.3624E+07  1.2244E+08  9.8220E+07 -1.3850E+08  7.8815E-03
     226-
 mid.  surface    -1.0634E+08 -2.1501E+08 -1.8130E+08 -4.3348E+07 -1.0375E+08 -1.7446E+08 -3.0592E-04



 n o d a l  s t r a i n  c a l c u l a t i o n s   f o r   t i m e  s t e p      109   ( at time 6.34686E+01 )

 node (global)
          strain       eps-xx      eps-yy      eps-zz      eps-xy      eps-yz      eps-zx       
      94-
 mid.  surface    -6.5736E-04 -1.1638E-03 -4.8649E-04 -9.5757E-04 -9.5835E-03 -1.1178E-02
      98-
 mid.  surface    -7.3537E-04 -1.1267E-03 -5.0667E-04 -1.1918E-03  1.2330E-03  3.3372E-03
     100-
 mid.  surface     2.8120E-03  3.8515E-03 -7.0553E-03  1.6907E-03 -7.5645E-03 -9.8096E-03
     101-
 mid.  surface     2.5048E-03  1.0396E-03 -4.9664E-03  5.9341E-04 -3.7412E-03 -2.0431E-03
     104-
 mid.  surface     2.4288E-03  3.5019E-03 -7.5067E-03  1.2190E-03  2.0675E-02  1.0332E-02
     105-
 mid.  surface     2.1216E-03  8.9699E-04 -5.1002E-03  3.3254E-04  1.1555E-02  1.1516E-02
     108-
 mid.  surface     2.0125E-03  4.0674E-03 -7.4634E-03  1.0623E-03 -4.1437E-03 -8.3582E-03
     109-
 mid.  surface     2.2496E-03  3.5797E-04 -4.0719E-03  2.1491E-04 -1.6743E-03  7.9171E-04
     112-
 mid.  surface     1.7271E-03  3.7621E-03 -7.6531E-03  6.1070E-04  1.9303E-02  7.9777E-03
     113-
 mid.  surface     1.8297E-03  2.1264E-04 -4.1384E-03 -1.4893E-04  1.1946E-02  1.2122E-02
     131-
 mid.  surface     3.4104E-03  1.9976E-03 -1.1182E-02  1.5463E-03 -1.8977E-02 -1.5411E-02
     134-
 mid.  surface     3.1465E-03 -5.1697E-04 -8.7024E-03  5.5784E-04 -1.2684E-02 -1.1490E-02
     135-
 mid.  surface     3.3876E-03  3.0407E-03 -9.6384E-03  1.9164E-03  7.6846E-03  6.2916E-03
     138-
 mid.  surface     3.2642E-03 -1.7679E-05 -7.6670E-03  8.7891E-04  2.2989E-03  2.6707E-03
     139-
 mid.  surface     2.6215E-03  2.2643E-03 -1.0089E-02  1.1253E-03 -1.7929E-02 -1.3670E-02
     142-
 mid.  surface     2.9154E-03 -1.1751E-03 -6.3693E-03  2.3819E-04 -1.4356E-02 -1.1759E-02
     143-
 mid.  surface     2.6416E-03  3.2377E-03 -8.4836E-03  1.4420E-03  4.8396E-03  3.2951E-03
     146-
 mid.  surface     3.1102E-03 -6.0754E-04 -5.0963E-03  5.6951E-04 -6.4580E-04 -6.5802E-04
     155-
 mid.  surface    -3.5611E-04 -8.3239E-04  1.9494E-03 -4.3263E-04 -2.4031E-04 -7.4337E-03
     156-
 mid.  surface    -2.8656E-04  4.1759E-03 -1.2963E-02  3.9683E-04  2.5043E-02 -3.6634E-03
     157-
 mid.  surface     3.5738E-03  6.1925E-03 -1.5859E-02  5.5832E-03  2.5880E-03 -6.4527E-03
     158-
 mid.  surface     3.5500E-03 -3.7930E-05 -1.3222E-03  3.3179E-03 -1.7043E-03 -4.9368E-03
     159-
 mid.  surface    -3.7579E-04 -9.1383E-04  1.3593E-03 -4.3935E-04  5.6803E-04  5.3741E-03
     160-
 mid.  surface    -9.4678E-05  5.4646E-03 -1.2383E-02  9.4895E-04 -4.5308E-03  6.1600E-03
     161-
 mid.  surface     3.7032E-03  5.2589E-03 -1.7450E-02  6.0093E-03 -2.7204E-02  8.3710E-04
     162-
 mid.  surface     3.5715E-03  4.9041E-05 -1.7625E-03  3.5466E-03 -1.3916E-03  2.0319E-03
     163-
 mid.  surface    -4.7791E-04 -4.7706E-03  9.9243E-03 -2.1190E-03  2.9228E-04 -1.5693E-02
     164-
 mid.  surface     2.3083E-04  3.8918E-03 -1.4462E-02  9.4558E-04  4.0823E-02 -1.4216E-03
     165-
 mid.  surface     3.8876E-03  7.6261E-03 -1.4229E-02  6.0442E-03 -1.1105E-02 -1.0125E-02
     166-
 mid.  surface     3.5699E-03 -3.7986E-03  6.6365E-03  3.1242E-03 -3.2596E-03 -8.3941E-03
     167-
 mid.  surface    -5.7760E-04 -5.3994E-03  8.4449E-03 -2.2318E-03  1.3019E-03 -2.4645E-03
     168-
 mid.  surface     1.3974E-04  6.7275E-03 -1.2630E-02  1.9787E-03  6.5288E-03  8.0496E-03
     169-
 mid.  surface     3.8337E-03  4.5559E-03 -1.8169E-02  6.5542E-03 -4.5630E-02 -3.3334E-03
     170-
 mid.  surface     3.4672E-03 -3.7243E-03  5.6364E-03  3.3861E-03 -2.6529E-03  3.6595E-04
     187-
 mid.  surface     3.2772E-03 -5.5764E-04 -3.8854E-03  1.4936E-03 -2.2809E-03 -3.2857E-03
     188-
 mid.  surface     3.1248E-03 -6.6839E-04 -4.3493E-03  1.2753E-03  7.2356E-03  2.7404E-03
     195-
 mid.  surface     4.2159E-03  2.2006E-03 -6.0213E-03  1.8620E-03 -1.2947E-02 -7.0248E-03
     196-
 mid.  surface     3.3208E-03  1.6824E-03 -8.7347E-03  9.5726E-04 -8.8328E-03  2.7305E-03
     197-
 mid.  surface     2.8099E-03  2.4280E-03 -1.1293E-02  1.2933E-03 -9.8576E-03  1.3008E-03
     198-
 mid.  surface     3.5212E-03  2.9100E-03 -8.6471E-03  2.0037E-03 -1.4754E-02 -1.1487E-02
     199-
 mid.  surface     3.9530E-03  1.8880E-03 -6.2517E-03  1.4386E-03  1.3517E-02  1.0773E-02
     200-
 mid.  surface     2.9769E-03  1.5703E-03 -8.7925E-03  8.6967E-04  9.1980E-03 -1.9502E-03
     201-
 mid.  surface     2.3712E-03  2.4696E-03 -1.1315E-02  1.3342E-03  8.0924E-03 -3.3516E-03
     202-
 mid.  surface     3.4711E-03  2.7908E-03 -8.3511E-03  1.9352E-03  1.2269E-02  5.8788E-03
     219-
 mid.  surface     3.9560E-03  7.6049E-04 -6.8735E-03 -5.2219E-04 -7.5792E-03 -8.3760E-04
     220-
 mid.  surface     1.0585E-03  2.1127E-03 -5.5606E-03  6.5051E-04 -5.9500E-03 -1.0589E-04
     221-
 mid.  surface     4.9644E-04  2.6701E-03 -4.7310E-03  1.2562E-03 -6.9195E-03 -5.3551E-03
     222-
 mid.  surface     2.8761E-03  1.1077E-03 -6.3884E-03 -9.8687E-05 -1.1663E-02 -1.3590E-02
     223-
 mid.  surface     3.8049E-03  1.0115E-04 -7.1721E-03 -9.8985E-04  7.7105E-03  9.3077E-03
     224-
 mid.  surface     6.0019E-04  1.8091E-03 -5.6629E-03  6.6537E-04  5.9600E-03  1.1437E-03
     225-
 mid.  surface    -8.6799E-05  2.5886E-03 -4.7203E-03  1.6308E-03  3.8262E-03 -3.8210E-03
     226-
 mid.  surface     2.9238E-03  7.9685E-04 -5.9266E-03  6.6681E-05  2.8060E-03 -3.0399E-03
