 LS-DYNA keyword deck by LS-PrePost                                      
                    ls-dyna smp d R14 R14.1.1s_1_ef50e1 date 06/16/2024



 e l e m e n t   s t r e s s   c a l c u l a t i o n s   f o r   t i m e  s t e p        1   ( at time 0.00000E+00 )

 element  materl
     ipt  stress       sig-xx      sig-yy      sig-zz      sig-xy      sig-yz      sig-zx                       yield
           state                                                                                  effsg      function
      45-      1
       1          -1.9509E-06 -1.9509E-06 -1.9509E-06  0.0000E+00  0.0000E+00  0.0000E+00    0.0000E+00    0.0000E+00
      47-      1
       1          -3.9019E-06 -3.9019E-06 -3.9019E-06  0.0000E+00  0.0000E+00  0.0000E+00    0.0000E+00    0.0000E+00
      53-      1
       1          -1.9509E-06 -1.9509E-06 -1.9509E-06  0.0000E+00  0.0000E+00  0.0000E+00    0.0000E+00    0.0000E+00
      61-      1
       1          -3.9019E-06 -3.9019E-06 -3.9019E-06  0.0000E+00  0.0000E+00  0.0000E+00    0.0000E+00    0.0000E+00
      67-      1
       1          -1.9509E-06 -1.9509E-06 -1.9509E-06  0.0000E+00  0.0000E+00  0.0000E+00    0.0000E+00    0.0000E+00
      79-      1
       1          -1.9509E-06 -1.9509E-06 -1.9509E-06  0.0000E+00  0.0000E+00  0.0000E+00    0.0000E+00    0.0000E+00
      81-      1
       1          -1.9509E-06 -1.9509E-06 -1.9509E-06  0.0000E+00  0.0000E+00  0.0000E+00    0.0000E+00    0.0000E+00



 e l e m e n t   s t r a i n   c a l c u l a t i o n s   f o r   t i m e  s t e p        1   ( at time  0.00000E+00 )

 element  strain       eps-xx      eps-yy      eps-zz      eps-xy      eps-yz      eps-zx                            yield
 num/ipt   state
      45-      1
      1            0.0000E+00  0.0000E+00  0.0000E+00  0.0000E+00  0.0000E+00  0.0000E+00
      47-      1
      1            0.0000E+00  0.0000E+00  0.0000E+00  0.0000E+00  0.0000E+00  0.0000E+00
      53-      1
      1            0.0000E+00  0.0000E+00  0.0000E+00  0.0000E+00  0.0000E+00  0.0000E+00
      61-      1
      1            0.0000E+00  0.0000E+00  0.0000E+00  0.0000E+00  0.0000E+00  0.0000E+00
      67-      1
      1            0.0000E+00  0.0000E+00  0.0000E+00  0.0000E+00  0.0000E+00  0.0000E+00
      79-      1
      1            0.0000E+00  0.0000E+00  0.0000E+00  0.0000E+00  0.0000E+00  0.0000E+00
      81-      1
      1            0.0000E+00  0.0000E+00  0.0000E+00  0.0000E+00  0.0000E+00  0.0000E+00



 e l e m e n t   s t r e s s   c a l c u l a t i o n s   f o r   t i m e  s t e p        6   ( at time 2.50000E+00 )

 element  materl
     ipt  stress       sig-xx      sig-yy      sig-zz      sig-xy      sig-yz      sig-zx                       yield
           state                                                                                  effsg      function
      45-      1
       1          -4.3248E+06 -4.2960E+06 -1.1590E+07  7.5883E+04 -1.0188E+05 -6.8225E+04    7.2840E+06    0.0000E+00
      47-      1
       1          -4.2124E+06 -4.1876E+06 -1.1505E+07  7.3105E+04 -2.3378E+05 -1.5718E+05    7.3221E+06    0.0000E+00
      53-      1
       1          -4.3058E+06 -4.2676E+06 -1.1761E+07  1.3471E+05 -1.1130E+05 -8.7648E+04    7.4822E+06    0.0000E+00
      61-      1
       1          -4.2087E+06 -4.4224E+06 -1.2787E+07  1.5465E+05 -7.9776E+04 -1.4275E+05    8.4823E+06    0.0000E+00
      67-      1
       1          -3.6936E+06 -3.8158E+06 -1.1902E+07  1.0285E+05 -3.3537E+05 -5.9285E+05    8.2348E+06    0.0000E+00
      79-      1
       1          -4.2869E+06 -4.2049E+06 -1.2336E+07  1.1997E+05 -1.5064E+05 -1.9541E+05    8.1041E+06    0.0000E+00
      81-      1
       1          -4.0842E+06 -4.0120E+06 -1.2083E+07  1.0746E+05 -2.2463E+05 -2.9255E+05    8.0629E+06    0.0000E+00



 e l e m e n t   s t r a i n   c a l c u l a t i o n s   f o r   t i m e  s t e p        6   ( at time  2.50000E+00 )

 element  strain       eps-xx      eps-yy      eps-zz      eps-xy      eps-yz      eps-zx                            yield
 num/ipt   state
      45-      1
      1            1.4084E-05  1.4633E-05 -1.2457E-04  1.4482E-06 -1.9442E-06 -1.3019E-06
      47-      1
      1            1.4766E-05  1.5238E-05 -1.2440E-04  1.3953E-06 -4.4610E-06 -2.9994E-06
      53-      1
      1            1.5038E-05  1.5767E-05 -1.2724E-04  2.5707E-06 -2.1239E-06 -1.6725E-06
      61-      1
      1            2.2069E-05  1.7991E-05 -1.4164E-04  2.9514E-06 -1.5223E-06 -2.7239E-06
      67-      1
      1            2.2307E-05  1.9975E-05 -1.3434E-04  1.9630E-06 -6.3995E-06 -1.1313E-05
      79-      1
      1            1.7755E-05  1.9319E-05 -1.3585E-04  2.2891E-06 -2.8745E-06 -3.7288E-06
      81-      1
      1            1.8526E-05  1.9902E-05 -1.3413E-04  2.0506E-06 -4.2862E-06 -5.5823E-06



 e l e m e n t   s t r e s s   c a l c u l a t i o n s   f o r   t i m e  s t e p       12   ( at time 6.46223E+00 )

 element  materl
     ipt  stress       sig-xx      sig-yy      sig-zz      sig-xy      sig-yz      sig-zx                       yield
           state                                                                                  effsg      function
      45-      1
       1          -1.1135E+07 -1.1085E+07 -2.9893E+07  2.2169E+05 -2.5099E+05 -2.0358E+05    1.8796E+07    0.0000E+00
      47-      1
       1          -1.0849E+07 -1.0808E+07 -2.9679E+07  2.1169E+05 -5.7500E+05 -4.6725E+05    1.8898E+07    0.0000E+00
      53-      1
       1          -1.1122E+07 -1.1037E+07 -3.0402E+07  3.4463E+05 -2.8453E+05 -2.3186E+05    1.9342E+07    0.0000E+00
      61-      1
       1          -1.0910E+07 -1.1433E+07 -3.3064E+07  4.2610E+05 -2.1062E+05 -3.5965E+05    2.1921E+07    0.0000E+00
      67-      1
       1          -9.5718E+06 -9.8652E+06 -3.0788E+07  2.8530E+05 -8.9147E+05 -1.5005E+06    2.1293E+07    0.0000E+00
      79-      1
       1          -1.1068E+07 -1.0886E+07 -3.1886E+07  3.1194E+05 -3.8405E+05 -4.9948E+05    2.0945E+07    0.0000E+00
      81-      1
       1          -1.0545E+07 -1.0385E+07 -3.1228E+07  2.7891E+05 -5.7190E+05 -7.4602E+05    2.0833E+07    0.0000E+00



 e l e m e n t   s t r a i n   c a l c u l a t i o n s   f o r   t i m e  s t e p       12   ( at time  6.46223E+00 )

 element  strain       eps-xx      eps-yy      eps-zz      eps-xy      eps-yz      eps-zx                            yield
 num/ipt   state
      45-      1
      1            3.6630E-05  3.7587E-05 -3.2135E-04  4.2312E-06 -4.7899E-06 -3.8851E-06
      47-      1
      1            3.8372E-05  3.9161E-05 -3.2098E-04  4.0413E-06 -1.0973E-05 -8.9169E-06
      53-      1
      1            3.9017E-05  4.0638E-05 -3.2891E-04  6.5767E-06 -5.4299E-06 -4.4248E-06
      61-      1
      1            5.6664E-05  4.6685E-05 -3.6611E-04  8.1320E-06 -4.0194E-06 -6.8634E-06
      67-      1
      1            5.7435E-05  5.1836E-05 -3.4746E-04  5.4450E-06 -1.7013E-05 -2.8636E-05
      79-      1
      1            4.6155E-05  4.9641E-05 -3.5112E-04  5.9498E-06 -7.3289E-06 -9.5319E-06
      81-      1
      1            4.8109E-05  5.1149E-05 -3.4660E-04  5.3213E-06 -1.0914E-05 -1.4237E-05



 e l e m e n t   s t r e s s   c a l c u l a t i o n s   f o r   t i m e  s t e p       18   ( at time 1.27419E+01 )

 element  materl
     ipt  stress       sig-xx      sig-yy      sig-zz      sig-xy      sig-yz      sig-zx                       yield
           state                                                                                  effsg      function
      45-      1
       1          -2.1823E+07 -2.1785E+07 -5.8715E+07  5.4081E+05 -5.2860E+05 -5.0351E+05    3.6945E+07    0.0000E+00
      47-      1
       1          -2.1268E+07 -2.1249E+07 -5.8309E+07  5.1502E+05 -1.2106E+06 -1.1540E+06    3.7174E+07    0.0000E+00
      53-      1
       1          -2.1852E+07 -2.1694E+07 -5.9950E+07  7.7302E+05 -6.2137E+05 -5.2672E+05    3.8227E+07    0.0000E+00
      61-      1
       1          -2.1584E+07 -2.2521E+07 -6.5181E+07  8.9098E+05 -4.3581E+05 -6.8463E+05    4.3187E+07    0.0000E+00
      67-      1
       1          -1.8921E+07 -1.9429E+07 -6.0695E+07  6.0084E+05 -1.8475E+06 -2.8648E+06    4.1953E+07    0.0000E+00
      79-      1
       1          -2.1843E+07 -2.1498E+07 -6.2979E+07  6.2165E+05 -6.7628E+05 -9.9949E+05    4.1376E+07    0.0000E+00
      81-      1
       1          -2.0803E+07 -2.0503E+07 -6.1659E+07  5.5869E+05 -1.0055E+06 -1.4899E+06    4.1136E+07    0.0000E+00



 e l e m e n t   s t r a i n   c a l c u l a t i o n s   f o r   t i m e  s t e p       18   ( at time  1.27419E+01 )

 element  strain       eps-xx      eps-yy      eps-zz      eps-xy      eps-yz      eps-zx                            yield
 num/ipt   state
      45-      1
      1            7.2711E-05  7.3419E-05 -6.3133E-04  1.0324E-05 -1.0090E-05 -9.6099E-06
      47-      1
      1            7.6148E-05  7.6527E-05 -6.3078E-04  9.8372E-06 -2.3106E-05 -2.2026E-05
      53-      1
      1            7.7761E-05  8.0774E-05 -6.4930E-04  1.4751E-05 -1.1860E-05 -1.0053E-05
      61-      1
      1            1.1054E-04  9.2662E-05 -7.2144E-04  1.7005E-05 -8.3180E-06 -1.3067E-05
      67-      1
      1            1.1242E-04  1.0271E-04 -6.8480E-04  1.1467E-05 -3.5263E-05 -5.4679E-05
      79-      1
      1            9.1413E-05  9.7990E-05 -6.9357E-04  1.1844E-05 -1.2908E-05 -1.9076E-05
      81-      1
      1            9.5223E-05  1.0096E-04 -6.8444E-04  1.0653E-05 -1.9190E-05 -2.8436E-05



 e l e m e n t   s t r e s s   c a l c u l a t i o n s   f o r   t i m e  s t e p       24   ( at time 2.26946E+01 )

 element  materl
     ipt  stress       sig-xx      sig-yy      sig-zz      sig-xy      sig-yz      sig-zx                       yield
           state                                                                                  effsg      function
      45-      1
       1          -3.8658E+07 -3.8691E+07 -1.0418E+08  1.1375E+06 -9.8888E+05 -1.0711E+06    6.5585E+07    0.0000E+00
      47-      1
       1          -3.7685E+07 -3.7758E+07 -1.0348E+08  1.0806E+06 -2.2640E+06 -2.4523E+06    6.6043E+07    0.0000E+00
      53-      1
       1          -3.8813E+07 -3.8545E+07 -1.0678E+08  1.5210E+06 -1.2020E+06 -1.0517E+06    6.8210E+07    0.0000E+00
      61-      1
       1          -3.8586E+07 -4.0101E+07 -1.1608E+08  1.6713E+06 -8.0771E+05 -1.1774E+06    7.6844E+07    0.0000E+00
      67-      1
       1          -3.3791E+07 -3.4586E+07 -1.0810E+08  1.1321E+06 -3.4266E+06 -4.9458E+06    7.4667E+07    0.0000E+00
      79-      1
       1          -3.8947E+07 -3.8371E+07 -1.1235E+08  1.1203E+06 -1.0704E+06 -1.7999E+06    7.3809E+07    0.0000E+00
      81-      1
       1          -3.7082E+07 -3.6581E+07 -1.0996E+08  1.0113E+06 -1.5885E+06 -2.6775E+06    7.3349E+07    0.0000E+00



 e l e m e n t   s t r a i n   c a l c u l a t i o n s   f o r   t i m e  s t e p       24   ( at time  2.26946E+01 )

 element  strain       eps-xx      eps-yy      eps-zz      eps-xy      eps-yz      eps-zx                            yield
 num/ipt   state
      45-      1
      1            1.3013E-04  1.2944E-04 -1.1203E-03  2.1721E-05 -1.8881E-05 -2.0446E-05
      47-      1
      1            1.3627E-04  1.3498E-04 -1.1196E-03  2.0659E-05 -4.3226E-05 -4.6812E-05
      53-      1
      1            1.3963E-04  1.4475E-04 -1.1574E-03  2.9021E-05 -2.2946E-05 -2.0077E-05
      61-      1
      1            1.9476E-04  1.6584E-04 -1.2841E-03  3.1898E-05 -1.5420E-05 -2.2480E-05
      67-      1
      1            1.9880E-04  1.8363E-04 -1.2192E-03  2.1607E-05 -6.5415E-05 -9.4425E-05
      79-      1
      1            1.6344E-04  1.7442E-04 -1.2372E-03  2.1292E-05 -2.0434E-05 -3.4361E-05
      81-      1
      1            1.7015E-04  1.7975E-04 -1.2205E-03  1.9256E-05 -3.0327E-05 -5.1114E-05



 e l e m e n t   s t r e s s   c a l c u l a t i o n s   f o r   t i m e  s t e p       68   ( at time 3.84686E+01 )

 element  materl
     ipt  stress       sig-xx      sig-yy      sig-zz      sig-xy      sig-yz      sig-zx                       yield
           state                                                                                  effsg      function
      45-      1
       1          -6.5542E+07 -6.5801E+07 -1.7631E+08  2.2491E+06 -1.7526E+06 -2.1368E+06    1.1081E+08    0.0000E+00
      47-      1
       1          -6.3874E+07 -6.4203E+07 -1.7517E+08  2.1324E+06 -4.0204E+06 -4.8896E+06    1.1173E+08    0.0000E+00
      53-      1
       1          -6.6005E+07 -6.5598E+07 -1.8147E+08  2.8425E+06 -2.2041E+06 -1.9885E+06    1.1589E+08    0.0000E+00
      61-      1
       1          -6.6094E+07 -6.8451E+07 -1.9746E+08  3.0107E+06 -1.4196E+06 -1.9166E+06    1.3037E+08    0.0000E+00
      67-      1
       1          -5.7533E+07 -5.8745E+07 -1.8385E+08  2.0508E+06 -6.0584E+06 -8.1645E+06    1.2699E+08    0.0000E+00
      79-      1
       1          -6.6448E+07 -6.5566E+07 -1.9140E+08  1.9610E+06 -1.5570E+06 -3.0789E+06    1.2558E+08    0.0000E+00
      81-      1
       1          -6.3162E+07 -6.2374E+07 -1.8726E+08  1.7811E+06 -2.3258E+06 -4.5798E+06    1.2485E+08    0.0000E+00



 e l e m e n t   s t r a i n   c a l c u l a t i o n s   f o r   t i m e  s t e p       68   ( at time  3.84686E+01 )

 element  strain       eps-xx      eps-yy      eps-zz      eps-xy      eps-yz      eps-zx                            yield
 num/ipt   state
      45-      1
      1            2.2017E-04  2.1498E-04 -1.8935E-03  4.2973E-05 -3.3478E-05 -4.0799E-05
      47-      1
      1            2.3102E-04  2.2513E-04 -1.8937E-03  4.0840E-05 -7.6799E-05 -9.3362E-05
      53-      1
      1            2.3718E-04  2.4496E-04 -1.9663E-03  5.4222E-05 -4.2091E-05 -3.7971E-05
      61-      1
      1            3.2589E-04  2.8092E-04 -2.1807E-03  5.7460E-05 -2.7111E-05 -3.6611E-05
      67-      1
      1            3.3695E-04  3.1378E-04 -2.0736E-03  3.9138E-05 -1.1570E-04 -1.5595E-04
      79-      1
      1            2.7787E-04  2.9468E-04 -2.1057E-03  3.7078E-05 -2.9738E-05 -5.8797E-05
      81-      1
      1            2.8998E-04  3.0509E-04 -2.0779E-03  3.3815E-05 -4.4422E-05 -8.7458E-05



 e l e m e n t   s t r e s s   c a l c u l a t i o n s   f o r   t i m e  s t e p      109   ( at time 6.34686E+01 )

 element  materl
     ipt  stress       sig-xx      sig-yy      sig-zz      sig-xy      sig-yz      sig-zx                       yield
           state                                                                                  effsg      function
      45-      1
       1          -8.6697E+07 -9.3257E+07 -2.2171E+08  2.2035E+07 -9.1278E+06 -2.2805E+07    1.4371E+08    2.0596E-03
      47-      1
       1          -1.0394E+08 -1.0689E+08 -2.0886E+08  1.6467E+07 -2.5134E+07 -3.7706E+07    1.3297E+08    3.7916E-03
      53-      1
       1          -1.1388E+08 -1.1582E+08 -3.0939E+08  1.7045E+07 -7.1631E+06 -5.9120E+06    1.9743E+08    9.2158E-04
      61-      1
       1          -1.3075E+08 -1.5491E+08 -2.9472E+08  1.4269E+07 -1.4334E+06 -5.0414E+06    1.5557E+08    3.4313E-03
      67-      1
       1          -1.1851E+08 -1.2909E+08 -2.7297E+08  4.5526E+06 -1.1904E+07 -3.5186E+07    1.6290E+08    2.1666E-03
      79-      1
       1          -1.4694E+08 -1.5366E+08 -2.8534E+08  1.2562E+07 -3.0506E+06 -6.9023E+06    1.3753E+08    3.9791E-03
      81-      1
       1          -1.3232E+08 -1.3965E+08 -2.8157E+08  9.2329E+06 -8.5604E+06 -1.5815E+07    1.4988E+08    3.4708E-03



 e l e m e n t   s t r a i n   c a l c u l a t i o n s   f o r   t i m e  s t e p      109   ( at time  6.34686E+01 )

 element  strain       eps-xx      eps-yy      eps-zz      eps-xy      eps-yz      eps-zx                            yield
 num/ipt   state
      45-      1
      1            1.1376E-03  7.3482E-04 -3.7739E-03  8.4275E-04 -4.2825E-04 -6.3115E-04
      47-      1
      1            1.4206E-03  1.0412E-03 -4.4522E-03  9.6729E-04 -9.7963E-04 -1.4980E-03
      53-      1
      1            1.1731E-03  1.1072E-03 -4.8344E-03  5.5067E-04 -5.0563E-04 -4.0841E-04
      61-      1
      1            3.5894E-03  1.8377E-03 -8.1974E-03  1.0285E-03 -3.1175E-04 -4.5047E-04
      67-      1
      1            1.9919E-03  1.3641E-03 -5.8367E-03  1.7668E-04 -1.1893E-03 -2.1180E-03
      79-      1
      1            2.4328E-03  1.9607E-03 -7.1840E-03  7.8735E-04 -4.9879E-04 -1.1368E-03
      81-      1
      1            2.0984E-03  1.7185E-03 -6.4549E-03  4.4415E-04 -8.3208E-04 -1.6056E-03
