 LS-DYNA keyword deck by LS-PrePost                                      
                    ls-dyna smp d R14 R14.1.1s_1_ef50e1 date 06/16/2024

{BEGIN LEGEND}
 Entity #        Title
       54                                                                                     
       55                                                                                     
       56                                                                                     
       57                                                                                     
       58                                                                                     
       59                                                                                     
       60                                                                                     
       61                                                                                     
       62                                                                                     
       63                                                                                     
       64                                                                                     
       65                                                                                     
       66                                                                                     
       67                                                                                     
       68                                                                                     
       69                                                                                     
       70                                                                                     
       71                                                                                     
       72                                                                                     
       73                                                                                     
       74                                                                                     
       75                                                                                     
       76                                                                                     
       77                                                                                     
       78                                                                                     
       79                                                                                     
       80                                                                                     
       81                                                                                     
       82                                                                                     
       83                                                                                     
       84                                                                                     
       85                                                                                     
       86                                                                                     
       87                                                                                     
       88                                                                                     
       89                                                                                     
       90                                                                                     
      663                                                                                     
      677                                                                                     
      678                                                                                     
      679                                                                                     
      680                                                                                     
      681                                                                                     
      790                                                                                     
      791                                                                                     
      793                                                                                     
      794                                                                                     
      796                                                                                     
      797                                                                                     
      799                                                                                     
      800                                                                                     
      802                                                                                     
      803                                                                                     
      805                                                                                     
      806                                                                                     
      939                                                                                     
      940                                                                                     
      942                                                                                     
      943                                                                                     
      945                                                                                     
      946                                                                                     
      948                                                                                     
      949                                                                                     
      951                                                                                     
      952                                                                                     
      954                                                                                     
      955                                                                                     
     1005                                                                                     
     1006                                                                                     
     1007                                                                                     
     1008                                                                                     
     1009                                                                                     
     1010                                                                                     
     1017                                                                                     
     1018                                                                                     
     1019                                                                                     
     1020                                                                                     
     1021                                                                                     
     1022                                                                                     
     1157                                                                                     
     1158                                                                                     
     1159                                                                                     
     1160                                                                                     
     1221                                                                                     
     1222                                                                                     
     1223                                                                                     
     1284                                                                                     
     1285                                                                                     
     1286                                                                                     
     1347                                                                                     
     1348                                                                                     
     1349                                                                                     
     1430                                                                                     
     1431                                                                                     
     1432                                                                                     
     1433                                                                                     
     1514                                                                                     
     1515                                                                                     
     1516                                                                                     
     1517                                                                                     
     1538                                                                                     
     1579                                                                                     
     1580                                                                                     
     1621                                                                                     
     1622                                                                                     
     1663                                                                                     
     1664                                                                                     
     1705                                                                                     
     1706                                                                                     
     1727                                                                                     
     1808                                                                                     
     1809                                                                                     
     1810                                                                                     
     1811                                                                                     
     1832                                                                                     
     1853                                                                                     
     1854                                                                                     
     1855                                                                                     
     1856                                                                                     
     1857                                                                                     
     1858                                                                                     
     1859                                                                                     
     1867                                                                                     
     1868                                                                                     
     1869                                                                                     
     1870                                                                                     
     1871                                                                                     
     1872                                                                                     
     1873                                                                                     
     1874                                                                                     
     1875                                                                                     
     1876                                                                                     
     1877                                                                                     
     1878                                                                                     
     1879                                                                                     
     1880                                                                                     
     1881                                                                                     
     1882                                                                                     
     1883                                                                                     
     1884                                                                                     
     1885                                                                                     
     1886                                                                                     
     1887                                                                                     
     1888                                                                                     
     1889                                                                                     
     1890                                                                                     
     1891                                                                                     
     1892                                                                                     
     1893                                                                                     
     1894                                                                                     
     1895                                                                                     
     1896                                                                                     
     1897                                                                                     
     1898                                                                                     
     1899                                                                                     
     1900                                                                                     
     1901                                                                                     
     1902                                                                                     
     3203                                                                                     
     3204                                                                                     
     3205                                                                                     
     3206                                                                                     
     3207                                                                                     
     3208                                                                                     
     3209                                                                                     
     3210                                                                                     
     3645                                                                                     
     3648                                                                                     
     3649                                                                                     
     3652                                                                                     
     3653                                                                                     
     3656                                                                                     
     3657                                                                                     
     3660                                                                                     
     3661                                                                                     
     3664                                                                                     
     3665                                                                                     
     3668                                                                                     
     4143                                                                                     
     4146                                                                                     
     4147                                                                                     
     4150                                                                                     
     4151                                                                                     
     4154                                                                                     
     4155                                                                                     
     4158                                                                                     
     4159                                                                                     
     4162                                                                                     
     4163                                                                                     
     4166                                                                                     
     4305                                                                                     
     4306                                                                                     
     4307                                                                                     
     4308                                                                                     
     4309                                                                                     
     4310                                                                                     
     4311                                                                                     
     4312                                                                                     
     4313                                                                                     
     4314                                                                                     
     4315                                                                                     
     4316                                                                                     
     4323                                                                                     
     4324                                                                                     
     4325                                                                                     
     4326                                                                                     
     4327                                                                                     
     4328                                                                                     
     4365                                                                                     
     4366                                                                                     
     4367                                                                                     
     4368                                                                                     
     4369                                                                                     
     4370                                                                                     
{END LEGEND}




 n o d a l   p r i n t   o u t   f o r   t i m e  s t e p       1                              ( at time 0.0000000E+00 )

 nodal point  x-disp     y-disp      z-disp      x-vel       y-vel       z-vel      x-accl      y-accl      z-accl      x-coor      y-coor      z-coor
       54  0.00000E+00 0.00000E+00 0.00000E+00 0.00000E+00 0.00000E+00 0.00000E+00 0.00000E+00 0.00000E+00 0.00000E+00 0.00000E+00 0.00000E+00 0.00000E+00
       55  0.00000E+00 0.00000E+00 0.00000E+00 0.00000E+00 0.00000E+00 0.00000E+00 0.00000E+00 0.00000E+00 0.00000E+00 2.64584E-04 0.00000E+00 0.00000E+00
       56  0.00000E+00 0.00000E+00 0.00000E+00 0.00000E+00 0.00000E+00 0.00000E+00 0.00000E+00 0.00000E+00 0.00000E+00 5.29166E-04 0.00000E+00 0.00000E+00
       57  0.00000E+00 0.00000E+00 0.00000E+00 0.00000E+00 0.00000E+00 0.00000E+00 0.00000E+00 0.00000E+00 0.00000E+00 7.93750E-04 0.00000E+00 0.00000E+00
       58  0.00000E+00 0.00000E+00 0.00000E+00 0.00000E+00 0.00000E+00 0.00000E+00 0.00000E+00 0.00000E+00 0.00000E+00 1.05830E-03 0.00000E+00 0.00000E+00
       59  0.00000E+00 0.00000E+00 0.00000E+00 0.00000E+00 0.00000E+00 0.00000E+00 0.00000E+00 0.00000E+00 0.00000E+00 1.32290E-03 0.00000E+00 0.00000E+00
       60  0.00000E+00 0.00000E+00 0.00000E+00 0.00000E+00 0.00000E+00 0.00000E+00 0.00000E+00 0.00000E+00 0.00000E+00 1.58750E-03 0.00000E+00 0.00000E+00
       61  0.00000E+00 0.00000E+00 0.00000E+00 0.00000E+00 0.00000E+00 0.00000E+00 0.00000E+00 0.00000E+00 0.00000E+00 1.53340E-03 4.10876E-04 0.00000E+00
       62  0.00000E+00 0.00000E+00 0.00000E+00 0.00000E+00 0.00000E+00 0.00000E+00 0.00000E+00 0.00000E+00 0.00000E+00 1.37480E-03 7.93749E-04 0.00000E+00
       63  0.00000E+00 0.00000E+00 0.00000E+00 0.00000E+00 0.00000E+00 0.00000E+00 0.00000E+00 0.00000E+00 0.00000E+00 1.12250E-03 1.12250E-03 0.00000E+00
       64  0.00000E+00 0.00000E+00 0.00000E+00 0.00000E+00 0.00000E+00 0.00000E+00 0.00000E+00 0.00000E+00 0.00000E+00 7.93749E-04 1.37480E-03 0.00000E+00
       65  0.00000E+00 0.00000E+00 0.00000E+00 0.00000E+00 0.00000E+00 0.00000E+00 0.00000E+00 0.00000E+00 0.00000E+00 4.10876E-04 1.53340E-03 0.00000E+00
       66  0.00000E+00 0.00000E+00 0.00000E+00 0.00000E+00 0.00000E+00 0.00000E+00 0.00000E+00 0.00000E+00 0.00000E+00 9.72100E-20 1.58750E-03 0.00000E+00
       67  0.00000E+00 0.00000E+00 0.00000E+00 0.00000E+00 0.00000E+00 0.00000E+00 0.00000E+00 0.00000E+00 0.00000E+00 8.10100E-20 1.32290E-03 0.00000E+00
       68  0.00000E+00 0.00000E+00 0.00000E+00 0.00000E+00 0.00000E+00 0.00000E+00 0.00000E+00 0.00000E+00 0.00000E+00 6.48000E-20 1.05830E-03 0.00000E+00
       69  0.00000E+00 0.00000E+00 0.00000E+00 0.00000E+00 0.00000E+00 0.00000E+00 0.00000E+00 0.00000E+00 0.00000E+00 4.86000E-20 7.93750E-04 0.00000E+00
       70  0.00000E+00 0.00000E+00 0.00000E+00 0.00000E+00 0.00000E+00 0.00000E+00 0.00000E+00 0.00000E+00 0.00000E+00 3.24000E-20 5.29167E-04 0.00000E+00
       71  0.00000E+00 0.00000E+00 0.00000E+00 0.00000E+00 0.00000E+00 0.00000E+00 0.00000E+00 0.00000E+00 0.00000E+00 1.62000E-20 2.64583E-04 0.00000E+00
       72  0.00000E+00 0.00000E+00 0.00000E+00 0.00000E+00 0.00000E+00 0.00000E+00 0.00000E+00 0.00000E+00 0.00000E+00 6.87392E-04 6.61456E-04 0.00000E+00
       73  0.00000E+00 0.00000E+00 0.00000E+00 0.00000E+00 0.00000E+00 0.00000E+00 0.00000E+00 0.00000E+00 0.00000E+00 7.40285E-04 4.45611E-04 0.00000E+00
       74  0.00000E+00 0.00000E+00 0.00000E+00 0.00000E+00 0.00000E+00 0.00000E+00 0.00000E+00 0.00000E+00 0.00000E+00 7.75719E-04 2.25151E-04 0.00000E+00
       75  0.00000E+00 0.00000E+00 0.00000E+00 0.00000E+00 0.00000E+00 0.00000E+00 0.00000E+00 0.00000E+00 0.00000E+00 8.21363E-04 7.99351E-04 0.00000E+00
       76  0.00000E+00 0.00000E+00 0.00000E+00 0.00000E+00 0.00000E+00 0.00000E+00 0.00000E+00 0.00000E+00 0.00000E+00 9.65301E-04 9.51462E-04 0.00000E+00
       77  0.00000E+00 0.00000E+00 0.00000E+00 0.00000E+00 0.00000E+00 0.00000E+00 0.00000E+00 0.00000E+00 0.00000E+00 9.39450E-04 5.49371E-04 0.00000E+00
       78  0.00000E+00 0.00000E+00 0.00000E+00 0.00000E+00 0.00000E+00 0.00000E+00 0.00000E+00 0.00000E+00 0.00000E+00 1.15030E-03 6.64769E-04 0.00000E+00
       79  0.00000E+00 0.00000E+00 0.00000E+00 0.00000E+00 0.00000E+00 0.00000E+00 0.00000E+00 0.00000E+00 0.00000E+00 1.01930E-03 2.80835E-04 0.00000E+00
       80  0.00000E+00 0.00000E+00 0.00000E+00 0.00000E+00 0.00000E+00 0.00000E+00 0.00000E+00 0.00000E+00 0.00000E+00 1.27130E-03 3.42602E-04 0.00000E+00
       81  0.00000E+00 0.00000E+00 0.00000E+00 0.00000E+00 0.00000E+00 0.00000E+00 0.00000E+00 0.00000E+00 0.00000E+00 4.69333E-04 7.21365E-04 0.00000E+00
       82  0.00000E+00 0.00000E+00 0.00000E+00 0.00000E+00 0.00000E+00 0.00000E+00 0.00000E+00 0.00000E+00 0.00000E+00 2.41324E-04 7.67032E-04 0.00000E+00
       83  0.00000E+00 0.00000E+00 0.00000E+00 0.00000E+00 0.00000E+00 0.00000E+00 0.00000E+00 0.00000E+00 0.00000E+00 5.75276E-04 9.25179E-04 0.00000E+00
       84  0.00000E+00 0.00000E+00 0.00000E+00 0.00000E+00 0.00000E+00 0.00000E+00 0.00000E+00 0.00000E+00 0.00000E+00 2.97167E-04 1.00970E-03 0.00000E+00
       85  0.00000E+00 0.00000E+00 0.00000E+00 0.00000E+00 0.00000E+00 0.00000E+00 0.00000E+00 0.00000E+00 0.00000E+00 6.79239E-04 1.13630E-03 0.00000E+00
       86  0.00000E+00 0.00000E+00 0.00000E+00 0.00000E+00 0.00000E+00 0.00000E+00 0.00000E+00 0.00000E+00 0.00000E+00 3.54279E-04 1.26320E-03 0.00000E+00
       87  0.00000E+00 0.00000E+00 0.00000E+00 0.00000E+00 0.00000E+00 0.00000E+00 0.00000E+00 0.00000E+00 0.00000E+00 5.05822E-04 4.85760E-04 0.00000E+00
       88  0.00000E+00 0.00000E+00 0.00000E+00 0.00000E+00 0.00000E+00 0.00000E+00 0.00000E+00 0.00000E+00 0.00000E+00 5.26111E-04 2.44500E-04 0.00000E+00
       89  0.00000E+00 0.00000E+00 0.00000E+00 0.00000E+00 0.00000E+00 0.00000E+00 0.00000E+00 0.00000E+00 0.00000E+00 2.59713E-04 5.14281E-04 0.00000E+00
       90  0.00000E+00 0.00000E+00 0.00000E+00 0.00000E+00 0.00000E+00 0.00000E+00 0.00000E+00 0.00000E+00 0.00000E+00 2.67702E-04 2.57775E-04 0.00000E+00
      663  0.00000E+00 0.00000E+00 0.00000E+00 0.00000E+00 0.00000E+00 0.00000E+00 0.00000E+00 0.00000E+00 0.00000E+00 1.94400E-19 3.17500E-03-5.33000E-18
      677  0.00000E+00 0.00000E+00 0.00000E+00 0.00000E+00 0.00000E+00 0.00000E+00 0.00000E+00 0.00000E+00 0.00000E+00 1.13400E-19 1.85210E-03 0.00000E+00
      678  0.00000E+00 0.00000E+00 0.00000E+00 0.00000E+00 0.00000E+00 0.00000E+00 0.00000E+00 0.00000E+00 0.00000E+00 1.29600E-19 2.11670E-03 0.00000E+00
      679  0.00000E+00 0.00000E+00 0.00000E+00 0.00000E+00 0.00000E+00 0.00000E+00 0.00000E+00 0.00000E+00 0.00000E+00 1.45800E-19 2.38130E-03 0.00000E+00
      680  0.00000E+00 0.00000E+00 0.00000E+00 0.00000E+00 0.00000E+00 0.00000E+00 0.00000E+00 0.00000E+00 0.00000E+00 1.62000E-19 2.64580E-03 0.00000E+00
      681  0.00000E+00 0.00000E+00 0.00000E+00 0.00000E+00 0.00000E+00 0.00000E+00 0.00000E+00 0.00000E+00 0.00000E+00 1.78200E-19 2.91040E-03 0.00000E+00
      790  0.00000E+00 0.00000E+00 0.00000E+00 0.00000E+00 0.00000E+00 0.00000E+00 0.00000E+00 0.00000E+00 0.00000E+00 4.79477E-04 1.78890E-03-1.47000E-18
      791  0.00000E+00 0.00000E+00 0.00000E+00 0.00000E+00 0.00000E+00 0.00000E+00 0.00000E+00 0.00000E+00 0.00000E+00 5.48078E-04 2.04450E-03-2.95000E-18
      793  0.00000E+00 0.00000E+00 0.00000E+00 0.00000E+00 0.00000E+00 0.00000E+00 0.00000E+00 0.00000E+00 0.00000E+00 9.26881E-04 1.60350E-03-1.16000E-18
      794  0.00000E+00 0.00000E+00 0.00000E+00 0.00000E+00 0.00000E+00 0.00000E+00 0.00000E+00 0.00000E+00 0.00000E+00 1.06000E-03 1.83210E-03-2.35000E-18
      796  0.00000E+00 0.00000E+00 0.00000E+00 0.00000E+00 0.00000E+00 0.00000E+00 0.00000E+00 0.00000E+00 0.00000E+00 1.31150E-03 1.30770E-03-8.72000E-19
      797  0.00000E+00 0.00000E+00 0.00000E+00 0.00000E+00 0.00000E+00 0.00000E+00 0.00000E+00 0.00000E+00 0.00000E+00 1.50050E-03 1.49290E-03-1.76000E-18
      799  0.00000E+00 0.00000E+00 0.00000E+00 0.00000E+00 0.00000E+00 0.00000E+00 0.00000E+00 0.00000E+00 0.00000E+00 1.60400E-03 9.25885E-04-5.82000E-19
      800  0.00000E+00 0.00000E+00 0.00000E+00 0.00000E+00 0.00000E+00 0.00000E+00 0.00000E+00 0.00000E+00 0.00000E+00 1.83330E-03 1.05800E-03-1.18000E-18
      802  0.00000E+00 0.00000E+00 0.00000E+00 0.00000E+00 0.00000E+00 0.00000E+00 0.00000E+00 0.00000E+00 0.00000E+00 1.78860E-03 4.80605E-04-2.96000E-19
      803  0.00000E+00 0.00000E+00 0.00000E+00 0.00000E+00 0.00000E+00 0.00000E+00 0.00000E+00 0.00000E+00 0.00000E+00 2.04390E-03 5.50325E-04-5.97000E-19
      805  0.00000E+00 0.00000E+00 0.00000E+00 0.00000E+00 0.00000E+00 0.00000E+00 0.00000E+00 0.00000E+00 0.00000E+00 1.85210E-03 0.00000E+00 0.00000E+00
      806  0.00000E+00 0.00000E+00 0.00000E+00 0.00000E+00 0.00000E+00 0.00000E+00 0.00000E+00 0.00000E+00 0.00000E+00 2.11670E-03 0.00000E+00 0.00000E+00
      939  0.00000E+00 0.00000E+00 0.00000E+00 0.00000E+00 0.00000E+00 0.00000E+00 0.00000E+00 0.00000E+00 0.00000E+00 6.85283E-04 2.55550E-03-5.93000E-18
      940  0.00000E+00 0.00000E+00 0.00000E+00 0.00000E+00 0.00000E+00 0.00000E+00 0.00000E+00 0.00000E+00 0.00000E+00 7.53885E-04 2.81110E-03-7.41000E-18
      942  0.00000E+00 0.00000E+00 0.00000E+00 0.00000E+00 0.00000E+00 0.00000E+00 0.00000E+00 0.00000E+00 0.00000E+00 1.32630E-03 2.28940E-03-4.73000E-18
      943  0.00000E+00 0.00000E+00 0.00000E+00 0.00000E+00 0.00000E+00 0.00000E+00 0.00000E+00 0.00000E+00 0.00000E+00 1.45940E-03 2.51810E-03-5.92000E-18
      945  0.00000E+00 0.00000E+00 0.00000E+00 0.00000E+00 0.00000E+00 0.00000E+00 0.00000E+00 0.00000E+00 0.00000E+00 1.87850E-03 1.86320E-03-3.54000E-18
      946  0.00000E+00 0.00000E+00 0.00000E+00 0.00000E+00 0.00000E+00 0.00000E+00 0.00000E+00 0.00000E+00 0.00000E+00 2.06750E-03 2.04840E-03-4.42000E-18
      948  0.00000E+00 0.00000E+00 0.00000E+00 0.00000E+00 0.00000E+00 0.00000E+00 0.00000E+00 0.00000E+00 0.00000E+00 2.29170E-03 1.32230E-03-2.37000E-18
      949  0.00000E+00 0.00000E+00 0.00000E+00 0.00000E+00 0.00000E+00 0.00000E+00 0.00000E+00 0.00000E+00 0.00000E+00 2.52100E-03 1.45440E-03-2.97000E-18
      951  0.00000E+00 0.00000E+00 0.00000E+00 0.00000E+00 0.00000E+00 0.00000E+00 0.00000E+00 0.00000E+00 0.00000E+00 2.55430E-03 6.89739E-04-1.20000E-18
      952  0.00000E+00 0.00000E+00 0.00000E+00 0.00000E+00 0.00000E+00 0.00000E+00 0.00000E+00 0.00000E+00 0.00000E+00 2.80960E-03 7.59433E-04-1.50000E-18
      954  0.00000E+00 0.00000E+00 0.00000E+00 0.00000E+00 0.00000E+00 0.00000E+00 0.00000E+00 0.00000E+00 0.00000E+00 2.64580E-03 0.00000E+00 0.00000E+00
      955  0.00000E+00 0.00000E+00 0.00000E+00 0.00000E+00 0.00000E+00 0.00000E+00 0.00000E+00 0.00000E+00 0.00000E+00 2.91040E-03 0.00000E+00 0.00000E+00
     1005  0.00000E+00 0.00000E+00 0.00000E+00 0.00000E+00 0.00000E+00 0.00000E+00 0.00000E+00 0.00000E+00 0.00000E+00 8.22488E-04 3.06660E-03-4.44000E-18
     1006  0.00000E+00 0.00000E+00 0.00000E+00 0.00000E+00 0.00000E+00 0.00000E+00 0.00000E+00 0.00000E+00 0.00000E+00 1.59260E-03 2.74670E-03-3.55000E-18
     1007  0.00000E+00 0.00000E+00 0.00000E+00 0.00000E+00 0.00000E+00 0.00000E+00 0.00000E+00 0.00000E+00 0.00000E+00 2.25650E-03 2.23360E-03-2.65000E-18
     1008  0.00000E+00 0.00000E+00 0.00000E+00 0.00000E+00 0.00000E+00 0.00000E+00 0.00000E+00 0.00000E+00 0.00000E+00 2.75020E-03 1.58650E-03-1.78000E-18
     1009  0.00000E+00 0.00000E+00 0.00000E+00 0.00000E+00 0.00000E+00 0.00000E+00 0.00000E+00 0.00000E+00 0.00000E+00 3.06480E-03 8.29119E-04-8.96000E-19
     1010  0.00000E+00 0.00000E+00 0.00000E+00 0.00000E+00 0.00000E+00 0.00000E+00 0.00000E+00 0.00000E+00 0.00000E+00 3.17500E-03 0.00000E+00 0.00000E+00
     1017  0.00000E+00 0.00000E+00 0.00000E+00 0.00000E+00 0.00000E+00 0.00000E+00 0.00000E+00 0.00000E+00 0.00000E+00 6.16680E-04 2.30000E-03-3.97000E-18
     1018  0.00000E+00 0.00000E+00 0.00000E+00 0.00000E+00 0.00000E+00 0.00000E+00 0.00000E+00 0.00000E+00 0.00000E+00 1.19310E-03 2.06080E-03-2.83000E-18
     1019  0.00000E+00 0.00000E+00 0.00000E+00 0.00000E+00 0.00000E+00 0.00000E+00 0.00000E+00 0.00000E+00 0.00000E+00 1.68950E-03 1.67810E-03-2.29000E-18
     1020  0.00000E+00 0.00000E+00 0.00000E+00 0.00000E+00 0.00000E+00 0.00000E+00 0.00000E+00 0.00000E+00 0.00000E+00 2.06250E-03 1.19010E-03-1.43000E-18
     1021  0.00000E+00 0.00000E+00 0.00000E+00 0.00000E+00 0.00000E+00 0.00000E+00 0.00000E+00 0.00000E+00 0.00000E+00 2.29910E-03 6.20036E-04-8.07000E-19
     1022  0.00000E+00 0.00000E+00 0.00000E+00 0.00000E+00 0.00000E+00 0.00000E+00 0.00000E+00 0.00000E+00 0.00000E+00 2.38130E-03 0.00000E+00 0.00000E+00
     1157  0.00000E+00 0.00000E+00 0.00000E+00 0.00000E+00 0.00000E+00 0.00000E+00 0.00000E+00 0.00000E+00 0.00000E+00 1.27130E-03 3.42602E-04 2.54000E-02
     1158  0.00000E+00 0.00000E+00 0.00000E+00 0.00000E+00 0.00000E+00 0.00000E+00 0.00000E+00 0.00000E+00 0.00000E+00 1.15030E-03 6.64769E-04 2.54000E-02
     1159  0.00000E+00 0.00000E+00 0.00000E+00 0.00000E+00 0.00000E+00 0.00000E+00 0.00000E+00 0.00000E+00 0.00000E+00 9.39450E-04 5.49371E-04 2.54000E-02
     1160  0.00000E+00 0.00000E+00 0.00000E+00 0.00000E+00 0.00000E+00 0.00000E+00 0.00000E+00 0.00000E+00 0.00000E+00 1.01930E-03 2.80835E-04 2.54000E-02
     1221  0.00000E+00 0.00000E+00 0.00000E+00 0.00000E+00 0.00000E+00 0.00000E+00 0.00000E+00 0.00000E+00 0.00000E+00 1.58750E-03 0.00000E+00 2.54000E-02
     1222  0.00000E+00 0.00000E+00 0.00000E+00 0.00000E+00 0.00000E+00 0.00000E+00 0.00000E+00 0.00000E+00 0.00000E+00 1.53340E-03 4.10876E-04 2.54000E-02
     1223  0.00000E+00 0.00000E+00 0.00000E+00 0.00000E+00 0.00000E+00 0.00000E+00 0.00000E+00 0.00000E+00 0.00000E+00 1.32290E-03 0.00000E+00 2.54000E-02
     1284  0.00000E+00 0.00000E+00 0.00000E+00 0.00000E+00 0.00000E+00 0.00000E+00 0.00000E+00 0.00000E+00 0.00000E+00 1.05830E-03 0.00000E+00 2.54000E-02
     1285  0.00000E+00 0.00000E+00 0.00000E+00 0.00000E+00 0.00000E+00 0.00000E+00 0.00000E+00 0.00000E+00 0.00000E+00 7.75719E-04 2.25151E-04 2.54000E-02
     1286  0.00000E+00 0.00000E+00 0.00000E+00 0.00000E+00 0.00000E+00 0.00000E+00 0.00000E+00 0.00000E+00 0.00000E+00 7.93750E-04 0.00000E+00 2.54000E-02
     1347  0.00000E+00 0.00000E+00 0.00000E+00 0.00000E+00 0.00000E+00 0.00000E+00 0.00000E+00 0.00000E+00 0.00000E+00 5.26111E-04 2.44500E-04 2.54000E-02
     1348  0.00000E+00 0.00000E+00 0.00000E+00 0.00000E+00 0.00000E+00 0.00000E+00 0.00000E+00 0.00000E+00 0.00000E+00 7.40285E-04 4.45611E-04 2.54000E-02
     1349  0.00000E+00 0.00000E+00 0.00000E+00 0.00000E+00 0.00000E+00 0.00000E+00 0.00000E+00 0.00000E+00 0.00000E+00 5.05822E-04 4.85760E-04 2.54000E-02
     1430  0.00000E+00 0.00000E+00 0.00000E+00 0.00000E+00 0.00000E+00 0.00000E+00 0.00000E+00 0.00000E+00 0.00000E+00 6.48000E-20 1.05830E-03 2.54000E-02
     1431  0.00000E+00 0.00000E+00 0.00000E+00 0.00000E+00 0.00000E+00 0.00000E+00 0.00000E+00 0.00000E+00 0.00000E+00 4.86000E-20 7.93750E-04 2.54000E-02
     1432  0.00000E+00 0.00000E+00 0.00000E+00 0.00000E+00 0.00000E+00 0.00000E+00 0.00000E+00 0.00000E+00 0.00000E+00 2.41324E-04 7.67032E-04 2.54000E-02
     1433  0.00000E+00 0.00000E+00 0.00000E+00 0.00000E+00 0.00000E+00 0.00000E+00 0.00000E+00 0.00000E+00 0.00000E+00 2.97167E-04 1.00970E-03 2.54000E-02
     1514  0.00000E+00 0.00000E+00 0.00000E+00 0.00000E+00 0.00000E+00 0.00000E+00 0.00000E+00 0.00000E+00 0.00000E+00 6.79239E-04 1.13630E-03 2.54000E-02
     1515  0.00000E+00 0.00000E+00 0.00000E+00 0.00000E+00 0.00000E+00 0.00000E+00 0.00000E+00 0.00000E+00 0.00000E+00 5.75276E-04 9.25179E-04 2.54000E-02
     1516  0.00000E+00 0.00000E+00 0.00000E+00 0.00000E+00 0.00000E+00 0.00000E+00 0.00000E+00 0.00000E+00 0.00000E+00 8.21363E-04 7.99351E-04 2.54000E-02
     1517  0.00000E+00 0.00000E+00 0.00000E+00 0.00000E+00 0.00000E+00 0.00000E+00 0.00000E+00 0.00000E+00 0.00000E+00 9.65301E-04 9.51462E-04 2.54000E-02
     1538  0.00000E+00 0.00000E+00 0.00000E+00 0.00000E+00 0.00000E+00 0.00000E+00 0.00000E+00 0.00000E+00 0.00000E+00 1.37480E-03 7.93749E-04 2.54000E-02
     1579  0.00000E+00 0.00000E+00 0.00000E+00 0.00000E+00 0.00000E+00 0.00000E+00 0.00000E+00 0.00000E+00 0.00000E+00 7.93749E-04 1.37480E-03 2.54000E-02
     1580  0.00000E+00 0.00000E+00 0.00000E+00 0.00000E+00 0.00000E+00 0.00000E+00 0.00000E+00 0.00000E+00 0.00000E+00 1.12250E-03 1.12250E-03 2.54000E-02
     1621  0.00000E+00 0.00000E+00 0.00000E+00 0.00000E+00 0.00000E+00 0.00000E+00 0.00000E+00 0.00000E+00 0.00000E+00 8.10100E-20 1.32290E-03 2.54000E-02
     1622  0.00000E+00 0.00000E+00 0.00000E+00 0.00000E+00 0.00000E+00 0.00000E+00 0.00000E+00 0.00000E+00 0.00000E+00 3.54279E-04 1.26320E-03 2.54000E-02
     1663  0.00000E+00 0.00000E+00 0.00000E+00 0.00000E+00 0.00000E+00 0.00000E+00 0.00000E+00 0.00000E+00 0.00000E+00 2.59713E-04 5.14281E-04 2.54000E-02
     1664  0.00000E+00 0.00000E+00 0.00000E+00 0.00000E+00 0.00000E+00 0.00000E+00 0.00000E+00 0.00000E+00 0.00000E+00 4.69333E-04 7.21364E-04 2.54000E-02
     1705  0.00000E+00 0.00000E+00 0.00000E+00 0.00000E+00 0.00000E+00 0.00000E+00 0.00000E+00 0.00000E+00 0.00000E+00 9.72100E-20 1.58750E-03 2.54000E-02
     1706  0.00000E+00 0.00000E+00 0.00000E+00 0.00000E+00 0.00000E+00 0.00000E+00 0.00000E+00 0.00000E+00 0.00000E+00 4.10876E-04 1.53340E-03 2.54000E-02
     1727  0.00000E+00 0.00000E+00 0.00000E+00 0.00000E+00 0.00000E+00 0.00000E+00 0.00000E+00 0.00000E+00 0.00000E+00 6.87392E-04 6.61456E-04 2.54000E-02
     1808  0.00000E+00 0.00000E+00 0.00000E+00 0.00000E+00 0.00000E+00 0.00000E+00 0.00000E+00 0.00000E+00 0.00000E+00 0.00000E+00 0.00000E+00 2.54000E-02
     1809  0.00000E+00 0.00000E+00 0.00000E+00 0.00000E+00 0.00000E+00 0.00000E+00 0.00000E+00 0.00000E+00 0.00000E+00 2.64584E-04 0.00000E+00 2.54000E-02
     1810  0.00000E+00 0.00000E+00 0.00000E+00 0.00000E+00 0.00000E+00 0.00000E+00 0.00000E+00 0.00000E+00 0.00000E+00 2.67702E-04 2.57775E-04 2.54000E-02
     1811  0.00000E+00 0.00000E+00 0.00000E+00 0.00000E+00 0.00000E+00 0.00000E+00 0.00000E+00 0.00000E+00 0.00000E+00 1.62000E-20 2.64583E-04 2.54000E-02
     1832  0.00000E+00 0.00000E+00 0.00000E+00 0.00000E+00 0.00000E+00 0.00000E+00 0.00000E+00 0.00000E+00 0.00000E+00 5.29166E-04 0.00000E+00 2.54000E-02
     1853  0.00000E+00 0.00000E+00 0.00000E+00 0.00000E+00 0.00000E+00 0.00000E+00 0.00000E+00 0.00000E+00 0.00000E+00 3.24000E-20 5.29167E-04 2.54000E-02
     1854  0.00000E+00 0.00000E+00 0.00000E+00 0.00000E+00 0.00000E+00 0.00000E+00 0.00000E+00 0.00000E+00 0.00000E+00 4.44500E-03 0.00000E+00 2.54000E-02
     1855  0.00000E+00 0.00000E+00 0.00000E+00 0.00000E+00 0.00000E+00 0.00000E+00 0.00000E+00 0.00000E+00 0.00000E+00 3.96880E-03 0.00000E+00 2.54000E-02
     1856  0.00000E+00 0.00000E+00 0.00000E+00 0.00000E+00 0.00000E+00 0.00000E+00 0.00000E+00 0.00000E+00 0.00000E+00 3.49250E-03 0.00000E+00 2.54000E-02
     1857  0.00000E+00 0.00000E+00 0.00000E+00 0.00000E+00 0.00000E+00 0.00000E+00 0.00000E+00 0.00000E+00 0.00000E+00 3.01620E-03 0.00000E+00 2.54000E-02
     1858  0.00000E+00 0.00000E+00 0.00000E+00 0.00000E+00 0.00000E+00 0.00000E+00 0.00000E+00 0.00000E+00 0.00000E+00 2.54000E-03 0.00000E+00 2.54000E-02
     1859  0.00000E+00 0.00000E+00 0.00000E+00 0.00000E+00 0.00000E+00 0.00000E+00 0.00000E+00 0.00000E+00 0.00000E+00 2.06380E-03 0.00000E+00 2.54000E-02
     1867  0.00000E+00 0.00000E+00 0.00000E+00 0.00000E+00 0.00000E+00 0.00000E+00 0.00000E+00 0.00000E+00 0.00000E+00 1.26400E-19 2.06380E-03 2.54000E-02
     1868  0.00000E+00 0.00000E+00 0.00000E+00 0.00000E+00 0.00000E+00 0.00000E+00 0.00000E+00 0.00000E+00 0.00000E+00 1.55500E-19 2.54000E-03 2.54000E-02
     1869  0.00000E+00 0.00000E+00 0.00000E+00 0.00000E+00 0.00000E+00 0.00000E+00 0.00000E+00 0.00000E+00 0.00000E+00 1.84700E-19 3.01620E-03 2.54000E-02
     1870  0.00000E+00 0.00000E+00 0.00000E+00 0.00000E+00 0.00000E+00 0.00000E+00 0.00000E+00 0.00000E+00 0.00000E+00 2.13900E-19 3.49250E-03 2.54000E-02
     1871  0.00000E+00 0.00000E+00 0.00000E+00 0.00000E+00 0.00000E+00 0.00000E+00 0.00000E+00 0.00000E+00 0.00000E+00 2.43000E-19 3.96880E-03 2.54000E-02
     1872  0.00000E+00 0.00000E+00 0.00000E+00 0.00000E+00 0.00000E+00 0.00000E+00 0.00000E+00 0.00000E+00 0.00000E+00 2.72200E-19 4.44500E-03 2.54000E-02
     1873  0.00000E+00 0.00000E+00 0.00000E+00 0.00000E+00 0.00000E+00 0.00000E+00 0.00000E+00 0.00000E+00 0.00000E+00 1.15050E-03 4.29350E-03 2.54000E-02
     1874  0.00000E+00 0.00000E+00 0.00000E+00 0.00000E+00 0.00000E+00 0.00000E+00 0.00000E+00 0.00000E+00 0.00000E+00 2.22250E-03 3.84950E-03 2.54000E-02
     1875  0.00000E+00 0.00000E+00 0.00000E+00 0.00000E+00 0.00000E+00 0.00000E+00 0.00000E+00 0.00000E+00 0.00000E+00 3.14310E-03 3.14310E-03 2.54000E-02
     1876  0.00000E+00 0.00000E+00 0.00000E+00 0.00000E+00 0.00000E+00 0.00000E+00 0.00000E+00 0.00000E+00 0.00000E+00 3.84950E-03 2.22250E-03 2.54000E-02
     1877  0.00000E+00 0.00000E+00 0.00000E+00 0.00000E+00 0.00000E+00 0.00000E+00 0.00000E+00 0.00000E+00 0.00000E+00 4.29350E-03 1.15050E-03 2.54000E-02
     1878  0.00000E+00 0.00000E+00 0.00000E+00 0.00000E+00 0.00000E+00 0.00000E+00 0.00000E+00 0.00000E+00 0.00000E+00 7.82797E-04 2.91280E-03 2.54000E-02
     1879  0.00000E+00 0.00000E+00 0.00000E+00 0.00000E+00 0.00000E+00 0.00000E+00 0.00000E+00 0.00000E+00 0.00000E+00 1.50990E-03 2.61110E-03 2.54000E-02
     1880  0.00000E+00 0.00000E+00 0.00000E+00 0.00000E+00 0.00000E+00 0.00000E+00 0.00000E+00 0.00000E+00 0.00000E+00 2.13280E-03 2.13280E-03 2.54000E-02
     1881  0.00000E+00 0.00000E+00 0.00000E+00 0.00000E+00 0.00000E+00 0.00000E+00 0.00000E+00 0.00000E+00 0.00000E+00 2.61110E-03 1.50990E-03 2.54000E-02
     1882  0.00000E+00 0.00000E+00 0.00000E+00 0.00000E+00 0.00000E+00 0.00000E+00 0.00000E+00 0.00000E+00 0.00000E+00 2.91280E-03 7.82809E-04 2.54000E-02
     1883  0.00000E+00 0.00000E+00 0.00000E+00 0.00000E+00 0.00000E+00 0.00000E+00 0.00000E+00 0.00000E+00 0.00000E+00 1.79610E-03 1.79610E-03 2.54000E-02
     1884  0.00000E+00 0.00000E+00 0.00000E+00 0.00000E+00 0.00000E+00 0.00000E+00 0.00000E+00 0.00000E+00 0.00000E+00 1.45930E-03 1.45930E-03 2.54000E-02
     1885  0.00000E+00 0.00000E+00 0.00000E+00 0.00000E+00 0.00000E+00 0.00000E+00 0.00000E+00 0.00000E+00 0.00000E+00 1.27120E-03 2.19900E-03 2.54000E-02
     1886  0.00000E+00 0.00000E+00 0.00000E+00 0.00000E+00 0.00000E+00 0.00000E+00 0.00000E+00 0.00000E+00 0.00000E+00 6.58838E-04 2.45300E-03 2.54000E-02
     1887  0.00000E+00 0.00000E+00 0.00000E+00 0.00000E+00 0.00000E+00 0.00000E+00 0.00000E+00 0.00000E+00 0.00000E+00 1.03230E-03 1.78700E-03 2.54000E-02
     1888  0.00000E+00 0.00000E+00 0.00000E+00 0.00000E+00 0.00000E+00 0.00000E+00 0.00000E+00 0.00000E+00 0.00000E+00 5.34663E-04 1.99330E-03 2.54000E-02
     1889  0.00000E+00 0.00000E+00 0.00000E+00 0.00000E+00 0.00000E+00 0.00000E+00 0.00000E+00 0.00000E+00 0.00000E+00 2.45300E-03 6.58850E-04 2.54000E-02
     1890  0.00000E+00 0.00000E+00 0.00000E+00 0.00000E+00 0.00000E+00 0.00000E+00 0.00000E+00 0.00000E+00 0.00000E+00 2.19900E-03 1.27120E-03 2.54000E-02
     1891  0.00000E+00 0.00000E+00 0.00000E+00 0.00000E+00 0.00000E+00 0.00000E+00 0.00000E+00 0.00000E+00 0.00000E+00 1.99330E-03 5.34671E-04 2.54000E-02
     1892  0.00000E+00 0.00000E+00 0.00000E+00 0.00000E+00 0.00000E+00 0.00000E+00 0.00000E+00 0.00000E+00 0.00000E+00 1.78700E-03 1.03230E-03 2.54000E-02
     1893  0.00000E+00 0.00000E+00 0.00000E+00 0.00000E+00 0.00000E+00 0.00000E+00 0.00000E+00 0.00000E+00 0.00000E+00 2.80630E-03 2.80630E-03 2.54000E-02
     1894  0.00000E+00 0.00000E+00 0.00000E+00 0.00000E+00 0.00000E+00 0.00000E+00 0.00000E+00 0.00000E+00 0.00000E+00 2.46960E-03 2.46960E-03 2.54000E-02
     1895  0.00000E+00 0.00000E+00 0.00000E+00 0.00000E+00 0.00000E+00 0.00000E+00 0.00000E+00 0.00000E+00 0.00000E+00 1.02830E-03 3.83310E-03 2.54000E-02
     1896  0.00000E+00 0.00000E+00 0.00000E+00 0.00000E+00 0.00000E+00 0.00000E+00 0.00000E+00 0.00000E+00 0.00000E+00 9.06092E-04 3.37280E-03 2.54000E-02
     1897  0.00000E+00 0.00000E+00 0.00000E+00 0.00000E+00 0.00000E+00 0.00000E+00 0.00000E+00 0.00000E+00 0.00000E+00 1.98520E-03 3.43650E-03 2.54000E-02
     1898  0.00000E+00 0.00000E+00 0.00000E+00 0.00000E+00 0.00000E+00 0.00000E+00 0.00000E+00 0.00000E+00 0.00000E+00 1.74800E-03 3.02350E-03 2.54000E-02
     1899  0.00000E+00 0.00000E+00 0.00000E+00 0.00000E+00 0.00000E+00 0.00000E+00 0.00000E+00 0.00000E+00 0.00000E+00 3.43650E-03 1.98520E-03 2.54000E-02
     1900  0.00000E+00 0.00000E+00 0.00000E+00 0.00000E+00 0.00000E+00 0.00000E+00 0.00000E+00 0.00000E+00 0.00000E+00 3.02350E-03 1.74800E-03 2.54000E-02
     1901  0.00000E+00 0.00000E+00 0.00000E+00 0.00000E+00 0.00000E+00 0.00000E+00 0.00000E+00 0.00000E+00 0.00000E+00 3.83310E-03 1.02830E-03 2.54000E-02
     1902  0.00000E+00 0.00000E+00 0.00000E+00 0.00000E+00 0.00000E+00 0.00000E+00 0.00000E+00 0.00000E+00 0.00000E+00 3.37280E-03 9.06100E-04 2.54000E-02
     3203  0.00000E+00 0.00000E+00 0.00000E+00 0.00000E+00 0.00000E+00 0.00000E+00 0.00000E+00 0.00000E+00 0.00000E+00 7.77700E-19 1.27000E-02 2.54000E-02
     3204  0.00000E+00 0.00000E+00 0.00000E+00 0.00000E+00 0.00000E+00 0.00000E+00 0.00000E+00 0.00000E+00 0.00000E+00 7.14500E-19 1.16681E-02 2.54000E-02
     3205  0.00000E+00 0.00000E+00 0.00000E+00 0.00000E+00 0.00000E+00 0.00000E+00 0.00000E+00 0.00000E+00 0.00000E+00 6.51300E-19 1.06363E-02 2.54000E-02
     3206  0.00000E+00 0.00000E+00 0.00000E+00 0.00000E+00 0.00000E+00 0.00000E+00 0.00000E+00 0.00000E+00 0.00000E+00 5.88100E-19 9.60440E-03 2.54000E-02
     3207  0.00000E+00 0.00000E+00 0.00000E+00 0.00000E+00 0.00000E+00 0.00000E+00 0.00000E+00 0.00000E+00 0.00000E+00 5.24900E-19 8.57250E-03 2.54000E-02
     3208  0.00000E+00 0.00000E+00 0.00000E+00 0.00000E+00 0.00000E+00 0.00000E+00 0.00000E+00 0.00000E+00 0.00000E+00 4.61700E-19 7.54060E-03 2.54000E-02
     3209  0.00000E+00 0.00000E+00 0.00000E+00 0.00000E+00 0.00000E+00 0.00000E+00 0.00000E+00 0.00000E+00 0.00000E+00 3.98500E-19 6.50880E-03 2.54000E-02
     3210  0.00000E+00 0.00000E+00 0.00000E+00 0.00000E+00 0.00000E+00 0.00000E+00 0.00000E+00 0.00000E+00 0.00000E+00 3.35400E-19 5.47690E-03 2.54000E-02
     3645  0.00000E+00 0.00000E+00 0.00000E+00 0.00000E+00 0.00000E+00 0.00000E+00 0.00000E+00 0.00000E+00 0.00000E+00 3.08680E-03 1.12524E-02 2.54000E-02
     3648  0.00000E+00 0.00000E+00 0.00000E+00 0.00000E+00 0.00000E+00 0.00000E+00 0.00000E+00 0.00000E+00 0.00000E+00 3.36330E-03 1.22466E-02 2.54000E-02
     3649  0.00000E+00 0.00000E+00 0.00000E+00 0.00000E+00 0.00000E+00 0.00000E+00 0.00000E+00 0.00000E+00 0.00000E+00 5.88870E-03 1.00731E-02 2.54000E-02
     3652  0.00000E+00 0.00000E+00 0.00000E+00 0.00000E+00 0.00000E+00 0.00000E+00 0.00000E+00 0.00000E+00 0.00000E+00 6.41240E-03 1.09623E-02 2.54000E-02
     3653  0.00000E+00 0.00000E+00 0.00000E+00 0.00000E+00 0.00000E+00 0.00000E+00 0.00000E+00 0.00000E+00 0.00000E+00 8.26880E-03 8.23230E-03 2.54000E-02
     3656  0.00000E+00 0.00000E+00 0.00000E+00 0.00000E+00 0.00000E+00 0.00000E+00 0.00000E+00 0.00000E+00 0.00000E+00 9.00110E-03 8.95940E-03 2.54000E-02
     3657  0.00000E+00 0.00000E+00 0.00000E+00 0.00000E+00 0.00000E+00 0.00000E+00 0.00000E+00 0.00000E+00 0.00000E+00 1.00899E-02 5.85990E-03 2.54000E-02
     3660  0.00000E+00 0.00000E+00 0.00000E+00 0.00000E+00 0.00000E+00 0.00000E+00 0.00000E+00 0.00000E+00 0.00000E+00 1.09814E-02 6.37950E-03 2.54000E-02
     3661  0.00000E+00 0.00000E+00 0.00000E+00 0.00000E+00 0.00000E+00 0.00000E+00 0.00000E+00 0.00000E+00 0.00000E+00 1.12567E-02 3.07130E-03 2.54000E-02
     3664  0.00000E+00 0.00000E+00 0.00000E+00 0.00000E+00 0.00000E+00 0.00000E+00 0.00000E+00 0.00000E+00 0.00000E+00 1.22514E-02 3.34570E-03 2.54000E-02
     3665  0.00000E+00 0.00000E+00 0.00000E+00 0.00000E+00 0.00000E+00 0.00000E+00 0.00000E+00 0.00000E+00 0.00000E+00 1.16681E-02 0.00000E+00 2.54000E-02
     3668  0.00000E+00 0.00000E+00 0.00000E+00 0.00000E+00 0.00000E+00 0.00000E+00 0.00000E+00 0.00000E+00 0.00000E+00 1.27000E-02 0.00000E+00 2.54000E-02
     4143  0.00000E+00 0.00000E+00 0.00000E+00 0.00000E+00 0.00000E+00 0.00000E+00 0.00000E+00 0.00000E+00 0.00000E+00 2.53370E-03 9.26410E-03 2.54000E-02
     4146  0.00000E+00 0.00000E+00 0.00000E+00 0.00000E+00 0.00000E+00 0.00000E+00 0.00000E+00 0.00000E+00 0.00000E+00 2.81020E-03 1.02583E-02 2.54000E-02
     4147  0.00000E+00 0.00000E+00 0.00000E+00 0.00000E+00 0.00000E+00 0.00000E+00 0.00000E+00 0.00000E+00 0.00000E+00 4.84130E-03 8.29490E-03 2.54000E-02
     4150  0.00000E+00 0.00000E+00 0.00000E+00 0.00000E+00 0.00000E+00 0.00000E+00 0.00000E+00 0.00000E+00 0.00000E+00 5.36500E-03 9.18400E-03 2.54000E-02
     4151  0.00000E+00 0.00000E+00 0.00000E+00 0.00000E+00 0.00000E+00 0.00000E+00 0.00000E+00 0.00000E+00 0.00000E+00 6.80440E-03 6.77820E-03 2.54000E-02
     4154  0.00000E+00 0.00000E+00 0.00000E+00 0.00000E+00 0.00000E+00 0.00000E+00 0.00000E+00 0.00000E+00 0.00000E+00 7.53660E-03 7.50530E-03 2.54000E-02
     4155  0.00000E+00 0.00000E+00 0.00000E+00 0.00000E+00 0.00000E+00 0.00000E+00 0.00000E+00 0.00000E+00 0.00000E+00 8.30690E-03 4.82070E-03 2.54000E-02
     4158  0.00000E+00 0.00000E+00 0.00000E+00 0.00000E+00 0.00000E+00 0.00000E+00 0.00000E+00 0.00000E+00 0.00000E+00 9.19840E-03 5.34030E-03 2.54000E-02
     4159  0.00000E+00 0.00000E+00 0.00000E+00 0.00000E+00 0.00000E+00 0.00000E+00 0.00000E+00 0.00000E+00 0.00000E+00 9.26720E-03 2.52250E-03 2.54000E-02
     4162  0.00000E+00 0.00000E+00 0.00000E+00 0.00000E+00 0.00000E+00 0.00000E+00 0.00000E+00 0.00000E+00 0.00000E+00 1.02619E-02 2.79690E-03 2.54000E-02
     4163  0.00000E+00 0.00000E+00 0.00000E+00 0.00000E+00 0.00000E+00 0.00000E+00 0.00000E+00 0.00000E+00 0.00000E+00 9.60440E-03 0.00000E+00 2.54000E-02
     4166  0.00000E+00 0.00000E+00 0.00000E+00 0.00000E+00 0.00000E+00 0.00000E+00 0.00000E+00 0.00000E+00 0.00000E+00 1.06363E-02 0.00000E+00 2.54000E-02
     4305  0.00000E+00 0.00000E+00 0.00000E+00 0.00000E+00 0.00000E+00 0.00000E+00 0.00000E+00 0.00000E+00 0.00000E+00 1.70380E-03 6.28170E-03 2.54000E-02
     4306  0.00000E+00 0.00000E+00 0.00000E+00 0.00000E+00 0.00000E+00 0.00000E+00 0.00000E+00 0.00000E+00 0.00000E+00 1.98050E-03 7.27590E-03 2.54000E-02
     4307  0.00000E+00 0.00000E+00 0.00000E+00 0.00000E+00 0.00000E+00 0.00000E+00 0.00000E+00 0.00000E+00 0.00000E+00 3.27010E-03 5.62760E-03 2.54000E-02
     4308  0.00000E+00 0.00000E+00 0.00000E+00 0.00000E+00 0.00000E+00 0.00000E+00 0.00000E+00 0.00000E+00 0.00000E+00 3.79390E-03 6.51670E-03 2.54000E-02
     4309  0.00000E+00 0.00000E+00 0.00000E+00 0.00000E+00 0.00000E+00 0.00000E+00 0.00000E+00 0.00000E+00 0.00000E+00 4.60760E-03 4.59710E-03 2.54000E-02
     4310  0.00000E+00 0.00000E+00 0.00000E+00 0.00000E+00 0.00000E+00 0.00000E+00 0.00000E+00 0.00000E+00 0.00000E+00 5.33990E-03 5.32420E-03 2.54000E-02
     4311  0.00000E+00 0.00000E+00 0.00000E+00 0.00000E+00 0.00000E+00 0.00000E+00 0.00000E+00 0.00000E+00 0.00000E+00 5.63250E-03 3.26180E-03 2.54000E-02
     4312  0.00000E+00 0.00000E+00 0.00000E+00 0.00000E+00 0.00000E+00 0.00000E+00 0.00000E+00 0.00000E+00 0.00000E+00 6.52400E-03 3.78140E-03 2.54000E-02
     4313  0.00000E+00 0.00000E+00 0.00000E+00 0.00000E+00 0.00000E+00 0.00000E+00 0.00000E+00 0.00000E+00 0.00000E+00 6.28300E-03 1.69930E-03 2.54000E-02
     4314  0.00000E+00 0.00000E+00 0.00000E+00 0.00000E+00 0.00000E+00 0.00000E+00 0.00000E+00 0.00000E+00 0.00000E+00 7.27770E-03 1.97370E-03 2.54000E-02
     4315  0.00000E+00 0.00000E+00 0.00000E+00 0.00000E+00 0.00000E+00 0.00000E+00 0.00000E+00 0.00000E+00 0.00000E+00 6.50880E-03 0.00000E+00 2.54000E-02
     4316  0.00000E+00 0.00000E+00 0.00000E+00 0.00000E+00 0.00000E+00 0.00000E+00 0.00000E+00 0.00000E+00 0.00000E+00 7.54060E-03 0.00000E+00 2.54000E-02
     4323  0.00000E+00 0.00000E+00 0.00000E+00 0.00000E+00 0.00000E+00 0.00000E+00 0.00000E+00 0.00000E+00 0.00000E+00 1.42720E-03 5.28760E-03 2.54000E-02
     4324  0.00000E+00 0.00000E+00 0.00000E+00 0.00000E+00 0.00000E+00 0.00000E+00 0.00000E+00 0.00000E+00 0.00000E+00 2.74630E-03 4.73850E-03 2.54000E-02
     4325  0.00000E+00 0.00000E+00 0.00000E+00 0.00000E+00 0.00000E+00 0.00000E+00 0.00000E+00 0.00000E+00 0.00000E+00 3.87540E-03 3.87010E-03 2.54000E-02
     4326  0.00000E+00 0.00000E+00 0.00000E+00 0.00000E+00 0.00000E+00 0.00000E+00 0.00000E+00 0.00000E+00 0.00000E+00 4.74100E-03 2.74210E-03 2.54000E-02
     4327  0.00000E+00 0.00000E+00 0.00000E+00 0.00000E+00 0.00000E+00 0.00000E+00 0.00000E+00 0.00000E+00 0.00000E+00 5.28830E-03 1.42490E-03 2.54000E-02
     4328  0.00000E+00 0.00000E+00 0.00000E+00 0.00000E+00 0.00000E+00 0.00000E+00 0.00000E+00 0.00000E+00 0.00000E+00 5.47690E-03 0.00000E+00 2.54000E-02
     4365  0.00000E+00 0.00000E+00 0.00000E+00 0.00000E+00 0.00000E+00 0.00000E+00 0.00000E+00 0.00000E+00 0.00000E+00 2.25710E-03 8.27000E-03 2.54000E-02
     4366  0.00000E+00 0.00000E+00 0.00000E+00 0.00000E+00 0.00000E+00 0.00000E+00 0.00000E+00 0.00000E+00 0.00000E+00 4.31760E-03 7.40580E-03 2.54000E-02
     4367  0.00000E+00 0.00000E+00 0.00000E+00 0.00000E+00 0.00000E+00 0.00000E+00 0.00000E+00 0.00000E+00 0.00000E+00 6.07210E-03 6.05120E-03 2.54000E-02
     4368  0.00000E+00 0.00000E+00 0.00000E+00 0.00000E+00 0.00000E+00 0.00000E+00 0.00000E+00 0.00000E+00 0.00000E+00 7.41540E-03 4.30100E-03 2.54000E-02
     4369  0.00000E+00 0.00000E+00 0.00000E+00 0.00000E+00 0.00000E+00 0.00000E+00 0.00000E+00 0.00000E+00 0.00000E+00 8.27240E-03 2.24810E-03 2.54000E-02
     4370  0.00000E+00 0.00000E+00 0.00000E+00 0.00000E+00 0.00000E+00 0.00000E+00 0.00000E+00 0.00000E+00 0.00000E+00 8.57250E-03 0.00000E+00 2.54000E-02



 n o d a l   p r i n t   o u t   f o r   t i m e  s t e p       6                              ( at time 2.5000000E+00 )

 nodal point  x-disp     y-disp      z-disp      x-vel       y-vel       z-vel      x-accl      y-accl      z-accl      x-coor      y-coor      z-coor
       54  0.00000E+00 0.00000E+00 0.00000E+00 0.00000E+00 0.00000E+00 0.00000E+00 0.00000E+00 0.00000E+00 0.00000E+00 0.00000E+00 0.00000E+00 0.00000E+00
       55  2.87985E-09 0.00000E+00 0.00000E+00 0.00000E+00 0.00000E+00 0.00000E+00 0.00000E+00 0.00000E+00 0.00000E+00 2.64587E-04 0.00000E+00 0.00000E+00
       56  5.91777E-09 0.00000E+00 0.00000E+00 0.00000E+00 0.00000E+00 0.00000E+00 0.00000E+00 0.00000E+00 0.00000E+00 5.29172E-04 0.00000E+00 0.00000E+00
       57  9.28084E-09 0.00000E+00 0.00000E+00 0.00000E+00 0.00000E+00 0.00000E+00 0.00000E+00 0.00000E+00 0.00000E+00 7.93759E-04 0.00000E+00 0.00000E+00
       58  1.32404E-08 0.00000E+00 0.00000E+00 0.00000E+00 0.00000E+00 0.00000E+00 0.00000E+00 0.00000E+00 0.00000E+00 1.05831E-03 0.00000E+00 0.00000E+00
       59  1.80691E-08 0.00000E+00 0.00000E+00 0.00000E+00 0.00000E+00 0.00000E+00 0.00000E+00 0.00000E+00 0.00000E+00 1.32292E-03 0.00000E+00 0.00000E+00
       60  2.40266E-08 0.00000E+00 0.00000E+00 0.00000E+00 0.00000E+00 0.00000E+00 0.00000E+00 0.00000E+00 0.00000E+00 1.58752E-03 0.00000E+00 0.00000E+00
       61  2.40480E-08 7.05572E-09 0.00000E+00 0.00000E+00 0.00000E+00 0.00000E+00 0.00000E+00 0.00000E+00 0.00000E+00 1.53342E-03 4.10883E-04 0.00000E+00
       62  2.29003E-08 1.42397E-08 0.00000E+00 0.00000E+00 0.00000E+00 0.00000E+00 0.00000E+00 0.00000E+00 0.00000E+00 1.37482E-03 7.93764E-04 0.00000E+00
       63  2.05164E-08 2.13908E-08 0.00000E+00 0.00000E+00 0.00000E+00 0.00000E+00 0.00000E+00 0.00000E+00 0.00000E+00 1.12252E-03 1.12252E-03 0.00000E+00
       64  1.50075E-08 2.58672E-08 0.00000E+00 0.00000E+00 0.00000E+00 0.00000E+00 0.00000E+00 0.00000E+00 0.00000E+00 7.93764E-04 1.37483E-03 0.00000E+00
       65  7.33220E-09 2.57087E-08 0.00000E+00 0.00000E+00 0.00000E+00 0.00000E+00 0.00000E+00 0.00000E+00 0.00000E+00 4.10883E-04 1.53343E-03 0.00000E+00
       66  0.00000E+00 2.34795E-08 0.00000E+00 0.00000E+00 0.00000E+00 0.00000E+00 0.00000E+00 0.00000E+00 0.00000E+00 9.72100E-20 1.58752E-03 0.00000E+00
       67  0.00000E+00 1.75794E-08 0.00000E+00 0.00000E+00 0.00000E+00 0.00000E+00 0.00000E+00 0.00000E+00 0.00000E+00 8.10100E-20 1.32292E-03 0.00000E+00
       68  0.00000E+00 1.28074E-08 0.00000E+00 0.00000E+00 0.00000E+00 0.00000E+00 0.00000E+00 0.00000E+00 0.00000E+00 6.48000E-20 1.05831E-03 0.00000E+00
       69  0.00000E+00 8.93192E-09 0.00000E+00 0.00000E+00 0.00000E+00 0.00000E+00 0.00000E+00 0.00000E+00 0.00000E+00 4.86000E-20 7.93759E-04 0.00000E+00
       70  0.00000E+00 5.69941E-09 0.00000E+00 0.00000E+00 0.00000E+00 0.00000E+00 0.00000E+00 0.00000E+00 0.00000E+00 3.24000E-20 5.29172E-04 0.00000E+00
       71  0.00000E+00 2.77750E-09 0.00000E+00 0.00000E+00 0.00000E+00 0.00000E+00 0.00000E+00 0.00000E+00 0.00000E+00 1.62000E-20 2.64586E-04 0.00000E+00
       72  1.14202E-08 1.04217E-08 0.00000E+00 0.00000E+00 0.00000E+00 0.00000E+00 0.00000E+00 0.00000E+00 0.00000E+00 6.87403E-04 6.61467E-04 0.00000E+00
       73  1.02068E-08 6.59970E-09 0.00000E+00 0.00000E+00 0.00000E+00 0.00000E+00 0.00000E+00 0.00000E+00 0.00000E+00 7.40295E-04 4.45618E-04 0.00000E+00
       74  9.62381E-09 3.16317E-09 0.00000E+00 0.00000E+00 0.00000E+00 0.00000E+00 0.00000E+00 0.00000E+00 0.00000E+00 7.75729E-04 2.25155E-04 0.00000E+00
       75  1.34169E-08 1.36379E-08 0.00000E+00 0.00000E+00 0.00000E+00 0.00000E+00 0.00000E+00 0.00000E+00 0.00000E+00 8.21377E-04 7.99365E-04 0.00000E+00
       76  1.65993E-08 1.70038E-08 0.00000E+00 0.00000E+00 0.00000E+00 0.00000E+00 0.00000E+00 0.00000E+00 0.00000E+00 9.65317E-04 9.51479E-04 0.00000E+00
       77  1.34242E-08 8.83662E-09 0.00000E+00 0.00000E+00 0.00000E+00 0.00000E+00 0.00000E+00 0.00000E+00 0.00000E+00 9.39463E-04 5.49380E-04 0.00000E+00
       78  1.76055E-08 1.11324E-08 0.00000E+00 0.00000E+00 0.00000E+00 0.00000E+00 0.00000E+00 0.00000E+00 0.00000E+00 1.15032E-03 6.64780E-04 0.00000E+00
       79  1.33213E-08 4.34262E-09 0.00000E+00 0.00000E+00 0.00000E+00 0.00000E+00 0.00000E+00 0.00000E+00 0.00000E+00 1.01931E-03 2.80839E-04 0.00000E+00
       80  1.80348E-08 5.48329E-09 0.00000E+00 0.00000E+00 0.00000E+00 0.00000E+00 0.00000E+00 0.00000E+00 0.00000E+00 1.27132E-03 3.42608E-04 0.00000E+00
       81  7.97571E-09 1.15503E-08 0.00000E+00 0.00000E+00 0.00000E+00 0.00000E+00 0.00000E+00 0.00000E+00 0.00000E+00 4.69341E-04 7.21376E-04 0.00000E+00
       82  3.92745E-09 1.03185E-08 0.00000E+00 0.00000E+00 0.00000E+00 0.00000E+00 0.00000E+00 0.00000E+00 0.00000E+00 2.41328E-04 7.67043E-04 0.00000E+00
       83  9.60341E-09 1.56172E-08 0.00000E+00 0.00000E+00 0.00000E+00 0.00000E+00 0.00000E+00 0.00000E+00 0.00000E+00 5.75286E-04 9.25195E-04 0.00000E+00
       84  4.71254E-09 1.43852E-08 0.00000E+00 0.00000E+00 0.00000E+00 0.00000E+00 0.00000E+00 0.00000E+00 0.00000E+00 2.97172E-04 1.00971E-03 0.00000E+00
       85  1.20634E-08 1.99900E-08 0.00000E+00 0.00000E+00 0.00000E+00 0.00000E+00 0.00000E+00 0.00000E+00 0.00000E+00 6.79251E-04 1.13632E-03 0.00000E+00
       86  5.95107E-09 1.93064E-08 0.00000E+00 0.00000E+00 0.00000E+00 0.00000E+00 0.00000E+00 0.00000E+00 0.00000E+00 3.54285E-04 1.26322E-03 0.00000E+00
       87  6.82296E-09 7.43199E-09 0.00000E+00 0.00000E+00 0.00000E+00 0.00000E+00 0.00000E+00 0.00000E+00 0.00000E+00 5.05829E-04 4.85767E-04 0.00000E+00
       88  6.35201E-09 3.66460E-09 0.00000E+00 0.00000E+00 0.00000E+00 0.00000E+00 0.00000E+00 0.00000E+00 0.00000E+00 5.26117E-04 2.44504E-04 0.00000E+00
       89  3.40298E-09 6.63872E-09 0.00000E+00 0.00000E+00 0.00000E+00 0.00000E+00 0.00000E+00 0.00000E+00 0.00000E+00 2.59716E-04 5.14288E-04 0.00000E+00
       90  3.16374E-09 3.24819E-09 0.00000E+00 0.00000E+00 0.00000E+00 0.00000E+00 0.00000E+00 0.00000E+00 0.00000E+00 2.67705E-04 2.57778E-04 0.00000E+00
      663  0.00000E+00 1.24241E-07 0.00000E+00 0.00000E+00 0.00000E+00 0.00000E+00 0.00000E+00 0.00000E+00 0.00000E+00 1.94400E-19 3.17512E-03-5.33000E-18
      677  0.00000E+00 3.09336E-08 0.00000E+00 0.00000E+00 0.00000E+00 0.00000E+00 0.00000E+00 0.00000E+00 0.00000E+00 1.13400E-19 1.85213E-03 0.00000E+00
      678  0.00000E+00 4.05682E-08 0.00000E+00 0.00000E+00 0.00000E+00 0.00000E+00 0.00000E+00 0.00000E+00 0.00000E+00 1.29600E-19 2.11674E-03 0.00000E+00
      679  0.00000E+00 5.31860E-08 0.00000E+00 0.00000E+00 0.00000E+00 0.00000E+00 0.00000E+00 0.00000E+00 0.00000E+00 1.45800E-19 2.38135E-03 0.00000E+00
      680  0.00000E+00 6.99793E-08 0.00000E+00 0.00000E+00 0.00000E+00 0.00000E+00 0.00000E+00 0.00000E+00 0.00000E+00 1.62000E-19 2.64587E-03 0.00000E+00
      681  0.00000E+00 9.26947E-08 0.00000E+00 0.00000E+00 0.00000E+00 0.00000E+00 0.00000E+00 0.00000E+00 0.00000E+00 1.78200E-19 2.91049E-03 0.00000E+00
      790  9.36858E-09 3.32883E-08 0.00000E+00 0.00000E+00 0.00000E+00 0.00000E+00 0.00000E+00 0.00000E+00 0.00000E+00 4.79486E-04 1.78893E-03-1.47000E-18
      791  1.19949E-08 4.28900E-08 0.00000E+00 0.00000E+00 0.00000E+00 0.00000E+00 0.00000E+00 0.00000E+00 0.00000E+00 5.48090E-04 2.04454E-03-2.95000E-18
      793  1.89861E-08 3.28972E-08 0.00000E+00 0.00000E+00 0.00000E+00 0.00000E+00 0.00000E+00 0.00000E+00 0.00000E+00 9.26900E-04 1.60353E-03-1.16000E-18
      794  2.40639E-08 4.16520E-08 0.00000E+00 0.00000E+00 0.00000E+00 0.00000E+00 0.00000E+00 0.00000E+00 0.00000E+00 1.06002E-03 1.83214E-03-2.35000E-18
      796  2.61026E-08 2.70909E-08 0.00000E+00 0.00000E+00 0.00000E+00 0.00000E+00 0.00000E+00 0.00000E+00 0.00000E+00 1.31153E-03 1.30773E-03-8.72000E-19
      797  3.31743E-08 3.41489E-08 0.00000E+00 0.00000E+00 0.00000E+00 0.00000E+00 0.00000E+00 0.00000E+00 0.00000E+00 1.50053E-03 1.49293E-03-1.76000E-18
      799  2.95483E-08 1.81843E-08 0.00000E+00 0.00000E+00 0.00000E+00 0.00000E+00 0.00000E+00 0.00000E+00 0.00000E+00 1.60403E-03 9.25903E-04-5.82000E-19
      800  3.79880E-08 2.31061E-08 0.00000E+00 0.00000E+00 0.00000E+00 0.00000E+00 0.00000E+00 0.00000E+00 0.00000E+00 1.83334E-03 1.05802E-03-1.18000E-18
      802  3.13292E-08 9.08503E-09 0.00000E+00 0.00000E+00 0.00000E+00 0.00000E+00 0.00000E+00 0.00000E+00 0.00000E+00 1.78863E-03 4.80614E-04-2.96000E-19
      803  4.06088E-08 1.16221E-08 0.00000E+00 0.00000E+00 0.00000E+00 0.00000E+00 0.00000E+00 0.00000E+00 0.00000E+00 2.04394E-03 5.50337E-04-5.97000E-19
      805  3.14673E-08 0.00000E+00 0.00000E+00 0.00000E+00 0.00000E+00 0.00000E+00 0.00000E+00 0.00000E+00 0.00000E+00 1.85213E-03 0.00000E+00 0.00000E+00
      806  4.09785E-08 0.00000E+00 0.00000E+00 0.00000E+00 0.00000E+00 0.00000E+00 0.00000E+00 0.00000E+00 0.00000E+00 2.11674E-03 0.00000E+00 0.00000E+00
      939  2.00518E-08 7.16739E-08 0.00000E+00 0.00000E+00 0.00000E+00 0.00000E+00 0.00000E+00 0.00000E+00 0.00000E+00 6.85303E-04 2.55557E-03-5.93000E-18
      940  2.62962E-08 9.36174E-08 0.00000E+00 0.00000E+00 0.00000E+00 0.00000E+00 0.00000E+00 0.00000E+00 0.00000E+00 7.53912E-04 2.81119E-03-7.41000E-18
      942  3.93997E-08 6.76117E-08 0.00000E+00 0.00000E+00 0.00000E+00 0.00000E+00 0.00000E+00 0.00000E+00 0.00000E+00 1.32634E-03 2.28947E-03-4.73000E-18
      943  5.15010E-08 8.73447E-08 0.00000E+00 0.00000E+00 0.00000E+00 0.00000E+00 0.00000E+00 0.00000E+00 0.00000E+00 1.45945E-03 2.51819E-03-5.92000E-18
      945  5.44274E-08 5.51088E-08 0.00000E+00 0.00000E+00 0.00000E+00 0.00000E+00 0.00000E+00 0.00000E+00 0.00000E+00 1.87855E-03 1.86326E-03-3.54000E-18
      946  7.14210E-08 7.09643E-08 0.00000E+00 0.00000E+00 0.00000E+00 0.00000E+00 0.00000E+00 0.00000E+00 0.00000E+00 2.06757E-03 2.04847E-03-4.42000E-18
      948  6.33140E-08 3.78686E-08 0.00000E+00 0.00000E+00 0.00000E+00 0.00000E+00 0.00000E+00 0.00000E+00 0.00000E+00 2.29176E-03 1.32234E-03-2.37000E-18
      949  8.33226E-08 4.86897E-08 0.00000E+00 0.00000E+00 0.00000E+00 0.00000E+00 0.00000E+00 0.00000E+00 0.00000E+00 2.52108E-03 1.45445E-03-2.97000E-18
      951  6.84597E-08 1.92640E-08 0.00000E+00 0.00000E+00 0.00000E+00 0.00000E+00 0.00000E+00 0.00000E+00 0.00000E+00 2.55437E-03 6.89758E-04-1.20000E-18
      952  8.97806E-08 2.45650E-08 0.00000E+00 0.00000E+00 0.00000E+00 0.00000E+00 0.00000E+00 0.00000E+00 0.00000E+00 2.80969E-03 7.59458E-04-1.50000E-18
      954  6.95269E-08 0.00000E+00 0.00000E+00 0.00000E+00 0.00000E+00 0.00000E+00 0.00000E+00 0.00000E+00 0.00000E+00 2.64587E-03 0.00000E+00 0.00000E+00
      955  9.09620E-08 0.00000E+00 0.00000E+00 0.00000E+00 0.00000E+00 0.00000E+00 0.00000E+00 0.00000E+00 0.00000E+00 2.91049E-03 0.00000E+00 0.00000E+00
     1005  3.41165E-08 1.24085E-07 0.00000E+00 0.00000E+00 0.00000E+00 0.00000E+00 0.00000E+00 0.00000E+00 0.00000E+00 8.22523E-04 3.06672E-03-4.44000E-18
     1006  6.65941E-08 1.14708E-07 0.00000E+00 0.00000E+00 0.00000E+00 0.00000E+00 0.00000E+00 0.00000E+00 0.00000E+00 1.59267E-03 2.74681E-03-3.55000E-18
     1007  9.19614E-08 9.43029E-08 0.00000E+00 0.00000E+00 0.00000E+00 0.00000E+00 0.00000E+00 0.00000E+00 0.00000E+00 2.25659E-03 2.23369E-03-2.65000E-18
     1008  1.08530E-07 6.68932E-08 0.00000E+00 0.00000E+00 0.00000E+00 0.00000E+00 0.00000E+00 0.00000E+00 0.00000E+00 2.75031E-03 1.58657E-03-1.78000E-18
     1009  1.19141E-07 3.49665E-08 0.00000E+00 0.00000E+00 0.00000E+00 0.00000E+00 0.00000E+00 0.00000E+00 0.00000E+00 3.06492E-03 8.29154E-04-8.96000E-19
     1010  1.22195E-07 0.00000E+00 0.00000E+00 0.00000E+00 0.00000E+00 0.00000E+00 0.00000E+00 0.00000E+00 0.00000E+00 3.17512E-03 0.00000E+00 0.00000E+00
     1017  1.54449E-08 5.53028E-08 0.00000E+00 0.00000E+00 0.00000E+00 0.00000E+00 0.00000E+00 0.00000E+00 0.00000E+00 6.16696E-04 2.30006E-03-3.97000E-18
     1018  3.06508E-08 5.28721E-08 0.00000E+00 0.00000E+00 0.00000E+00 0.00000E+00 0.00000E+00 0.00000E+00 0.00000E+00 1.19313E-03 2.06085E-03-2.83000E-18
     1019  4.23201E-08 4.31879E-08 0.00000E+00 0.00000E+00 0.00000E+00 0.00000E+00 0.00000E+00 0.00000E+00 0.00000E+00 1.68954E-03 1.67814E-03-2.29000E-18
     1020  4.89026E-08 2.94337E-08 0.00000E+00 0.00000E+00 0.00000E+00 0.00000E+00 0.00000E+00 0.00000E+00 0.00000E+00 2.06255E-03 1.19013E-03-1.43000E-18
     1021  5.26280E-08 1.48936E-08 0.00000E+00 0.00000E+00 0.00000E+00 0.00000E+00 0.00000E+00 0.00000E+00 0.00000E+00 2.29915E-03 6.20051E-04-8.07000E-19
     1022  5.33141E-08 0.00000E+00 0.00000E+00 0.00000E+00 0.00000E+00 0.00000E+00 0.00000E+00 0.00000E+00 0.00000E+00 2.38135E-03 0.00000E+00 0.00000E+00
     1157  6.42702E-09 1.05109E-09-1.25000E-06 0.00000E+00 0.00000E+00 0.00000E+00 0.00000E+00 0.00000E+00 0.00000E+00 1.27131E-03 3.42603E-04 2.53987E-02
     1158  6.07529E-09 2.48143E-09-1.25000E-06 0.00000E+00 0.00000E+00 0.00000E+00 0.00000E+00 0.00000E+00 0.00000E+00 1.15031E-03 6.64771E-04 2.53987E-02
     1159  4.87237E-09 1.69676E-09-1.25000E-06 0.00000E+00 0.00000E+00 0.00000E+00 0.00000E+00 0.00000E+00 0.00000E+00 9.39454E-04 5.49373E-04 2.53987E-02
     1160  5.17727E-09 4.58496E-10-1.25000E-06 0.00000E+00 0.00000E+00 0.00000E+00 0.00000E+00 0.00000E+00 0.00000E+00 1.01931E-03 2.80835E-04 2.53987E-02
     1221  7.37262E-09 0.00000E+00-1.25000E-06 0.00000E+00 0.00000E+00 0.00000E+00 0.00000E+00 0.00000E+00 0.00000E+00 1.58751E-03 0.00000E+00 2.53987E-02
     1222  7.35111E-09 1.36198E-09-1.25000E-06 0.00000E+00 0.00000E+00 0.00000E+00 0.00000E+00 0.00000E+00 0.00000E+00 1.53341E-03 4.10877E-04 2.53987E-02
     1223  6.69317E-09 0.00000E+00-1.25000E-06 0.00000E+00 0.00000E+00 0.00000E+00 0.00000E+00 0.00000E+00 0.00000E+00 1.32291E-03 0.00000E+00 2.53987E-02
     1284  5.31798E-09 0.00000E+00-1.25000E-06 0.00000E+00 0.00000E+00 0.00000E+00 0.00000E+00 0.00000E+00 0.00000E+00 1.05831E-03 0.00000E+00 2.53987E-02
     1285  3.82983E-09 3.20887E-11-1.25000E-06 0.00000E+00 0.00000E+00 0.00000E+00 0.00000E+00 0.00000E+00 0.00000E+00 7.75723E-04 2.25152E-04 2.53987E-02
     1286  3.95754E-09 0.00000E+00-1.25000E-06 0.00000E+00 0.00000E+00 0.00000E+00 0.00000E+00 0.00000E+00 0.00000E+00 7.93754E-04 0.00000E+00 2.53987E-02
     1347  1.92371E-09 1.65078E-10-1.25000E-06 0.00000E+00 0.00000E+00 0.00000E+00 0.00000E+00 0.00000E+00 0.00000E+00 5.26113E-04 2.44500E-04 2.53987E-02
     1348  3.73067E-09 9.58867E-10-1.25000E-06 0.00000E+00 0.00000E+00 0.00000E+00 0.00000E+00 0.00000E+00 0.00000E+00 7.40289E-04 4.45612E-04 2.53987E-02
     1349  1.96238E-09 1.13304E-09-1.25000E-06 0.00000E+00 0.00000E+00 0.00000E+00 0.00000E+00 0.00000E+00 0.00000E+00 5.05824E-04 4.85761E-04 2.53987E-02
     1430  0.00000E+00 5.89790E-09-1.25000E-06 0.00000E+00 0.00000E+00 0.00000E+00 0.00000E+00 0.00000E+00 0.00000E+00 6.48000E-20 1.05831E-03 2.53987E-02
     1431  0.00000E+00 3.71236E-09-1.25000E-06 0.00000E+00 0.00000E+00 0.00000E+00 0.00000E+00 0.00000E+00 0.00000E+00 4.86000E-20 7.93754E-04 2.53987E-02
     1432 -9.74895E-11 3.23935E-09-1.25000E-06 0.00000E+00 0.00000E+00 0.00000E+00 0.00000E+00 0.00000E+00 0.00000E+00 2.41324E-04 7.67036E-04 2.53987E-02
     1433  5.02197E-10 5.11595E-09-1.25000E-06 0.00000E+00 0.00000E+00 0.00000E+00 0.00000E+00 0.00000E+00 0.00000E+00 2.97167E-04 1.00971E-03 2.53987E-02
     1514  2.95840E-09 5.62140E-09-1.25000E-06 0.00000E+00 0.00000E+00 0.00000E+00 0.00000E+00 0.00000E+00 0.00000E+00 6.79242E-04 1.13631E-03 2.53987E-02
     1515  2.57132E-09 4.30551E-09-1.25000E-06 0.00000E+00 0.00000E+00 0.00000E+00 0.00000E+00 0.00000E+00 0.00000E+00 5.75279E-04 9.25183E-04 2.53987E-02
     1516  4.46832E-09 3.41048E-09-1.25000E-06 0.00000E+00 0.00000E+00 0.00000E+00 0.00000E+00 0.00000E+00 0.00000E+00 8.21368E-04 7.99354E-04 2.53987E-02
     1517  5.16781E-09 4.43686E-09-1.25000E-06 0.00000E+00 0.00000E+00 0.00000E+00 0.00000E+00 0.00000E+00 0.00000E+00 9.65306E-04 9.51466E-04 2.53987E-02
     1538  6.91708E-09 3.08863E-09-1.25000E-06 0.00000E+00 0.00000E+00 0.00000E+00 0.00000E+00 0.00000E+00 0.00000E+00 1.37481E-03 7.93752E-04 2.53987E-02
     1579  3.57844E-09 6.69480E-09-1.25000E-06 0.00000E+00 0.00000E+00 0.00000E+00 0.00000E+00 0.00000E+00 0.00000E+00 7.93752E-04 1.37481E-03 2.53987E-02
     1580  5.74613E-09 5.12270E-09-1.25000E-06 0.00000E+00 0.00000E+00 0.00000E+00 0.00000E+00 0.00000E+00 0.00000E+00 1.12251E-03 1.12251E-03 2.53987E-02
     1621  0.00000E+00 6.85679E-09-1.25000E-06 0.00000E+00 0.00000E+00 0.00000E+00 0.00000E+00 0.00000E+00 0.00000E+00 8.10100E-20 1.32291E-03 2.53987E-02
     1622  9.87806E-10 6.23923E-09-1.25000E-06 0.00000E+00 0.00000E+00 0.00000E+00 0.00000E+00 0.00000E+00 0.00000E+00 3.54280E-04 1.26321E-03 2.53987E-02
     1663  2.78050E-11 1.23572E-09-1.25000E-06 0.00000E+00 0.00000E+00 0.00000E+00 0.00000E+00 0.00000E+00 0.00000E+00 2.59713E-04 5.14283E-04 2.53987E-02
     1664  1.56370E-09 2.79726E-09-1.25000E-06 0.00000E+00 0.00000E+00 0.00000E+00 0.00000E+00 0.00000E+00 0.00000E+00 4.69334E-04 7.21367E-04 2.53987E-02
     1705  0.00000E+00 7.23208E-09-1.25000E-06 0.00000E+00 0.00000E+00 0.00000E+00 0.00000E+00 0.00000E+00 0.00000E+00 9.72100E-20 1.58751E-03 2.53987E-02
     1706  1.33480E-09 7.42925E-09-1.25000E-06 0.00000E+00 0.00000E+00 0.00000E+00 0.00000E+00 0.00000E+00 0.00000E+00 4.10877E-04 1.53341E-03 2.53987E-02
     1727  3.37392E-09 2.50293E-09-1.25000E-06 0.00000E+00 0.00000E+00 0.00000E+00 0.00000E+00 0.00000E+00 0.00000E+00 6.87395E-04 6.61459E-04 2.53987E-02
     1808  0.00000E+00 0.00000E+00-1.25000E-06 0.00000E+00 0.00000E+00 0.00000E+00 0.00000E+00 0.00000E+00 0.00000E+00 0.00000E+00 0.00000E+00 2.53987E-02
     1809  5.44693E-11 0.00000E+00-1.25000E-06 0.00000E+00 0.00000E+00 0.00000E+00 0.00000E+00 0.00000E+00 0.00000E+00 2.64584E-04 0.00000E+00 2.53987E-02
     1810  9.32620E-11 3.57925E-10-1.25000E-06 0.00000E+00 0.00000E+00 0.00000E+00 0.00000E+00 0.00000E+00 0.00000E+00 2.67702E-04 2.57775E-04 2.53987E-02
     1811  0.00000E+00 4.17284E-10-1.25000E-06 0.00000E+00 0.00000E+00 0.00000E+00 0.00000E+00 0.00000E+00 0.00000E+00 1.62000E-20 2.64584E-04 2.53987E-02
     1832  2.06316E-09 0.00000E+00-1.25000E-06 0.00000E+00 0.00000E+00 0.00000E+00 0.00000E+00 0.00000E+00 0.00000E+00 5.29168E-04 0.00000E+00 2.53987E-02
     1853  0.00000E+00 1.37985E-09-1.25000E-06 0.00000E+00 0.00000E+00 0.00000E+00 0.00000E+00 0.00000E+00 0.00000E+00 3.24000E-20 5.29168E-04 2.53987E-02
     1854  2.00971E-08 0.00000E+00-1.25000E-06 0.00000E+00 0.00000E+00 0.00000E+00 0.00000E+00 0.00000E+00 0.00000E+00 4.44502E-03 0.00000E+00 2.53987E-02
     1855  1.99622E-08 0.00000E+00-1.25000E-06 0.00000E+00 0.00000E+00 0.00000E+00 0.00000E+00 0.00000E+00 0.00000E+00 3.96882E-03 0.00000E+00 2.53987E-02
     1856  1.80665E-08 0.00000E+00-1.25000E-06 0.00000E+00 0.00000E+00 0.00000E+00 0.00000E+00 0.00000E+00 0.00000E+00 3.49252E-03 0.00000E+00 2.53987E-02
     1857  1.57204E-08 0.00000E+00-1.25000E-06 0.00000E+00 0.00000E+00 0.00000E+00 0.00000E+00 0.00000E+00 0.00000E+00 3.01622E-03 0.00000E+00 2.53987E-02
     1858  1.32199E-08 0.00000E+00-1.25000E-06 0.00000E+00 0.00000E+00 0.00000E+00 0.00000E+00 0.00000E+00 0.00000E+00 2.54001E-03 0.00000E+00 2.53987E-02
     1859  1.05616E-08 0.00000E+00-1.25000E-06 0.00000E+00 0.00000E+00 0.00000E+00 0.00000E+00 0.00000E+00 0.00000E+00 2.06381E-03 0.00000E+00 2.53987E-02
     1867  0.00000E+00 1.11752E-08-1.25000E-06 0.00000E+00 0.00000E+00 0.00000E+00 0.00000E+00 0.00000E+00 0.00000E+00 1.26400E-19 2.06381E-03 2.53987E-02
     1868  0.00000E+00 1.41064E-08-1.25000E-06 0.00000E+00 0.00000E+00 0.00000E+00 0.00000E+00 0.00000E+00 0.00000E+00 1.55500E-19 2.54001E-03 2.53987E-02
     1869  0.00000E+00 1.67612E-08-1.25000E-06 0.00000E+00 0.00000E+00 0.00000E+00 0.00000E+00 0.00000E+00 0.00000E+00 1.84700E-19 3.01622E-03 2.53987E-02
     1870  0.00000E+00 1.90583E-08-1.25000E-06 0.00000E+00 0.00000E+00 0.00000E+00 0.00000E+00 0.00000E+00 0.00000E+00 2.13900E-19 3.49252E-03 2.53987E-02
     1871  0.00000E+00 2.04741E-08-1.25000E-06 0.00000E+00 0.00000E+00 0.00000E+00 0.00000E+00 0.00000E+00 0.00000E+00 2.43000E-19 3.96882E-03 2.53987E-02
     1872  0.00000E+00 1.98309E-08-1.25000E-06 0.00000E+00 0.00000E+00 0.00000E+00 0.00000E+00 0.00000E+00 0.00000E+00 2.72200E-19 4.44502E-03 2.53987E-02
     1873  5.31346E-09 1.93795E-08-1.25000E-06 0.00000E+00 0.00000E+00 0.00000E+00 0.00000E+00 0.00000E+00 0.00000E+00 1.15051E-03 4.29352E-03 2.53987E-02
     1874  1.04509E-08 1.75133E-08-1.25000E-06 0.00000E+00 0.00000E+00 0.00000E+00 0.00000E+00 0.00000E+00 0.00000E+00 2.22251E-03 3.84952E-03 2.53987E-02
     1875  1.48598E-08 1.42586E-08-1.25000E-06 0.00000E+00 0.00000E+00 0.00000E+00 0.00000E+00 0.00000E+00 0.00000E+00 3.14311E-03 3.14311E-03 2.53987E-02
     1876  1.79815E-08 9.93294E-09-1.25000E-06 0.00000E+00 0.00000E+00 0.00000E+00 0.00000E+00 0.00000E+00 0.00000E+00 3.84952E-03 2.22251E-03 2.53987E-02
     1877  1.96599E-08 5.04286E-09-1.25000E-06 0.00000E+00 0.00000E+00 0.00000E+00 0.00000E+00 0.00000E+00 0.00000E+00 4.29352E-03 1.15051E-03 2.53987E-02
     1878  3.88029E-09 1.60687E-08-1.25000E-06 0.00000E+00 0.00000E+00 0.00000E+00 0.00000E+00 0.00000E+00 0.00000E+00 7.82801E-04 2.91282E-03 2.53987E-02
     1879  7.79129E-09 1.44116E-08-1.25000E-06 0.00000E+00 0.00000E+00 0.00000E+00 0.00000E+00 0.00000E+00 0.00000E+00 1.50991E-03 2.61111E-03 2.53987E-02
     1880  1.12831E-08 1.16444E-08-1.25000E-06 0.00000E+00 0.00000E+00 0.00000E+00 0.00000E+00 0.00000E+00 0.00000E+00 2.13281E-03 2.13281E-03 2.53987E-02
     1881  1.38304E-08 8.07709E-09-1.25000E-06 0.00000E+00 0.00000E+00 0.00000E+00 0.00000E+00 0.00000E+00 0.00000E+00 2.61111E-03 1.50991E-03 2.53987E-02
     1882  1.52663E-08 4.10410E-09-1.25000E-06 0.00000E+00 0.00000E+00 0.00000E+00 0.00000E+00 0.00000E+00 0.00000E+00 2.91282E-03 7.82813E-04 2.53987E-02
     1883  9.50304E-09 9.67756E-09-1.25000E-06 0.00000E+00 0.00000E+00 0.00000E+00 0.00000E+00 0.00000E+00 0.00000E+00 1.79611E-03 1.79611E-03 2.53987E-02
     1884  7.67550E-09 7.47165E-09-1.25000E-06 0.00000E+00 0.00000E+00 0.00000E+00 0.00000E+00 0.00000E+00 0.00000E+00 1.45931E-03 1.45931E-03 2.53987E-02
     1885  6.47180E-09 1.20633E-08-1.25000E-06 0.00000E+00 0.00000E+00 0.00000E+00 0.00000E+00 0.00000E+00 0.00000E+00 1.27121E-03 2.19901E-03 2.53987E-02
     1886  3.12791E-09 1.34710E-08-1.25000E-06 0.00000E+00 0.00000E+00 0.00000E+00 0.00000E+00 0.00000E+00 0.00000E+00 6.58842E-04 2.45301E-03 2.53987E-02
     1887  5.11242E-09 9.48625E-09-1.25000E-06 0.00000E+00 0.00000E+00 0.00000E+00 0.00000E+00 0.00000E+00 0.00000E+00 1.03231E-03 1.78701E-03 2.53987E-02
     1888  2.29145E-09 1.06275E-08-1.25000E-06 0.00000E+00 0.00000E+00 0.00000E+00 0.00000E+00 0.00000E+00 0.00000E+00 5.34665E-04 1.99331E-03 2.53987E-02
     1889  1.28516E-08 3.32037E-09-1.25000E-06 0.00000E+00 0.00000E+00 0.00000E+00 0.00000E+00 0.00000E+00 0.00000E+00 2.45301E-03 6.58854E-04 2.53987E-02
     1890  1.16745E-08 6.62596E-09-1.25000E-06 0.00000E+00 0.00000E+00 0.00000E+00 0.00000E+00 0.00000E+00 0.00000E+00 2.19901E-03 1.27121E-03 2.53987E-02
     1891  1.02955E-08 2.41603E-09-1.25000E-06 0.00000E+00 0.00000E+00 0.00000E+00 0.00000E+00 0.00000E+00 0.00000E+00 1.99331E-03 5.34674E-04 2.53987E-02
     1892  9.43109E-09 4.97872E-09-1.25000E-06 0.00000E+00 0.00000E+00 0.00000E+00 0.00000E+00 0.00000E+00 0.00000E+00 1.78701E-03 1.03230E-03 2.53987E-02
     1893  1.43761E-08 1.45098E-08-1.25000E-06 0.00000E+00 0.00000E+00 0.00000E+00 0.00000E+00 0.00000E+00 0.00000E+00 2.80631E-03 2.80631E-03 2.53987E-02
     1894  1.29391E-08 1.33886E-08-1.25000E-06 0.00000E+00 0.00000E+00 0.00000E+00 0.00000E+00 0.00000E+00 0.00000E+00 2.46961E-03 2.46961E-03 2.53987E-02
     1895  5.11431E-09 1.97684E-08-1.25000E-06 0.00000E+00 0.00000E+00 0.00000E+00 0.00000E+00 0.00000E+00 0.00000E+00 1.02831E-03 3.83312E-03 2.53987E-02
     1896  4.53571E-09 1.83279E-08-1.25000E-06 0.00000E+00 0.00000E+00 0.00000E+00 0.00000E+00 0.00000E+00 0.00000E+00 9.06096E-04 3.37282E-03 2.53987E-02
     1897  1.00531E-08 1.78141E-08-1.25000E-06 0.00000E+00 0.00000E+00 0.00000E+00 0.00000E+00 0.00000E+00 0.00000E+00 1.98521E-03 3.43652E-03 2.53987E-02
     1898  8.98761E-09 1.64772E-08-1.25000E-06 0.00000E+00 0.00000E+00 0.00000E+00 0.00000E+00 0.00000E+00 0.00000E+00 1.74801E-03 3.02352E-03 2.53987E-02
     1899  1.75570E-08 1.01727E-08-1.25000E-06 0.00000E+00 0.00000E+00 0.00000E+00 0.00000E+00 0.00000E+00 0.00000E+00 3.43652E-03 1.98521E-03 2.53987E-02
     1900  1.58522E-08 9.35666E-09-1.25000E-06 0.00000E+00 0.00000E+00 0.00000E+00 0.00000E+00 0.00000E+00 0.00000E+00 3.02352E-03 1.74801E-03 2.53987E-02
     1901  1.93876E-08 5.21657E-09-1.25000E-06 0.00000E+00 0.00000E+00 0.00000E+00 0.00000E+00 0.00000E+00 0.00000E+00 3.83312E-03 1.02831E-03 2.53987E-02
     1902  1.75318E-08 4.78858E-09-1.25000E-06 0.00000E+00 0.00000E+00 0.00000E+00 0.00000E+00 0.00000E+00 0.00000E+00 3.37282E-03 9.06105E-04 2.53987E-02
     3203  0.00000E+00 7.10622E-08-1.25000E-06 0.00000E+00 0.00000E+00 0.00000E+00 0.00000E+00 0.00000E+00 0.00000E+00 7.77700E-19 1.27001E-02 2.53987E-02
     3204  0.00000E+00 5.84766E-08-1.25000E-06 0.00000E+00 0.00000E+00 0.00000E+00 0.00000E+00 0.00000E+00 0.00000E+00 7.14500E-19 1.16682E-02 2.53987E-02
     3205  0.00000E+00 5.28348E-08-1.25000E-06 0.00000E+00 0.00000E+00 0.00000E+00 0.00000E+00 0.00000E+00 0.00000E+00 6.51300E-19 1.06364E-02 2.53987E-02
     3206  0.00000E+00 4.85012E-08-1.25000E-06 0.00000E+00 0.00000E+00 0.00000E+00 0.00000E+00 0.00000E+00 0.00000E+00 5.88100E-19 9.60445E-03 2.53987E-02
     3207  0.00000E+00 4.40800E-08-1.25000E-06 0.00000E+00 0.00000E+00 0.00000E+00 0.00000E+00 0.00000E+00 0.00000E+00 5.24900E-19 8.57254E-03 2.53987E-02
     3208  0.00000E+00 3.94332E-08-1.25000E-06 0.00000E+00 0.00000E+00 0.00000E+00 0.00000E+00 0.00000E+00 0.00000E+00 4.61700E-19 7.54064E-03 2.53987E-02
     3209  0.00000E+00 3.44970E-08-1.25000E-06 0.00000E+00 0.00000E+00 0.00000E+00 0.00000E+00 0.00000E+00 0.00000E+00 3.98500E-19 6.50883E-03 2.53987E-02
     3210  0.00000E+00 2.85483E-08-1.25000E-06 0.00000E+00 0.00000E+00 0.00000E+00 0.00000E+00 0.00000E+00 0.00000E+00 3.35400E-19 5.47693E-03 2.53987E-02
[...]
     1223  9.05129E-07 0.00000E+00-3.17343E-05 0.00000E+00 0.00000E+00 0.00000E+00 0.00000E+00 0.00000E+00 0.00000E+00 1.32381E-03 0.00000E+00 2.53683E-02
     1284  1.10727E-06 0.00000E+00-3.17343E-05 0.00000E+00 0.00000E+00 0.00000E+00 0.00000E+00 0.00000E+00 0.00000E+00 1.05941E-03 0.00000E+00 2.53683E-02
     1285  4.58206E-07 8.44588E-07-3.17343E-05 0.00000E+00 0.00000E+00 0.00000E+00 0.00000E+00 0.00000E+00 0.00000E+00 7.76178E-04 2.25996E-04 2.53683E-02
     1286  1.36603E-06 0.00000E+00-3.17343E-05 0.00000E+00 0.00000E+00 0.00000E+00 0.00000E+00 0.00000E+00 0.00000E+00 7.95116E-04 0.00000E+00 2.53683E-02
     1347  2.34645E-07 8.31539E-07-3.17343E-05 0.00000E+00 0.00000E+00 0.00000E+00 0.00000E+00 0.00000E+00 0.00000E+00 5.26346E-04 2.45331E-04 2.53683E-02
     1348  3.00557E-07 2.86572E-07-3.17343E-05 0.00000E+00 0.00000E+00 0.00000E+00 0.00000E+00 0.00000E+00 0.00000E+00 7.40586E-04 4.45897E-04 2.53683E-02
     1349  2.93246E-07 6.80990E-07-3.17343E-05 0.00000E+00 0.00000E+00 0.00000E+00 0.00000E+00 0.00000E+00 0.00000E+00 5.06115E-04 4.86441E-04 2.53683E-02
     1430  0.00000E+00 9.56615E-07-3.17343E-05 0.00000E+00 0.00000E+00 0.00000E+00 0.00000E+00 0.00000E+00 0.00000E+00 6.48000E-20 1.05926E-03 2.53683E-02
     1431  0.00000E+00 1.25217E-06-3.17343E-05 0.00000E+00 0.00000E+00 0.00000E+00 0.00000E+00 0.00000E+00 0.00000E+00 4.86000E-20 7.95002E-04 2.53683E-02
     1432  3.91520E-07 7.35891E-07-3.17343E-05 0.00000E+00 0.00000E+00 0.00000E+00 0.00000E+00 0.00000E+00 0.00000E+00 2.41715E-04 7.67768E-04 2.53683E-02
     1433  1.66535E-07 5.69809E-07-3.17343E-05 0.00000E+00 0.00000E+00 0.00000E+00 0.00000E+00 0.00000E+00 0.00000E+00 2.97333E-04 1.01027E-03 2.53683E-02
     1514  1.54168E-07 2.25672E-07-3.17343E-05 0.00000E+00 0.00000E+00 0.00000E+00 0.00000E+00 0.00000E+00 0.00000E+00 6.79393E-04 1.13653E-03 2.53683E-02
     1515  2.74843E-07 2.26871E-07-3.17343E-05 0.00000E+00 0.00000E+00 0.00000E+00 0.00000E+00 0.00000E+00 0.00000E+00 5.75551E-04 9.25406E-04 2.53683E-02
     1516  3.66198E-07 2.57124E-07-3.17343E-05 0.00000E+00 0.00000E+00 0.00000E+00 0.00000E+00 0.00000E+00 0.00000E+00 8.21729E-04 7.99608E-04 2.53683E-02
     1517  2.67979E-07 3.43066E-07-3.17343E-05 0.00000E+00 0.00000E+00 0.00000E+00 0.00000E+00 0.00000E+00 0.00000E+00 9.65569E-04 9.51805E-04 2.53683E-02
     1538  2.63560E-07 3.27447E-07-3.17343E-05 0.00000E+00 0.00000E+00 0.00000E+00 0.00000E+00 0.00000E+00 0.00000E+00 1.37506E-03 7.94076E-04 2.53683E-02
     1579  1.50164E-07 2.97873E-07-3.17343E-05 0.00000E+00 0.00000E+00 0.00000E+00 0.00000E+00 0.00000E+00 0.00000E+00 7.93899E-04 1.37510E-03 2.53683E-02
     1580  2.22008E-07 3.18301E-07-3.17343E-05 0.00000E+00 0.00000E+00 0.00000E+00 0.00000E+00 0.00000E+00 0.00000E+00 1.12272E-03 1.12282E-03 2.53683E-02
     1621  0.00000E+00 8.73114E-07-3.17343E-05 0.00000E+00 0.00000E+00 0.00000E+00 0.00000E+00 0.00000E+00 0.00000E+00 8.10100E-20 1.32377E-03 2.53683E-02
     1622  9.86332E-08 4.98635E-07-3.17343E-05 0.00000E+00 0.00000E+00 0.00000E+00 0.00000E+00 0.00000E+00 0.00000E+00 3.54377E-04 1.26370E-03 2.53683E-02
     1663  2.95423E-07 8.19711E-07-3.17343E-05 0.00000E+00 0.00000E+00 0.00000E+00 0.00000E+00 0.00000E+00 0.00000E+00 2.60008E-04 5.15101E-04 2.53683E-02
     1664  3.55712E-07 4.58560E-07-3.17343E-05 0.00000E+00 0.00000E+00 0.00000E+00 0.00000E+00 0.00000E+00 0.00000E+00 4.69688E-04 7.21823E-04 2.53683E-02
     1705  0.00000E+00 6.94296E-07-3.17343E-05 0.00000E+00 0.00000E+00 0.00000E+00 0.00000E+00 0.00000E+00 0.00000E+00 9.72100E-20 1.58819E-03 2.53683E-02
     1706  8.42495E-08 4.60142E-07-3.17343E-05 0.00000E+00 0.00000E+00 0.00000E+00 0.00000E+00 0.00000E+00 0.00000E+00 4.10960E-04 1.53386E-03 2.53683E-02
     1727  3.83958E-07 2.32506E-07-3.17343E-05 0.00000E+00 0.00000E+00 0.00000E+00 0.00000E+00 0.00000E+00 0.00000E+00 6.87776E-04 6.61689E-04 2.53683E-02
     1808  0.00000E+00 0.00000E+00-3.17343E-05 0.00000E+00 0.00000E+00 0.00000E+00 0.00000E+00 0.00000E+00 0.00000E+00 0.00000E+00 0.00000E+00 2.53683E-02
     1809  1.04854E-06 0.00000E+00-3.17343E-05 0.00000E+00 0.00000E+00 0.00000E+00 0.00000E+00 0.00000E+00 0.00000E+00 2.65632E-04 0.00000E+00 2.53683E-02
     1810  1.62240E-07 9.19580E-07-3.17343E-05 0.00000E+00 0.00000E+00 0.00000E+00 0.00000E+00 0.00000E+00 0.00000E+00 2.67864E-04 2.58695E-04 2.53683E-02
     1811  0.00000E+00 1.13360E-06-3.17343E-05 0.00000E+00 0.00000E+00 0.00000E+00 0.00000E+00 0.00000E+00 0.00000E+00 1.62000E-20 2.65717E-04 2.53683E-02
     1832  1.48261E-06 0.00000E+00-3.17343E-05 0.00000E+00 0.00000E+00 0.00000E+00 0.00000E+00 0.00000E+00 0.00000E+00 5.30649E-04 0.00000E+00 2.53683E-02
     1853  0.00000E+00 1.51072E-06-3.17343E-05 0.00000E+00 0.00000E+00 0.00000E+00 0.00000E+00 0.00000E+00 0.00000E+00 3.24000E-20 5.30677E-04 2.53683E-02
     1854  1.75653E-07 0.00000E+00-3.17343E-05 0.00000E+00 0.00000E+00 0.00000E+00 0.00000E+00 0.00000E+00 0.00000E+00 4.44518E-03 0.00000E+00 2.53683E-02
     1855  2.36300E-07 0.00000E+00-3.17343E-05 0.00000E+00 0.00000E+00 0.00000E+00 0.00000E+00 0.00000E+00 0.00000E+00 3.96904E-03 0.00000E+00 2.53683E-02
     1856  2.41919E-07 0.00000E+00-3.17343E-05 0.00000E+00 0.00000E+00 0.00000E+00 0.00000E+00 0.00000E+00 0.00000E+00 3.49274E-03 0.00000E+00 2.53683E-02
     1857  2.48273E-07 0.00000E+00-3.17343E-05 0.00000E+00 0.00000E+00 0.00000E+00 0.00000E+00 0.00000E+00 0.00000E+00 3.01645E-03 0.00000E+00 2.53683E-02
     1858  2.71055E-07 0.00000E+00-3.17343E-05 0.00000E+00 0.00000E+00 0.00000E+00 0.00000E+00 0.00000E+00 0.00000E+00 2.54027E-03 0.00000E+00 2.53683E-02
     1859  3.65851E-07 0.00000E+00-3.17343E-05 0.00000E+00 0.00000E+00 0.00000E+00 0.00000E+00 0.00000E+00 0.00000E+00 2.06417E-03 0.00000E+00 2.53683E-02
     1867  0.00000E+00 6.49931E-07-3.17343E-05 0.00000E+00 0.00000E+00 0.00000E+00 0.00000E+00 0.00000E+00 0.00000E+00 1.26400E-19 2.06445E-03 2.53683E-02
     1868  0.00000E+00 6.36333E-07-3.17343E-05 0.00000E+00 0.00000E+00 0.00000E+00 0.00000E+00 0.00000E+00 0.00000E+00 1.55500E-19 2.54064E-03 2.53683E-02
     1869  0.00000E+00 5.70278E-07-3.17343E-05 0.00000E+00 0.00000E+00 0.00000E+00 0.00000E+00 0.00000E+00 0.00000E+00 1.84700E-19 3.01677E-03 2.53683E-02
     1870  0.00000E+00 4.77848E-07-3.17343E-05 0.00000E+00 0.00000E+00 0.00000E+00 0.00000E+00 0.00000E+00 0.00000E+00 2.13900E-19 3.49298E-03 2.53683E-02
     1871  0.00000E+00 3.67175E-07-3.17343E-05 0.00000E+00 0.00000E+00 0.00000E+00 0.00000E+00 0.00000E+00 0.00000E+00 2.43000E-19 3.96917E-03 2.53683E-02
     1872  0.00000E+00 1.70467E-07-3.17343E-05 0.00000E+00 0.00000E+00 0.00000E+00 0.00000E+00 0.00000E+00 0.00000E+00 2.72200E-19 4.44517E-03 2.53683E-02
     1873  1.09296E-07 2.58639E-07-3.17343E-05 0.00000E+00 0.00000E+00 0.00000E+00 0.00000E+00 0.00000E+00 0.00000E+00 1.15061E-03 4.29376E-03 2.53683E-02
     1874  2.12544E-07 3.07419E-07-3.17343E-05 0.00000E+00 0.00000E+00 0.00000E+00 0.00000E+00 0.00000E+00 0.00000E+00 2.22271E-03 3.84981E-03 2.53683E-02
     1875  2.80093E-07 2.90641E-07-3.17343E-05 0.00000E+00 0.00000E+00 0.00000E+00 0.00000E+00 0.00000E+00 0.00000E+00 3.14338E-03 3.14339E-03 2.53683E-02
     1876  2.92154E-07 2.36352E-07-3.17343E-05 0.00000E+00 0.00000E+00 0.00000E+00 0.00000E+00 0.00000E+00 0.00000E+00 3.84979E-03 2.22274E-03 2.53683E-02
     1877  2.92382E-07 1.74111E-07-3.17343E-05 0.00000E+00 0.00000E+00 0.00000E+00 0.00000E+00 0.00000E+00 0.00000E+00 4.29379E-03 1.15067E-03 2.53683E-02
     1878  7.26159E-08 3.75133E-07-3.17343E-05 0.00000E+00 0.00000E+00 0.00000E+00 0.00000E+00 0.00000E+00 0.00000E+00 7.82870E-04 2.91318E-03 2.53683E-02
     1879  1.71961E-07 3.93149E-07-3.17343E-05 0.00000E+00 0.00000E+00 0.00000E+00 0.00000E+00 0.00000E+00 0.00000E+00 1.51007E-03 2.61149E-03 2.53683E-02
     1880  2.36898E-07 3.42107E-07-3.17343E-05 0.00000E+00 0.00000E+00 0.00000E+00 0.00000E+00 0.00000E+00 0.00000E+00 2.13304E-03 2.13314E-03 2.53683E-02
     1881  2.67869E-07 2.63143E-07-3.17343E-05 0.00000E+00 0.00000E+00 0.00000E+00 0.00000E+00 0.00000E+00 0.00000E+00 2.61137E-03 1.51016E-03 2.53683E-02
     1882  2.48215E-07 1.69151E-07-3.17343E-05 0.00000E+00 0.00000E+00 0.00000E+00 0.00000E+00 0.00000E+00 0.00000E+00 2.91305E-03 7.82978E-04 2.53683E-02
     1883  2.30022E-07 3.31490E-07-3.17343E-05 0.00000E+00 0.00000E+00 0.00000E+00 0.00000E+00 0.00000E+00 0.00000E+00 1.79633E-03 1.79643E-03 2.53683E-02
     1884  2.23449E-07 3.27422E-07-3.17343E-05 0.00000E+00 0.00000E+00 0.00000E+00 0.00000E+00 0.00000E+00 0.00000E+00 1.45952E-03 1.45963E-03 2.53683E-02
     1885  1.72001E-07 3.76492E-07-3.17343E-05 0.00000E+00 0.00000E+00 0.00000E+00 0.00000E+00 0.00000E+00 0.00000E+00 1.27137E-03 2.19938E-03 2.53683E-02
     1886  7.82679E-08 3.90781E-07-3.17343E-05 0.00000E+00 0.00000E+00 0.00000E+00 0.00000E+00 0.00000E+00 0.00000E+00 6.58917E-04 2.45339E-03 2.53683E-02
     1887  1.66771E-07 3.43649E-07-3.17343E-05 0.00000E+00 0.00000E+00 0.00000E+00 0.00000E+00 0.00000E+00 0.00000E+00 1.03247E-03 1.78734E-03 2.53683E-02
     1888  7.51646E-08 3.77595E-07-3.17343E-05 0.00000E+00 0.00000E+00 0.00000E+00 0.00000E+00 0.00000E+00 0.00000E+00 5.34738E-04 1.99368E-03 2.53683E-02
     1889  2.42025E-07 1.58843E-07-3.17343E-05 0.00000E+00 0.00000E+00 0.00000E+00 0.00000E+00 0.00000E+00 0.00000E+00 2.45324E-03 6.59009E-04 2.53683E-02
     1890  2.63229E-07 2.62821E-07-3.17343E-05 0.00000E+00 0.00000E+00 0.00000E+00 0.00000E+00 0.00000E+00 0.00000E+00 2.19926E-03 1.27146E-03 2.53683E-02
     1891  2.36349E-07 1.88466E-07-3.17343E-05 0.00000E+00 0.00000E+00 0.00000E+00 0.00000E+00 0.00000E+00 0.00000E+00 1.99354E-03 5.34860E-04 2.53683E-02
     1892  2.61655E-07 2.81916E-07-3.17343E-05 0.00000E+00 0.00000E+00 0.00000E+00 0.00000E+00 0.00000E+00 0.00000E+00 1.78726E-03 1.03258E-03 2.53683E-02
     1893  2.66563E-07 3.22114E-07-3.17343E-05 0.00000E+00 0.00000E+00 0.00000E+00 0.00000E+00 0.00000E+00 0.00000E+00 2.80657E-03 2.80662E-03 2.53683E-02
     1894  2.49490E-07 3.41365E-07-3.17343E-05 0.00000E+00 0.00000E+00 0.00000E+00 0.00000E+00 0.00000E+00 0.00000E+00 2.46985E-03 2.46994E-03 2.53683E-02
     1895  9.56251E-08 3.06921E-07-3.17343E-05 0.00000E+00 0.00000E+00 0.00000E+00 0.00000E+00 0.00000E+00 0.00000E+00 1.02840E-03 3.83341E-03 2.53683E-02
     1896  7.71933E-08 3.45730E-07-3.17343E-05 0.00000E+00 0.00000E+00 0.00000E+00 0.00000E+00 0.00000E+00 0.00000E+00 9.06169E-04 3.37315E-03 2.53683E-02
     1897  2.03818E-07 3.67982E-07-3.17343E-05 0.00000E+00 0.00000E+00 0.00000E+00 0.00000E+00 0.00000E+00 0.00000E+00 1.98540E-03 3.43687E-03 2.53683E-02
     1898  1.82716E-07 3.92586E-07-3.17343E-05 0.00000E+00 0.00000E+00 0.00000E+00 0.00000E+00 0.00000E+00 0.00000E+00 1.74818E-03 3.02389E-03 2.53683E-02
     1899  2.95729E-07 2.60413E-07-3.17343E-05 0.00000E+00 0.00000E+00 0.00000E+00 0.00000E+00 0.00000E+00 0.00000E+00 3.43680E-03 1.98546E-03 2.53683E-02
     1900  2.78823E-07 2.67894E-07-3.17343E-05 0.00000E+00 0.00000E+00 0.00000E+00 0.00000E+00 0.00000E+00 0.00000E+00 3.02378E-03 1.74827E-03 2.53683E-02
     1901  2.77681E-07 1.80896E-07-3.17343E-05 0.00000E+00 0.00000E+00 0.00000E+00 0.00000E+00 0.00000E+00 0.00000E+00 3.83338E-03 1.02848E-03 2.53683E-02
     1902  2.61280E-07 1.79813E-07-3.17343E-05 0.00000E+00 0.00000E+00 0.00000E+00 0.00000E+00 0.00000E+00 0.00000E+00 3.37306E-03 9.06280E-04 2.53683E-02
     3203  0.00000E+00 2.52504E-06-3.17343E-05 0.00000E+00 0.00000E+00 0.00000E+00 0.00000E+00 0.00000E+00 0.00000E+00 7.77700E-19 1.27025E-02 2.53683E-02
     3204  0.00000E+00 1.69394E-06-3.17343E-05 0.00000E+00 0.00000E+00 0.00000E+00 0.00000E+00 0.00000E+00 0.00000E+00 7.14500E-19 1.16698E-02 2.53683E-02
     3205  0.00000E+00 1.17616E-06-3.17343E-05 0.00000E+00 0.00000E+00 0.00000E+00 0.00000E+00 0.00000E+00 0.00000E+00 6.51300E-19 1.06375E-02 2.53683E-02
     3206  0.00000E+00 9.99214E-07-3.17343E-05 0.00000E+00 0.00000E+00 0.00000E+00 0.00000E+00 0.00000E+00 0.00000E+00 5.88100E-19 9.60540E-03 2.53683E-02
     3207  0.00000E+00 8.86538E-07-3.17343E-05 0.00000E+00 0.00000E+00 0.00000E+00 0.00000E+00 0.00000E+00 0.00000E+00 5.24900E-19 8.57339E-03 2.53683E-02
     3208  0.00000E+00 8.01439E-07-3.17343E-05 0.00000E+00 0.00000E+00 0.00000E+00 0.00000E+00 0.00000E+00 0.00000E+00 4.61700E-19 7.54140E-03 2.53683E-02
     3209  0.00000E+00 6.49099E-07-3.17343E-05 0.00000E+00 0.00000E+00 0.00000E+00 0.00000E+00 0.00000E+00 0.00000E+00 3.98500E-19 6.50945E-03 2.53683E-02
     3210  0.00000E+00 4.48594E-07-3.17343E-05 0.00000E+00 0.00000E+00 0.00000E+00 0.00000E+00 0.00000E+00 0.00000E+00 3.35400E-19 5.47735E-03 2.53683E-02
     3645  3.55080E-07 1.32396E-06-3.17343E-05 0.00000E+00 0.00000E+00 0.00000E+00 0.00000E+00 0.00000E+00 0.00000E+00 3.08716E-03 1.12537E-02 2.53683E-02
     3648  4.49865E-07 2.02395E-06-3.17343E-05 0.00000E+00 0.00000E+00 0.00000E+00 0.00000E+00 0.00000E+00 0.00000E+00 3.36375E-03 1.22486E-02 2.53683E-02
     3649  5.73282E-07 1.09333E-06-3.17343E-05 0.00000E+00 0.00000E+00 0.00000E+00 0.00000E+00 0.00000E+00 0.00000E+00 5.88927E-03 1.00742E-02 2.53683E-02
     3652  5.60159E-07 1.34251E-06-3.17343E-05 0.00000E+00 0.00000E+00 0.00000E+00 0.00000E+00 0.00000E+00 0.00000E+00 6.41296E-03 1.09636E-02 2.53683E-02
     3653  7.18819E-07 9.05016E-07-3.17343E-05 0.00000E+00 0.00000E+00 0.00000E+00 0.00000E+00 0.00000E+00 0.00000E+00 8.26952E-03 8.23321E-03 2.53683E-02
     3656  6.80355E-07 9.94617E-07-3.17343E-05 0.00000E+00 0.00000E+00 0.00000E+00 0.00000E+00 0.00000E+00 0.00000E+00 9.00178E-03 8.96039E-03 2.53683E-02
     3657  7.85577E-07 6.85991E-07-3.17343E-05 0.00000E+00 0.00000E+00 0.00000E+00 0.00000E+00 0.00000E+00 0.00000E+00 1.00907E-02 5.86059E-03 2.53683E-02
     3660  7.38358E-07 6.93340E-07-3.17343E-05 0.00000E+00 0.00000E+00 0.00000E+00 0.00000E+00 0.00000E+00 0.00000E+00 1.09821E-02 6.38019E-03 2.53683E-02
     3661  6.94526E-07 4.74850E-07-3.17343E-05 0.00000E+00 0.00000E+00 0.00000E+00 0.00000E+00 0.00000E+00 0.00000E+00 1.12574E-02 3.07177E-03 2.53683E-02
     3664  6.49633E-07 4.26879E-07-3.17343E-05 0.00000E+00 0.00000E+00 0.00000E+00 0.00000E+00 0.00000E+00 0.00000E+00 1.22520E-02 3.34613E-03 2.53683E-02
     3665  5.95675E-07 0.00000E+00-3.17343E-05 0.00000E+00 0.00000E+00 0.00000E+00 0.00000E+00 0.00000E+00 0.00000E+00 1.16687E-02 0.00000E+00 2.53683E-02
     3668  5.58591E-07 0.00000E+00-3.17343E-05 0.00000E+00 0.00000E+00 0.00000E+00 0.00000E+00 0.00000E+00 0.00000E+00 1.27006E-02 0.00000E+00 2.53683E-02
     4143  2.88693E-07 9.58867E-07-3.17343E-05 0.00000E+00 0.00000E+00 0.00000E+00 0.00000E+00 0.00000E+00 0.00000E+00 2.53399E-03 9.26506E-03 2.53683E-02
     4146  3.22292E-07 1.09411E-06-3.17343E-05 0.00000E+00 0.00000E+00 0.00000E+00 0.00000E+00 0.00000E+00 0.00000E+00 2.81052E-03 1.02594E-02 2.53683E-02
     4147  4.81767E-07 8.65927E-07-3.17343E-05 0.00000E+00 0.00000E+00 0.00000E+00 0.00000E+00 0.00000E+00 0.00000E+00 4.84178E-03 8.29577E-03 2.53683E-02
     4150  5.26348E-07 9.70654E-07-3.17343E-05 0.00000E+00 0.00000E+00 0.00000E+00 0.00000E+00 0.00000E+00 0.00000E+00 5.36553E-03 9.18497E-03 2.53683E-02
     4151  6.01824E-07 7.43235E-07-3.17343E-05 0.00000E+00 0.00000E+00 0.00000E+00 0.00000E+00 0.00000E+00 0.00000E+00 6.80500E-03 6.77894E-03 2.53683E-02
     4154  6.53348E-07 8.15125E-07-3.17343E-05 0.00000E+00 0.00000E+00 0.00000E+00 0.00000E+00 0.00000E+00 0.00000E+00 7.53725E-03 7.50612E-03 2.53683E-02
     4155  6.49601E-07 6.03285E-07-3.17343E-05 0.00000E+00 0.00000E+00 0.00000E+00 0.00000E+00 0.00000E+00 0.00000E+00 8.30755E-03 4.82130E-03 2.53683E-02
     4158  7.14170E-07 6.51941E-07-3.17343E-05 0.00000E+00 0.00000E+00 0.00000E+00 0.00000E+00 0.00000E+00 0.00000E+00 9.19911E-03 5.34095E-03 2.53683E-02
     4159  5.98404E-07 4.30653E-07-3.17343E-05 0.00000E+00 0.00000E+00 0.00000E+00 0.00000E+00 0.00000E+00 0.00000E+00 9.26780E-03 2.52293E-03 2.53683E-02
     4162  6.46731E-07 4.70413E-07-3.17343E-05 0.00000E+00 0.00000E+00 0.00000E+00 0.00000E+00 0.00000E+00 0.00000E+00 1.02625E-02 2.79737E-03 2.53683E-02
     4163  5.41756E-07 0.00000E+00-3.17343E-05 0.00000E+00 0.00000E+00 0.00000E+00 0.00000E+00 0.00000E+00 0.00000E+00 9.60494E-03 0.00000E+00 2.53683E-02
     4166  5.77571E-07 0.00000E+00-3.17343E-05 0.00000E+00 0.00000E+00 0.00000E+00 0.00000E+00 0.00000E+00 0.00000E+00 1.06369E-02 0.00000E+00 2.53683E-02
     4305  1.94909E-07 6.16859E-07-3.17343E-05 0.00000E+00 0.00000E+00 0.00000E+00 0.00000E+00 0.00000E+00 0.00000E+00 1.70399E-03 6.28232E-03 2.53683E-02
     4306  2.26950E-07 7.57243E-07-3.17343E-05 0.00000E+00 0.00000E+00 0.00000E+00 0.00000E+00 0.00000E+00 0.00000E+00 1.98073E-03 7.27666E-03 2.53683E-02
     4307  3.44991E-07 6.04920E-07-3.17343E-05 0.00000E+00 0.00000E+00 0.00000E+00 0.00000E+00 0.00000E+00 0.00000E+00 3.27044E-03 5.62820E-03 2.53683E-02
     4308  3.95166E-07 7.05884E-07-3.17343E-05 0.00000E+00 0.00000E+00 0.00000E+00 0.00000E+00 0.00000E+00 0.00000E+00 3.79430E-03 6.51741E-03 2.53683E-02
     4309  4.24764E-07 5.37819E-07-3.17343E-05 0.00000E+00 0.00000E+00 0.00000E+00 0.00000E+00 0.00000E+00 0.00000E+00 4.60802E-03 4.59764E-03 2.53683E-02
     4310  4.84526E-07 6.19415E-07-3.17343E-05 0.00000E+00 0.00000E+00 0.00000E+00 0.00000E+00 0.00000E+00 0.00000E+00 5.34038E-03 5.32482E-03 2.53683E-02
     4311  4.55185E-07 4.62554E-07-3.17343E-05 0.00000E+00 0.00000E+00 0.00000E+00 0.00000E+00 0.00000E+00 0.00000E+00 5.63296E-03 3.26226E-03 2.53683E-02
     4312  5.19367E-07 5.25196E-07-3.17343E-05 0.00000E+00 0.00000E+00 0.00000E+00 0.00000E+00 0.00000E+00 0.00000E+00 6.52452E-03 3.78193E-03 2.53683E-02
     4313  4.26095E-07 3.59972E-07-3.17343E-05 0.00000E+00 0.00000E+00 0.00000E+00 0.00000E+00 0.00000E+00 0.00000E+00 6.28343E-03 1.69966E-03 2.53683E-02
     4314  4.86193E-07 3.91686E-07-3.17343E-05 0.00000E+00 0.00000E+00 0.00000E+00 0.00000E+00 0.00000E+00 0.00000E+00 7.27819E-03 1.97409E-03 2.53683E-02
     4315  3.96480E-07 0.00000E+00-3.17343E-05 0.00000E+00 0.00000E+00 0.00000E+00 0.00000E+00 0.00000E+00 0.00000E+00 6.50920E-03 0.00000E+00 2.53683E-02
     4316  4.49041E-07 0.00000E+00-3.17343E-05 0.00000E+00 0.00000E+00 0.00000E+00 0.00000E+00 0.00000E+00 0.00000E+00 7.54105E-03 0.00000E+00 2.53683E-02
     4323  1.70057E-07 4.38484E-07-3.17343E-05 0.00000E+00 0.00000E+00 0.00000E+00 0.00000E+00 0.00000E+00 0.00000E+00 1.42737E-03 5.28804E-03 2.53683E-02
     4324  3.00572E-07 4.61658E-07-3.17343E-05 0.00000E+00 0.00000E+00 0.00000E+00 0.00000E+00 0.00000E+00 0.00000E+00 2.74660E-03 4.73896E-03 2.53683E-02
     4325  3.65965E-07 4.17261E-07-3.17343E-05 0.00000E+00 0.00000E+00 0.00000E+00 0.00000E+00 0.00000E+00 0.00000E+00 3.87577E-03 3.87052E-03 2.53683E-02
     4326  3.87314E-07 3.62501E-07-3.17343E-05 0.00000E+00 0.00000E+00 0.00000E+00 0.00000E+00 0.00000E+00 0.00000E+00 4.74139E-03 2.74246E-03 2.53683E-02
     4327  3.59234E-07 2.95685E-07-3.17343E-05 0.00000E+00 0.00000E+00 0.00000E+00 0.00000E+00 0.00000E+00 0.00000E+00 5.28866E-03 1.42520E-03 2.53683E-02
     4328  3.27395E-07 0.00000E+00-3.17343E-05 0.00000E+00 0.00000E+00 0.00000E+00 0.00000E+00 0.00000E+00 0.00000E+00 5.47723E-03 0.00000E+00 2.53683E-02
     4365  2.52464E-07 8.54720E-07-3.17343E-05 0.00000E+00 0.00000E+00 0.00000E+00 0.00000E+00 0.00000E+00 0.00000E+00 2.25735E-03 8.27085E-03 2.53683E-02
     4366  4.37194E-07 7.89467E-07-3.17343E-05 0.00000E+00 0.00000E+00 0.00000E+00 0.00000E+00 0.00000E+00 0.00000E+00 4.31804E-03 7.40659E-03 2.53683E-02
     4367  5.44004E-07 6.83741E-07-3.17343E-05 0.00000E+00 0.00000E+00 0.00000E+00 0.00000E+00 0.00000E+00 0.00000E+00 6.07264E-03 6.05188E-03 2.53683E-02
     4368  5.85239E-07 5.65266E-07-3.17343E-05 0.00000E+00 0.00000E+00 0.00000E+00 0.00000E+00 0.00000E+00 0.00000E+00 7.41599E-03 4.30157E-03 2.53683E-02
     4369  5.43223E-07 4.09641E-07-3.17343E-05 0.00000E+00 0.00000E+00 0.00000E+00 0.00000E+00 0.00000E+00 0.00000E+00 8.27294E-03 2.24851E-03 2.53683E-02
     4370  4.97893E-07 0.00000E+00-3.17343E-05 0.00000E+00 0.00000E+00 0.00000E+00 0.00000E+00 0.00000E+00 0.00000E+00 8.57300E-03 0.00000E+00 2.53683E-02
