 LS-DYNA keyword deck by LS-PrePost                                      
                    ls-dyna smp d R14 R14.1.1s_1_ef50e1 date 06/16/2024

 n o d a l   f o r c e/e n e r g y    o u t p u t  t=   0.00000E+00

 velocity boundary condition forces/rigid body moments 

 nd#     354  xforce=   0.0000E+00   yforce=   0.0000E+00  zforce=   0.0000E+00   energy=   0.0000E+00   setid =     354 xmoment=   0.0000E+00 ymoment=   0.0000E+00 zmoment=   0.0000E+00
 nd#     355  xforce=   0.0000E+00   yforce=   0.0000E+00  zforce=   0.0000E+00   energy=   0.0000E+00   setid =     355 xmoment=   0.0000E+00 ymoment=   0.0000E+00 zmoment=   0.0000E+00
 nd#     356  xforce=   0.0000E+00   yforce=   0.0000E+00  zforce=   0.0000E+00   energy=   0.0000E+00   setid =     356 xmoment=   0.0000E+00 ymoment=   0.0000E+00 zmoment=   0.0000E+00
 nd#     357  xforce=   0.0000E+00   yforce=   0.0000E+00  zforce=   0.0000E+00   energy=   0.0000E+00   setid =     357 xmoment=   0.0000E+00 ymoment=   0.0000E+00 zmoment=   0.0000E+00
 nd#     403  xforce=   0.0000E+00   yforce=   0.0000E+00  zforce=   0.0000E+00   energy=   0.0000E+00   setid =     403 xmoment=   0.0000E+00 ymoment=   0.0000E+00 zmoment=   0.0000E+00
 nd#     404  xforce=   0.0000E+00   yforce=   0.0000E+00  zforce=   0.0000E+00   energy=   0.0000E+00   setid =     404 xmoment=   0.0000E+00 ymoment=   0.0000E+00 zmoment=   0.0000E+00
 nd#     405  xforce=   0.0000E+00   yforce=   0.0000E+00  zforce=   0.0000E+00   energy=   0.0000E+00   setid =     405 xmoment=   0.0000E+00 ymoment=   0.0000E+00 zmoment=   0.0000E+00
 nd#     466  xforce=   0.0000E+00   yforce=   0.0000E+00  zforce=   0.0000E+00   energy=   0.0000E+00   setid =     466 xmoment=   0.0000E+00 ymoment=   0.0000E+00 zmoment=   0.0000E+00
 nd#     467  xforce=   0.0000E+00   yforce=   0.0000E+00  zforce=   0.0000E+00   energy=   0.0000E+00   setid =     467 xmoment=   0.0000E+00 ymoment=   0.0000E+00 zmoment=   0.0000E+00
 nd#     468  xforce=   0.0000E+00   yforce=   0.0000E+00  zforce=   0.0000E+00   energy=   0.0000E+00   setid =     468 xmoment=   0.0000E+00 ymoment=   0.0000E+00 zmoment=   0.0000E+00
 nd#     469  xforce=   0.0000E+00   yforce=   0.0000E+00  zforce=   0.0000E+00   energy=   0.0000E+00   setid =     469 xmoment=   0.0000E+00 ymoment=   0.0000E+00 zmoment=   0.0000E+00
 nd#     530  xforce=   0.0000E+00   yforce=   0.0000E+00  zforce=   0.0000E+00   energy=   0.0000E+00   setid =     530 xmoment=   0.0000E+00 ymoment=   0.0000E+00 zmoment=   0.0000E+00
 nd#     531  xforce=   0.0000E+00   yforce=   0.0000E+00  zforce=   0.0000E+00   energy=   0.0000E+00   setid =     531 xmoment=   0.0000E+00 ymoment=   0.0000E+00 zmoment=   0.0000E+00
 nd#     532  xforce=   0.0000E+00   yforce=   0.0000E+00  zforce=   0.0000E+00   energy=   0.0000E+00   setid =     532 xmoment=   0.0000E+00 ymoment=   0.0000E+00 zmoment=   0.0000E+00
 nd#     533  xforce=   0.0000E+00   yforce=   0.0000E+00  zforce=   0.0000E+00   energy=   0.0000E+00   setid =     533 xmoment=   0.0000E+00 ymoment=   0.0000E+00 zmoment=   0.0000E+00
 nd#     549  xforce=   0.0000E+00   yforce=   0.0000E+00  zforce=   0.0000E+00   energy=   0.0000E+00   setid =     549 xmoment=   0.0000E+00 ymoment=   0.0000E+00 zmoment=   0.0000E+00
 nd#     610  xforce=   0.0000E+00   yforce=   0.0000E+00  zforce=   0.0000E+00   energy=   0.0000E+00   setid =     610 xmoment=   0.0000E+00 ymoment=   0.0000E+00 zmoment=   0.0000E+00
 nd#     611  xforce=   0.0000E+00   yforce=   0.0000E+00  zforce=   0.0000E+00   energy=   0.0000E+00   setid =     611 xmoment=   0.0000E+00 ymoment=   0.0000E+00 zmoment=   0.0000E+00
 nd#     612  xforce=   0.0000E+00   yforce=   0.0000E+00  zforce=   0.0000E+00   energy=   0.0000E+00   setid =     612 xmoment=   0.0000E+00 ymoment=   0.0000E+00 zmoment=   0.0000E+00
 nd#     613  xforce=   0.0000E+00   yforce=   0.0000E+00  zforce=   0.0000E+00   energy=   0.0000E+00   setid =     613 xmoment=   0.0000E+00 ymoment=   0.0000E+00 zmoment=   0.0000E+00
 nd#     629  xforce=   0.0000E+00   yforce=   0.0000E+00  zforce=   0.0000E+00   energy=   0.0000E+00   setid =     629 xmoment=   0.0000E+00 ymoment=   0.0000E+00 zmoment=   0.0000E+00
 nd#     660  xforce=   0.0000E+00   yforce=   0.0000E+00  zforce=   0.0000E+00   energy=   0.0000E+00   setid =     660 xmoment=   0.0000E+00 ymoment=   0.0000E+00 zmoment=   0.0000E+00
 nd#     661  xforce=   0.0000E+00   yforce=   0.0000E+00  zforce=   0.0000E+00   energy=   0.0000E+00   setid =     661 xmoment=   0.0000E+00 ymoment=   0.0000E+00 zmoment=   0.0000E+00
 nd#     692  xforce=   0.0000E+00   yforce=   0.0000E+00  zforce=   0.0000E+00   energy=   0.0000E+00   setid =     692 xmoment=   0.0000E+00 ymoment=   0.0000E+00 zmoment=   0.0000E+00
 nd#     693  xforce=   0.0000E+00   yforce=   0.0000E+00  zforce=   0.0000E+00   energy=   0.0000E+00   setid =     693 xmoment=   0.0000E+00 ymoment=   0.0000E+00 zmoment=   0.0000E+00
 nd#     724  xforce=   0.0000E+00   yforce=   0.0000E+00  zforce=   0.0000E+00   energy=   0.0000E+00   setid =     724 xmoment=   0.0000E+00 ymoment=   0.0000E+00 zmoment=   0.0000E+00
 nd#     725  xforce=   0.0000E+00   yforce=   0.0000E+00  zforce=   0.0000E+00   energy=   0.0000E+00   setid =     725 xmoment=   0.0000E+00 ymoment=   0.0000E+00 zmoment=   0.0000E+00
 nd#     771  xforce=   0.0000E+00   yforce=   0.0000E+00  zforce=   0.0000E+00   energy=   0.0000E+00   setid =     771 xmoment=   0.0000E+00 ymoment=   0.0000E+00 zmoment=   0.0000E+00
 nd#     772  xforce=   0.0000E+00   yforce=   0.0000E+00  zforce=   0.0000E+00   energy=   0.0000E+00   setid =     772 xmoment=   0.0000E+00 ymoment=   0.0000E+00 zmoment=   0.0000E+00
 nd#     773  xforce=   0.0000E+00   yforce=   0.0000E+00  zforce=   0.0000E+00   energy=   0.0000E+00   setid =     773 xmoment=   0.0000E+00 ymoment=   0.0000E+00 zmoment=   0.0000E+00
 nd#     804  xforce=   0.0000E+00   yforce=   0.0000E+00  zforce=   0.0000E+00   energy=   0.0000E+00   setid =     804 xmoment=   0.0000E+00 ymoment=   0.0000E+00 zmoment=   0.0000E+00
 nd#     805  xforce=   0.0000E+00   yforce=   0.0000E+00  zforce=   0.0000E+00   energy=   0.0000E+00   setid =     805 xmoment=   0.0000E+00 ymoment=   0.0000E+00 zmoment=   0.0000E+00
 nd#     821  xforce=   0.0000E+00   yforce=   0.0000E+00  zforce=   0.0000E+00   energy=   0.0000E+00   setid =     821 xmoment=   0.0000E+00 ymoment=   0.0000E+00 zmoment=   0.0000E+00
 nd#     852  xforce=   0.0000E+00   yforce=   0.0000E+00  zforce=   0.0000E+00   energy=   0.0000E+00   setid =     852 xmoment=   0.0000E+00 ymoment=   0.0000E+00 zmoment=   0.0000E+00
 nd#     853  xforce=   0.0000E+00   yforce=   0.0000E+00  zforce=   0.0000E+00   energy=   0.0000E+00   setid =     853 xmoment=   0.0000E+00 ymoment=   0.0000E+00 zmoment=   0.0000E+00
 nd#     869  xforce=   0.0000E+00   yforce=   0.0000E+00  zforce=   0.0000E+00   energy=   0.0000E+00   setid =     869 xmoment=   0.0000E+00 ymoment=   0.0000E+00 zmoment=   0.0000E+00
 nd#     885  xforce=   0.0000E+00   yforce=   0.0000E+00  zforce=   0.0000E+00   energy=   0.0000E+00   setid =     885 xmoment=   0.0000E+00 ymoment=   0.0000E+00 zmoment=   0.0000E+00
 nd#    1082  xforce=   0.0000E+00   yforce=   0.0000E+00  zforce=   0.0000E+00   energy=   0.0000E+00   setid =    1082 xmoment=   0.0000E+00 ymoment=   0.0000E+00 zmoment=   0.0000E+00
 nd#    1083  xforce=   0.0000E+00   yforce=   0.0000E+00  zforce=   0.0000E+00   energy=   0.0000E+00   setid =    1083 xmoment=   0.0000E+00 ymoment=   0.0000E+00 zmoment=   0.0000E+00
 nd#    1084  xforce=   0.0000E+00   yforce=   0.0000E+00  zforce=   0.0000E+00   energy=   0.0000E+00   setid =    1084 xmoment=   0.0000E+00 ymoment=   0.0000E+00 zmoment=   0.0000E+00
 nd#    1085  xforce=   0.0000E+00   yforce=   0.0000E+00  zforce=   0.0000E+00   energy=   0.0000E+00   setid =    1085 xmoment=   0.0000E+00 ymoment=   0.0000E+00 zmoment=   0.0000E+00
 nd#    1086  xforce=   0.0000E+00   yforce=   0.0000E+00  zforce=   0.0000E+00   energy=   0.0000E+00   setid =    1086 xmoment=   0.0000E+00 ymoment=   0.0000E+00 zmoment=   0.0000E+00
 nd#    1087  xforce=   0.0000E+00   yforce=   0.0000E+00  zforce=   0.0000E+00   energy=   0.0000E+00   setid =    1087 xmoment=   0.0000E+00 ymoment=   0.0000E+00 zmoment=   0.0000E+00
 nd#    1649  xforce=   0.0000E+00   yforce=   0.0000E+00  zforce=   0.0000E+00   energy=   0.0000E+00   setid =    1649 xmoment=   0.0000E+00 ymoment=   0.0000E+00 zmoment=   0.0000E+00
 nd#    1651  xforce=   0.0000E+00   yforce=   0.0000E+00  zforce=   0.0000E+00   energy=   0.0000E+00   setid =    1651 xmoment=   0.0000E+00 ymoment=   0.0000E+00 zmoment=   0.0000E+00
 nd#    1653  xforce=   0.0000E+00   yforce=   0.0000E+00  zforce=   0.0000E+00   energy=   0.0000E+00   setid =    1653 xmoment=   0.0000E+00 ymoment=   0.0000E+00 zmoment=   0.0000E+00
 nd#    1655  xforce=   0.0000E+00   yforce=   0.0000E+00  zforce=   0.0000E+00   energy=   0.0000E+00   setid =    1655 xmoment=   0.0000E+00 ymoment=   0.0000E+00 zmoment=   0.0000E+00
 nd#    1657  xforce=   0.0000E+00   yforce=   0.0000E+00  zforce=   0.0000E+00   energy=   0.0000E+00   setid =    1657 xmoment=   0.0000E+00 ymoment=   0.0000E+00 zmoment=   0.0000E+00
 nd#    1659  xforce=   0.0000E+00   yforce=   0.0000E+00  zforce=   0.0000E+00   energy=   0.0000E+00   setid =    1659 xmoment=   0.0000E+00 ymoment=   0.0000E+00 zmoment=   0.0000E+00
 nd#    1733  xforce=   0.0000E+00   yforce=   0.0000E+00  zforce=   0.0000E+00   energy=   0.0000E+00   setid =    1733 xmoment=   0.0000E+00 ymoment=   0.0000E+00 zmoment=   0.0000E+00
 nd#    1734  xforce=   0.0000E+00   yforce=   0.0000E+00  zforce=   0.0000E+00   energy=   0.0000E+00   setid =    1734 xmoment=   0.0000E+00 ymoment=   0.0000E+00 zmoment=   0.0000E+00
 nd#    1735  xforce=   0.0000E+00   yforce=   0.0000E+00  zforce=   0.0000E+00   energy=   0.0000E+00   setid =    1735 xmoment=   0.0000E+00 ymoment=   0.0000E+00 zmoment=   0.0000E+00
 nd#    1736  xforce=   0.0000E+00   yforce=   0.0000E+00  zforce=   0.0000E+00   energy=   0.0000E+00   setid =    1736 xmoment=   0.0000E+00 ymoment=   0.0000E+00 zmoment=   0.0000E+00
 nd#    1737  xforce=   0.0000E+00   yforce=   0.0000E+00  zforce=   0.0000E+00   energy=   0.0000E+00   setid =    1737 xmoment=   0.0000E+00 ymoment=   0.0000E+00 zmoment=   0.0000E+00
 nd#    1738  xforce=   0.0000E+00   yforce=   0.0000E+00  zforce=   0.0000E+00   energy=   0.0000E+00   setid =    1738 xmoment=   0.0000E+00 ymoment=   0.0000E+00 zmoment=   0.0000E+00
 nd#    1739  xforce=   0.0000E+00   yforce=   0.0000E+00  zforce=   0.0000E+00   energy=   0.0000E+00   setid =    1739 xmoment=   0.0000E+00 ymoment=   0.0000E+00 zmoment=   0.0000E+00
 nd#    1740  xforce=   0.0000E+00   yforce=   0.0000E+00  zforce=   0.0000E+00   energy=   0.0000E+00   setid =    1740 xmoment=   0.0000E+00 ymoment=   0.0000E+00 zmoment=   0.0000E+00
 nd#    1741  xforce=   0.0000E+00   yforce=   0.0000E+00  zforce=   0.0000E+00   energy=   0.0000E+00   setid =    1741 xmoment=   0.0000E+00 ymoment=   0.0000E+00 zmoment=   0.0000E+00
 nd#    1742  xforce=   0.0000E+00   yforce=   0.0000E+00  zforce=   0.0000E+00   energy=   0.0000E+00   setid =    1742 xmoment=   0.0000E+00 ymoment=   0.0000E+00 zmoment=   0.0000E+00
 nd#    1743  xforce=   0.0000E+00   yforce=   0.0000E+00  zforce=   0.0000E+00   energy=   0.0000E+00   setid =    1743 xmoment=   0.0000E+00 ymoment=   0.0000E+00 zmoment=   0.0000E+00
 nd#    1744  xforce=   0.0000E+00   yforce=   0.0000E+00  zforce=   0.0000E+00   energy=   0.0000E+00   setid =    1744 xmoment=   0.0000E+00 ymoment=   0.0000E+00 zmoment=   0.0000E+00
 nd#    1751  xforce=   0.0000E+00   yforce=   0.0000E+00  zforce=   0.0000E+00   energy=   0.0000E+00   setid =    1751 xmoment=   0.0000E+00 ymoment=   0.0000E+00 zmoment=   0.0000E+00
 nd#    1752  xforce=   0.0000E+00   yforce=   0.0000E+00  zforce=   0.0000E+00   energy=   0.0000E+00   setid =    1752 xmoment=   0.0000E+00 ymoment=   0.0000E+00 zmoment=   0.0000E+00
 nd#    1753  xforce=   0.0000E+00   yforce=   0.0000E+00  zforce=   0.0000E+00   energy=   0.0000E+00   setid =    1753 xmoment=   0.0000E+00 ymoment=   0.0000E+00 zmoment=   0.0000E+00
 nd#    1754  xforce=   0.0000E+00   yforce=   0.0000E+00  zforce=   0.0000E+00   energy=   0.0000E+00   setid =    1754 xmoment=   0.0000E+00 ymoment=   0.0000E+00 zmoment=   0.0000E+00
 nd#    1755  xforce=   0.0000E+00   yforce=   0.0000E+00  zforce=   0.0000E+00   energy=   0.0000E+00   setid =    1755 xmoment=   0.0000E+00 ymoment=   0.0000E+00 zmoment=   0.0000E+00
 nd#    1756  xforce=   0.0000E+00   yforce=   0.0000E+00  zforce=   0.0000E+00   energy=   0.0000E+00   setid =    1756 xmoment=   0.0000E+00 ymoment=   0.0000E+00 zmoment=   0.0000E+00
 nd#    1757  xforce=   0.0000E+00   yforce=   0.0000E+00  zforce=   0.0000E+00   energy=   0.0000E+00   setid =    1757 xmoment=   0.0000E+00 ymoment=   0.0000E+00 zmoment=   0.0000E+00
 nd#    1758  xforce=   0.0000E+00   yforce=   0.0000E+00  zforce=   0.0000E+00   energy=   0.0000E+00   setid =    1758 xmoment=   0.0000E+00 ymoment=   0.0000E+00 zmoment=   0.0000E+00
 nd#    1759  xforce=   0.0000E+00   yforce=   0.0000E+00  zforce=   0.0000E+00   energy=   0.0000E+00   setid =    1759 xmoment=   0.0000E+00 ymoment=   0.0000E+00 zmoment=   0.0000E+00
 nd#    1760  xforce=   0.0000E+00   yforce=   0.0000E+00  zforce=   0.0000E+00   energy=   0.0000E+00   setid =    1760 xmoment=   0.0000E+00 ymoment=   0.0000E+00 zmoment=   0.0000E+00
 nd#    1761  xforce=   0.0000E+00   yforce=   0.0000E+00  zforce=   0.0000E+00   energy=   0.0000E+00   setid =    1761 xmoment=   0.0000E+00 ymoment=   0.0000E+00 zmoment=   0.0000E+00
 nd#    1762  xforce=   0.0000E+00   yforce=   0.0000E+00  zforce=   0.0000E+00   energy=   0.0000E+00   setid =    1762 xmoment=   0.0000E+00 ymoment=   0.0000E+00 zmoment=   0.0000E+00
 nd#    1769  xforce=   0.0000E+00   yforce=   0.0000E+00  zforce=   0.0000E+00   energy=   0.0000E+00   setid =    1769 xmoment=   0.0000E+00 ymoment=   0.0000E+00 zmoment=   0.0000E+00
 nd#    1770  xforce=   0.0000E+00   yforce=   0.0000E+00  zforce=   0.0000E+00   energy=   0.0000E+00   setid =    1770 xmoment=   0.0000E+00 ymoment=   0.0000E+00 zmoment=   0.0000E+00
 nd#    1771  xforce=   0.0000E+00   yforce=   0.0000E+00  zforce=   0.0000E+00   energy=   0.0000E+00   setid =    1771 xmoment=   0.0000E+00 ymoment=   0.0000E+00 zmoment=   0.0000E+00
 nd#    1772  xforce=   0.0000E+00   yforce=   0.0000E+00  zforce=   0.0000E+00   energy=   0.0000E+00   setid =    1772 xmoment=   0.0000E+00 ymoment=   0.0000E+00 zmoment=   0.0000E+00
 nd#    1773  xforce=   0.0000E+00   yforce=   0.0000E+00  zforce=   0.0000E+00   energy=   0.0000E+00   setid =    1773 xmoment=   0.0000E+00 ymoment=   0.0000E+00 zmoment=   0.0000E+00
 nd#    1774  xforce=   0.0000E+00   yforce=   0.0000E+00  zforce=   0.0000E+00   energy=   0.0000E+00   setid =    1774 xmoment=   0.0000E+00 ymoment=   0.0000E+00 zmoment=   0.0000E+00
              xtotal=   0.0000E+00   ytotal=   0.0000E+00  ztotal=   0.0000E+00   etotal=   0.0000E+00

 n o d a l   f o r c e/e n e r g y    o u t p u t  t=   2.50000E+00

 velocity boundary condition forces/rigid body moments 

 nd#     354  xforce=   0.0000E+00   yforce=   0.0000E+00  zforce=  -1.4226E+01   energy=   8.8911E-05   setid =     354 xmoment=   0.0000E+00 ymoment=   0.0000E+00 zmoment=   0.0000E+00
 nd#     355  xforce=   0.0000E+00   yforce=   0.0000E+00  zforce=  -2.1145E+01   energy=   1.3215E-04   setid =     355 xmoment=   0.0000E+00 ymoment=   0.0000E+00 zmoment=   0.0000E+00
 nd#     356  xforce=   0.0000E+00   yforce=   0.0000E+00  zforce=  -1.0937E+01   energy=   6.8356E-05   setid =     356 xmoment=   0.0000E+00 ymoment=   0.0000E+00 zmoment=   0.0000E+00
 nd#     357  xforce=   0.0000E+00   yforce=   0.0000E+00  zforce=  -7.6686E+00   energy=   4.7929E-05   setid =     357 xmoment=   0.0000E+00 ymoment=   0.0000E+00 zmoment=   0.0000E+00
 nd#     403  xforce=   0.0000E+00   yforce=   0.0000E+00  zforce=  -9.3419E+00   energy=   5.8387E-05   setid =     403 xmoment=   0.0000E+00 ymoment=   0.0000E+00 zmoment=   0.0000E+00
 nd#     404  xforce=   0.0000E+00   yforce=   0.0000E+00  zforce=  -1.2438E+01   energy=   7.7738E-05   setid =     404 xmoment=   0.0000E+00 ymoment=   0.0000E+00 zmoment=   0.0000E+00
 nd#     405  xforce=   0.0000E+00   yforce=   0.0000E+00  zforce=  -1.1464E+01   energy=   7.1649E-05   setid =     405 xmoment=   0.0000E+00 ymoment=   0.0000E+00 zmoment=   0.0000E+00
 nd#     466  xforce=   0.0000E+00   yforce=   0.0000E+00  zforce=  -4.9448E+00   energy=   3.0905E-05   setid =     466 xmoment=   0.0000E+00 ymoment=   0.0000E+00 zmoment=   0.0000E+00
 nd#     467  xforce=   0.0000E+00   yforce=   0.0000E+00  zforce=  -7.3292E+00   energy=   4.5807E-05   setid =     467 xmoment=   0.0000E+00 ymoment=   0.0000E+00 zmoment=   0.0000E+00
 nd#     468  xforce=   0.0000E+00   yforce=   0.0000E+00  zforce=  -9.3958E+00   energy=   5.8724E-05   setid =     468 xmoment=   0.0000E+00 ymoment=   0.0000E+00 zmoment=   0.0000E+00
 nd#     469  xforce=   0.0000E+00   yforce=   0.0000E+00  zforce=  -7.8913E+00   energy=   4.9320E-05   setid =     469 xmoment=   0.0000E+00 ymoment=   0.0000E+00 zmoment=   0.0000E+00
 nd#     530  xforce=   0.0000E+00   yforce=   0.0000E+00  zforce=  -7.9950E+00   energy=   4.9969E-05   setid =     530 xmoment=   0.0000E+00 ymoment=   0.0000E+00 zmoment=   0.0000E+00
 nd#     531  xforce=   0.0000E+00   yforce=   0.0000E+00  zforce=  -1.0170E+01   energy=   6.3563E-05   setid =     531 xmoment=   0.0000E+00 ymoment=   0.0000E+00 zmoment=   0.0000E+00
 nd#     532  xforce=   0.0000E+00   yforce=   0.0000E+00  zforce=  -1.1163E+01   energy=   6.9767E-05   setid =     532 xmoment=   0.0000E+00 ymoment=   0.0000E+00 zmoment=   0.0000E+00
 nd#     533  xforce=   0.0000E+00   yforce=   0.0000E+00  zforce=  -9.0337E+00   energy=   5.6461E-05   setid =     533 xmoment=   0.0000E+00 ymoment=   0.0000E+00 zmoment=   0.0000E+00
 nd#     549  xforce=   0.0000E+00   yforce=   0.0000E+00  zforce=  -6.2098E+00   energy=   3.8811E-05   setid =     549 xmoment=   0.0000E+00 ymoment=   0.0000E+00 zmoment=   0.0000E+00
 nd#     610  xforce=   0.0000E+00   yforce=   0.0000E+00  zforce=  -1.2497E+01   energy=   7.8103E-05   setid =     610 xmoment=   0.0000E+00 ymoment=   0.0000E+00 zmoment=   0.0000E+00
 nd#     611  xforce=   0.0000E+00   yforce=   0.0000E+00  zforce=  -1.3964E+01   energy=   8.7272E-05   setid =     611 xmoment=   0.0000E+00 ymoment=   0.0000E+00 zmoment=   0.0000E+00
 nd#     612  xforce=   0.0000E+00   yforce=   0.0000E+00  zforce=  -2.2944E+01   energy=   1.4340E-04   setid =     612 xmoment=   0.0000E+00 ymoment=   0.0000E+00 zmoment=   0.0000E+00
 nd#     613  xforce=   0.0000E+00   yforce=   0.0000E+00  zforce=  -2.1987E+01   energy=   1.3742E-04   setid =     613 xmoment=   0.0000E+00 ymoment=   0.0000E+00 zmoment=   0.0000E+00
 nd#     629  xforce=   0.0000E+00   yforce=   0.0000E+00  zforce=  -1.1164E+01   energy=   6.9776E-05   setid =     629 xmoment=   0.0000E+00 ymoment=   0.0000E+00 zmoment=   0.0000E+00
 nd#     660  xforce=   0.0000E+00   yforce=   0.0000E+00  zforce=  -5.9232E+00   energy=   3.7020E-05   setid =     660 xmoment=   0.0000E+00 ymoment=   0.0000E+00 zmoment=   0.0000E+00
 nd#     661  xforce=   0.0000E+00   yforce=   0.0000E+00  zforce=  -6.3140E+00   energy=   3.9462E-05   setid =     661 xmoment=   0.0000E+00 ymoment=   0.0000E+00 zmoment=   0.0000E+00
 nd#     692  xforce=   0.0000E+00   yforce=   0.0000E+00  zforce=  -2.0709E+01   energy=   1.2943E-04   setid =     692 xmoment=   0.0000E+00 ymoment=   0.0000E+00 zmoment=   0.0000E+00
 nd#     693  xforce=   0.0000E+00   yforce=   0.0000E+00  zforce=  -2.0586E+01   energy=   1.2866E-04   setid =     693 xmoment=   0.0000E+00 ymoment=   0.0000E+00 zmoment=   0.0000E+00
 nd#     724  xforce=   0.0000E+00   yforce=   0.0000E+00  zforce=  -3.2659E+00   energy=   2.0412E-05   setid =     724 xmoment=   0.0000E+00 ymoment=   0.0000E+00 zmoment=   0.0000E+00
 nd#     725  xforce=   0.0000E+00   yforce=   0.0000E+00  zforce=  -5.8009E+00   energy=   3.6255E-05   setid =     725 xmoment=   0.0000E+00 ymoment=   0.0000E+00 zmoment=   0.0000E+00
 nd#     771  xforce=   0.0000E+00   yforce=   0.0000E+00  zforce=  -8.4302E+00   energy=   5.2689E-05   setid =     771 xmoment=   0.0000E+00 ymoment=   0.0000E+00 zmoment=   0.0000E+00
 nd#     772  xforce=   0.0000E+00   yforce=   0.0000E+00  zforce=  -6.4559E+00   energy=   4.0350E-05   setid =     772 xmoment=   0.0000E+00 ymoment=   0.0000E+00 zmoment=   0.0000E+00
 nd#     773  xforce=   0.0000E+00   yforce=   0.0000E+00  zforce=  -5.2830E+00   energy=   3.3019E-05   setid =     773 xmoment=   0.0000E+00 ymoment=   0.0000E+00 zmoment=   0.0000E+00
 nd#     804  xforce=   0.0000E+00   yforce=   0.0000E+00  zforce=  -7.1444E+00   energy=   4.4652E-05   setid =     804 xmoment=   0.0000E+00 ymoment=   0.0000E+00 zmoment=   0.0000E+00
 nd#     805  xforce=   0.0000E+00   yforce=   0.0000E+00  zforce=  -1.1530E+01   energy=   7.2063E-05   setid =     805 xmoment=   0.0000E+00 ymoment=   0.0000E+00 zmoment=   0.0000E+00
 nd#     821  xforce=   0.0000E+00   yforce=   0.0000E+00  zforce=  -4.7002E+00   energy=   2.9376E-05   setid =     821 xmoment=   0.0000E+00 ymoment=   0.0000E+00 zmoment=   0.0000E+00
 nd#     852  xforce=   0.0000E+00   yforce=   0.0000E+00  zforce=  -9.9825E+00   energy=   6.2391E-05   setid =     852 xmoment=   0.0000E+00 ymoment=   0.0000E+00 zmoment=   0.0000E+00
 nd#     853  xforce=   0.0000E+00   yforce=   0.0000E+00  zforce=  -1.0925E+01   energy=   6.8284E-05   setid =     853 xmoment=   0.0000E+00 ymoment=   0.0000E+00 zmoment=   0.0000E+00
 nd#     869  xforce=   0.0000E+00   yforce=   0.0000E+00  zforce=  -5.7271E+00   energy=   3.5794E-05   setid =     869 xmoment=   0.0000E+00 ymoment=   0.0000E+00 zmoment=   0.0000E+00
 nd#     885  xforce=   0.0000E+00   yforce=   0.0000E+00  zforce=  -5.5991E+00   energy=   3.4994E-05   setid =     885 xmoment=   0.0000E+00 ymoment=   0.0000E+00 zmoment=   0.0000E+00
 nd#    1082  xforce=   0.0000E+00   yforce=   0.0000E+00  zforce=  -7.3552E+00   energy=   4.5970E-05   setid =    1082 xmoment=   0.0000E+00 ymoment=   0.0000E+00 zmoment=   0.0000E+00
 nd#    1083  xforce=   0.0000E+00   yforce=   0.0000E+00  zforce=  -2.8215E+01   energy=   1.7635E-04   setid =    1083 xmoment=   0.0000E+00 ymoment=   0.0000E+00 zmoment=   0.0000E+00
 nd#    1084  xforce=   0.0000E+00   yforce=   0.0000E+00  zforce=  -2.5398E+01   energy=   1.5874E-04   setid =    1084 xmoment=   0.0000E+00 ymoment=   0.0000E+00 zmoment=   0.0000E+00
 nd#    1085  xforce=   0.0000E+00   yforce=   0.0000E+00  zforce=  -2.2158E+01   energy=   1.3849E-04   setid =    1085 xmoment=   0.0000E+00 ymoment=   0.0000E+00 zmoment=   0.0000E+00
 nd#    1086  xforce=   0.0000E+00   yforce=   0.0000E+00  zforce=  -1.9264E+01   energy=   1.2040E-04   setid =    1086 xmoment=   0.0000E+00 ymoment=   0.0000E+00 zmoment=   0.0000E+00
 nd#    1087  xforce=   0.0000E+00   yforce=   0.0000E+00  zforce=  -1.6274E+01   energy=   1.0171E-04   setid =    1087 xmoment=   0.0000E+00 ymoment=   0.0000E+00 zmoment=   0.0000E+00
 nd#    1649  xforce=   0.0000E+00   yforce=   0.0000E+00  zforce=  -3.2457E+01   energy=   2.0286E-04   setid =    1649 xmoment=   0.0000E+00 ymoment=   0.0000E+00 zmoment=   0.0000E+00
 nd#    1651  xforce=   0.0000E+00   yforce=   0.0000E+00  zforce=  -3.1943E+01   energy=   1.9965E-04   setid =    1651 xmoment=   0.0000E+00 ymoment=   0.0000E+00 zmoment=   0.0000E+00
 nd#    1653  xforce=   0.0000E+00   yforce=   0.0000E+00  zforce=  -3.1433E+01   energy=   1.9646E-04   setid =    1653 xmoment=   0.0000E+00 ymoment=   0.0000E+00 zmoment=   0.0000E+00
 nd#    1655  xforce=   0.0000E+00   yforce=   0.0000E+00  zforce=  -3.1412E+01   energy=   1.9633E-04   setid =    1655 xmoment=   0.0000E+00 ymoment=   0.0000E+00 zmoment=   0.0000E+00
 nd#    1657  xforce=   0.0000E+00   yforce=   0.0000E+00  zforce=  -3.1977E+01   energy=   1.9986E-04   setid =    1657 xmoment=   0.0000E+00 ymoment=   0.0000E+00 zmoment=   0.0000E+00
 nd#    1659  xforce=   0.0000E+00   yforce=   0.0000E+00  zforce=  -1.6364E+01   energy=   1.0228E-04   setid =    1659 xmoment=   0.0000E+00 ymoment=   0.0000E+00 zmoment=   0.0000E+00
 nd#    1733  xforce=   0.0000E+00   yforce=   0.0000E+00  zforce=  -5.0952E+01   energy=   3.1845E-04   setid =    1733 xmoment=   0.0000E+00 ymoment=   0.0000E+00 zmoment=   0.0000E+00
 nd#    1734  xforce=   0.0000E+00   yforce=   0.0000E+00  zforce=  -5.6919E+01   energy=   3.5574E-04   setid =    1734 xmoment=   0.0000E+00 ymoment=   0.0000E+00 zmoment=   0.0000E+00
 nd#    1735  xforce=   0.0000E+00   yforce=   0.0000E+00  zforce=  -5.1110E+01   energy=   3.1944E-04   setid =    1735 xmoment=   0.0000E+00 ymoment=   0.0000E+00 zmoment=   0.0000E+00
 nd#    1736  xforce=   0.0000E+00   yforce=   0.0000E+00  zforce=  -5.7745E+01   energy=   3.6091E-04   setid =    1736 xmoment=   0.0000E+00 ymoment=   0.0000E+00 zmoment=   0.0000E+00
 nd#    1737  xforce=   0.0000E+00   yforce=   0.0000E+00  zforce=  -5.1184E+01   energy=   3.1990E-04   setid =    1737 xmoment=   0.0000E+00 ymoment=   0.0000E+00 zmoment=   0.0000E+00
 nd#    1738  xforce=   0.0000E+00   yforce=   0.0000E+00  zforce=  -5.7976E+01   energy=   3.6235E-04   setid =    1738 xmoment=   0.0000E+00 ymoment=   0.0000E+00 zmoment=   0.0000E+00
 nd#    1739  xforce=   0.0000E+00   yforce=   0.0000E+00  zforce=  -5.1202E+01   energy=   3.2001E-04   setid =    1739 xmoment=   0.0000E+00 ymoment=   0.0000E+00 zmoment=   0.0000E+00
 nd#    1740  xforce=   0.0000E+00   yforce=   0.0000E+00  zforce=  -5.7244E+01   energy=   3.5778E-04   setid =    1740 xmoment=   0.0000E+00 ymoment=   0.0000E+00 zmoment=   0.0000E+00
 nd#    1741  xforce=   0.0000E+00   yforce=   0.0000E+00  zforce=  -5.1212E+01   energy=   3.2007E-04   setid =    1741 xmoment=   0.0000E+00 ymoment=   0.0000E+00 zmoment=   0.0000E+00
 nd#    1742  xforce=   0.0000E+00   yforce=   0.0000E+00  zforce=  -5.6134E+01   energy=   3.5084E-04   setid =    1742 xmoment=   0.0000E+00 ymoment=   0.0000E+00 zmoment=   0.0000E+00
 nd#    1743  xforce=   0.0000E+00   yforce=   0.0000E+00  zforce=  -2.5683E+01   energy=   1.6052E-04   setid =    1743 xmoment=   0.0000E+00 ymoment=   0.0000E+00 zmoment=   0.0000E+00
 nd#    1744  xforce=   0.0000E+00   yforce=   0.0000E+00  zforce=  -2.7859E+01   energy=   1.7412E-04   setid =    1744 xmoment=   0.0000E+00 ymoment=   0.0000E+00 zmoment=   0.0000E+00
 nd#    1751  xforce=   0.0000E+00   yforce=   0.0000E+00  zforce=  -3.8528E+01   energy=   2.4080E-04   setid =    1751 xmoment=   0.0000E+00 ymoment=   0.0000E+00 zmoment=   0.0000E+00
 nd#    1752  xforce=   0.0000E+00   yforce=   0.0000E+00  zforce=  -4.4382E+01   energy=   2.7739E-04   setid =    1752 xmoment=   0.0000E+00 ymoment=   0.0000E+00 zmoment=   0.0000E+00
 nd#    1753  xforce=   0.0000E+00   yforce=   0.0000E+00  zforce=  -3.8248E+01   energy=   2.3905E-04   setid =    1753 xmoment=   0.0000E+00 ymoment=   0.0000E+00 zmoment=   0.0000E+00
 nd#    1754  xforce=   0.0000E+00   yforce=   0.0000E+00  zforce=  -4.4287E+01   energy=   2.7679E-04   setid =    1754 xmoment=   0.0000E+00 ymoment=   0.0000E+00 zmoment=   0.0000E+00
 nd#    1755  xforce=   0.0000E+00   yforce=   0.0000E+00  zforce=  -3.7877E+01   energy=   2.3673E-04   setid =    1755 xmoment=   0.0000E+00 ymoment=   0.0000E+00 zmoment=   0.0000E+00
 nd#    1756  xforce=   0.0000E+00   yforce=   0.0000E+00  zforce=  -4.4116E+01   energy=   2.7572E-04   setid =    1756 xmoment=   0.0000E+00 ymoment=   0.0000E+00 zmoment=   0.0000E+00
 nd#    1757  xforce=   0.0000E+00   yforce=   0.0000E+00  zforce=  -3.7708E+01   energy=   2.3568E-04   setid =    1757 xmoment=   0.0000E+00 ymoment=   0.0000E+00 zmoment=   0.0000E+00
 nd#    1758  xforce=   0.0000E+00   yforce=   0.0000E+00  zforce=  -4.4047E+01   energy=   2.7529E-04   setid =    1758 xmoment=   0.0000E+00 ymoment=   0.0000E+00 zmoment=   0.0000E+00
 nd#    1759  xforce=   0.0000E+00   yforce=   0.0000E+00  zforce=  -3.7933E+01   energy=   2.3708E-04   setid =    1759 xmoment=   0.0000E+00 ymoment=   0.0000E+00 zmoment=   0.0000E+00
 nd#    1760  xforce=   0.0000E+00   yforce=   0.0000E+00  zforce=  -4.4171E+01   energy=   2.7607E-04   setid =    1760 xmoment=   0.0000E+00 ymoment=   0.0000E+00 zmoment=   0.0000E+00
 nd#    1761  xforce=   0.0000E+00   yforce=   0.0000E+00  zforce=  -1.9208E+01   energy=   1.2005E-04   setid =    1761 xmoment=   0.0000E+00 ymoment=   0.0000E+00 zmoment=   0.0000E+00
 nd#    1762  xforce=   0.0000E+00   yforce=   0.0000E+00  zforce=  -2.2245E+01   energy=   1.3903E-04   setid =    1762 xmoment=   0.0000E+00 ymoment=   0.0000E+00 zmoment=   0.0000E+00
 nd#    1769  xforce=   0.0000E+00   yforce=   0.0000E+00  zforce=  -1.4456E+01   energy=   9.0347E-05   setid =    1769 xmoment=   0.0000E+00 ymoment=   0.0000E+00 zmoment=   0.0000E+00
 nd#    1770  xforce=   0.0000E+00   yforce=   0.0000E+00  zforce=  -1.3754E+01   energy=   8.5960E-05   setid =    1770 xmoment=   0.0000E+00 ymoment=   0.0000E+00 zmoment=   0.0000E+00
 nd#    1771  xforce=   0.0000E+00   yforce=   0.0000E+00  zforce=  -1.3010E+01   energy=   8.1310E-05   setid =    1771 xmoment=   0.0000E+00 ymoment=   0.0000E+00 zmoment=   0.0000E+00
 nd#    1772  xforce=   0.0000E+00   yforce=   0.0000E+00  zforce=  -1.2565E+01   energy=   7.8529E-05   setid =    1772 xmoment=   0.0000E+00 ymoment=   0.0000E+00 zmoment=   0.0000E+00
 nd#    1773  xforce=   0.0000E+00   yforce=   0.0000E+00  zforce=  -1.2397E+01   energy=   7.7481E-05   setid =    1773 xmoment=   0.0000E+00 ymoment=   0.0000E+00 zmoment=   0.0000E+00
 nd#    1774  xforce=   0.0000E+00   yforce=   0.0000E+00  zforce=  -6.1893E+00   energy=   3.8683E-05   setid =    1774 xmoment=   0.0000E+00 ymoment=   0.0000E+00 zmoment=   0.0000E+00
              xtotal=   0.0000E+00   ytotal=   0.0000E+00  ztotal=  -1.7969E+03   etotal=   1.1230E-02

 n o d a l   f o r c e/e n e r g y    o u t p u t  t=   6.46223E+00

 velocity boundary condition forces/rigid body moments 

 nd#     354  xforce=   0.0000E+00   yforce=   0.0000E+00  zforce=  -3.6526E+01   energy=   5.9164E-04   setid =     354 xmoment=   0.0000E+00 ymoment=   0.0000E+00 zmoment=   0.0000E+00
 nd#     355  xforce=   0.0000E+00   yforce=   0.0000E+00  zforce=  -5.2666E+01   energy=   8.6329E-04   setid =     355 xmoment=   0.0000E+00 ymoment=   0.0000E+00 zmoment=   0.0000E+00
 nd#     356  xforce=   0.0000E+00   yforce=   0.0000E+00  zforce=  -2.7841E+01   energy=   4.5247E-04   setid =     356 xmoment=   0.0000E+00 ymoment=   0.0000E+00 zmoment=   0.0000E+00
 nd#     357  xforce=   0.0000E+00   yforce=   0.0000E+00  zforce=  -2.0581E+01   energy=   3.2776E-04   setid =     357 xmoment=   0.0000E+00 ymoment=   0.0000E+00 zmoment=   0.0000E+00
 nd#     403  xforce=   0.0000E+00   yforce=   0.0000E+00  zforce=  -2.2703E+01   energy=   3.7581E-04   setid =     403 xmoment=   0.0000E+00 ymoment=   0.0000E+00 zmoment=   0.0000E+00
 nd#     404  xforce=   0.0000E+00   yforce=   0.0000E+00  zforce=  -3.1223E+01   energy=   5.1022E-04   setid =     404 xmoment=   0.0000E+00 ymoment=   0.0000E+00 zmoment=   0.0000E+00
 nd#     405  xforce=   0.0000E+00   yforce=   0.0000E+00  zforce=  -2.9272E+01   energy=   4.7516E-04   setid =     405 xmoment=   0.0000E+00 ymoment=   0.0000E+00 zmoment=   0.0000E+00
 nd#     466  xforce=   0.0000E+00   yforce=   0.0000E+00  zforce=  -1.2653E+01   energy=   2.0522E-04   setid =     466 xmoment=   0.0000E+00 ymoment=   0.0000E+00 zmoment=   0.0000E+00
 nd#     467  xforce=   0.0000E+00   yforce=   0.0000E+00  zforce=  -1.6210E+01   energy=   2.7898E-04   setid =     467 xmoment=   0.0000E+00 ymoment=   0.0000E+00 zmoment=   0.0000E+00
 nd#     468  xforce=   0.0000E+00   yforce=   0.0000E+00  zforce=  -2.2595E+01   energy=   3.7561E-04   setid =     468 xmoment=   0.0000E+00 ymoment=   0.0000E+00 zmoment=   0.0000E+00
 nd#     469  xforce=   0.0000E+00   yforce=   0.0000E+00  zforce=  -1.9215E+01   energy=   3.1782E-04   setid =     469 xmoment=   0.0000E+00 ymoment=   0.0000E+00 zmoment=   0.0000E+00
 nd#     530  xforce=   0.0000E+00   yforce=   0.0000E+00  zforce=  -1.8452E+01   energy=   3.1194E-04   setid =     530 xmoment=   0.0000E+00 ymoment=   0.0000E+00 zmoment=   0.0000E+00
 nd#     531  xforce=   0.0000E+00   yforce=   0.0000E+00  zforce=  -2.5489E+01   energy=   4.1678E-04   setid =     531 xmoment=   0.0000E+00 ymoment=   0.0000E+00 zmoment=   0.0000E+00
 nd#     532  xforce=   0.0000E+00   yforce=   0.0000E+00  zforce=  -2.9417E+01   energy=   4.7174E-04   setid =     532 xmoment=   0.0000E+00 ymoment=   0.0000E+00 zmoment=   0.0000E+00
 nd#     533  xforce=   0.0000E+00   yforce=   0.0000E+00  zforce=  -2.2953E+01   energy=   3.7331E-04   setid =     533 xmoment=   0.0000E+00 ymoment=   0.0000E+00 zmoment=   0.0000E+00
 nd#     549  xforce=   0.0000E+00   yforce=   0.0000E+00  zforce=  -1.3263E+01   energy=   2.3170E-04   setid =     549 xmoment=   0.0000E+00 ymoment=   0.0000E+00 zmoment=   0.0000E+00
 nd#     610  xforce=   0.0000E+00   yforce=   0.0000E+00  zforce=  -3.0999E+01   energy=   5.0895E-04   setid =     610 xmoment=   0.0000E+00 ymoment=   0.0000E+00 zmoment=   0.0000E+00
 nd#     611  xforce=   0.0000E+00   yforce=   0.0000E+00  zforce=  -3.6080E+01   energy=   5.8299E-04   setid =     611 xmoment=   0.0000E+00 ymoment=   0.0000E+00 zmoment=   0.0000E+00
 nd#     612  xforce=   0.0000E+00   yforce=   0.0000E+00  zforce=  -6.0419E+01   energy=   9.6916E-04   setid =     612 xmoment=   0.0000E+00 ymoment=   0.0000E+00 zmoment=   0.0000E+00
 nd#     613  xforce=   0.0000E+00   yforce=   0.0000E+00  zforce=  -5.6478E+01   energy=   9.1466E-04   setid =     613 xmoment=   0.0000E+00 ymoment=   0.0000E+00 zmoment=   0.0000E+00
 nd#     629  xforce=   0.0000E+00   yforce=   0.0000E+00  zforce=  -2.7875E+01   energy=   4.5648E-04   setid =     629 xmoment=   0.0000E+00 ymoment=   0.0000E+00 zmoment=   0.0000E+00
 nd#     660  xforce=   0.0000E+00   yforce=   0.0000E+00  zforce=  -1.6379E+01   energy=   2.5793E-04   setid =     660 xmoment=   0.0000E+00 ymoment=   0.0000E+00 zmoment=   0.0000E+00
 nd#     661  xforce=   0.0000E+00   yforce=   0.0000E+00  zforce=  -1.8040E+01   energy=   2.8070E-04   setid =     661 xmoment=   0.0000E+00 ymoment=   0.0000E+00 zmoment=   0.0000E+00
 nd#     692  xforce=   0.0000E+00   yforce=   0.0000E+00  zforce=  -5.2890E+01   energy=   8.5848E-04   setid =     692 xmoment=   0.0000E+00 ymoment=   0.0000E+00 zmoment=   0.0000E+00
 nd#     693  xforce=   0.0000E+00   yforce=   0.0000E+00  zforce=  -5.1670E+01   energy=   8.4441E-04   setid =     693 xmoment=   0.0000E+00 ymoment=   0.0000E+00 zmoment=   0.0000E+00
 nd#     724  xforce=   0.0000E+00   yforce=   0.0000E+00  zforce=  -9.7967E+00   energy=   1.4980E-04   setid =     724 xmoment=   0.0000E+00 ymoment=   0.0000E+00 zmoment=   0.0000E+00
 nd#     725  xforce=   0.0000E+00   yforce=   0.0000E+00  zforce=  -1.6185E+01   energy=   2.5404E-04   setid =     725 xmoment=   0.0000E+00 ymoment=   0.0000E+00 zmoment=   0.0000E+00
 nd#     771  xforce=   0.0000E+00   yforce=   0.0000E+00  zforce=  -2.0042E+01   energy=   3.3472E-04   setid =     771 xmoment=   0.0000E+00 ymoment=   0.0000E+00 zmoment=   0.0000E+00
 nd#     772  xforce=   0.0000E+00   yforce=   0.0000E+00  zforce=  -1.7508E+01   energy=   2.7773E-04   setid =     772 xmoment=   0.0000E+00 ymoment=   0.0000E+00 zmoment=   0.0000E+00
 nd#     773  xforce=   0.0000E+00   yforce=   0.0000E+00  zforce=  -1.4465E+01   energy=   2.2863E-04   setid =     773 xmoment=   0.0000E+00 ymoment=   0.0000E+00 zmoment=   0.0000E+00
 nd#     804  xforce=   0.0000E+00   yforce=   0.0000E+00  zforce=  -1.9061E+01   energy=   3.0423E-04   setid =     804 xmoment=   0.0000E+00 ymoment=   0.0000E+00 zmoment=   0.0000E+00
 nd#     805  xforce=   0.0000E+00   yforce=   0.0000E+00  zforce=  -3.0953E+01   energy=   4.9288E-04   setid =     805 xmoment=   0.0000E+00 ymoment=   0.0000E+00 zmoment=   0.0000E+00
 nd#     821  xforce=   0.0000E+00   yforce=   0.0000E+00  zforce=  -1.2756E+01   energy=   2.0229E-04   setid =     821 xmoment=   0.0000E+00 ymoment=   0.0000E+00 zmoment=   0.0000E+00
 nd#     852  xforce=   0.0000E+00   yforce=   0.0000E+00  zforce=  -2.5654E+01   energy=   4.1539E-04   setid =     852 xmoment=   0.0000E+00 ymoment=   0.0000E+00 zmoment=   0.0000E+00
 nd#     853  xforce=   0.0000E+00   yforce=   0.0000E+00  zforce=  -2.8033E+01   energy=   4.5418E-04   setid =     853 xmoment=   0.0000E+00 ymoment=   0.0000E+00 zmoment=   0.0000E+00
 nd#     869  xforce=   0.0000E+00   yforce=   0.0000E+00  zforce=  -1.5414E+01   energy=   2.4521E-04   setid =     869 xmoment=   0.0000E+00 ymoment=   0.0000E+00 zmoment=   0.0000E+00
 nd#     885  xforce=   0.0000E+00   yforce=   0.0000E+00  zforce=  -1.5929E+01   energy=   2.4824E-04   setid =     885 xmoment=   0.0000E+00 ymoment=   0.0000E+00 zmoment=   0.0000E+00
 nd#    1082  xforce=   0.0000E+00   yforce=   0.0000E+00  zforce=  -1.6801E+01   energy=   2.8525E-04   setid =    1082 xmoment=   0.0000E+00 ymoment=   0.0000E+00 zmoment=   0.0000E+00
 nd#    1083  xforce=   0.0000E+00   yforce=   0.0000E+00  zforce=  -7.0546E+01   energy=   1.1546E-03   setid =    1083 xmoment=   0.0000E+00 ymoment=   0.0000E+00 zmoment=   0.0000E+00
 nd#    1084  xforce=   0.0000E+00   yforce=   0.0000E+00  zforce=  -6.4546E+01   energy=   1.0497E-03   setid =    1084 xmoment=   0.0000E+00 ymoment=   0.0000E+00 zmoment=   0.0000E+00
 nd#    1085  xforce=   0.0000E+00   yforce=   0.0000E+00  zforce=  -5.6983E+01   energy=   9.2243E-04   setid =    1085 xmoment=   0.0000E+00 ymoment=   0.0000E+00 zmoment=   0.0000E+00
 nd#    1086  xforce=   0.0000E+00   yforce=   0.0000E+00  zforce=  -4.9994E+01   energy=   8.0644E-04   setid =    1086 xmoment=   0.0000E+00 ymoment=   0.0000E+00 zmoment=   0.0000E+00
 nd#    1087  xforce=   0.0000E+00   yforce=   0.0000E+00  zforce=  -4.2605E+01   energy=   6.8493E-04   setid =    1087 xmoment=   0.0000E+00 ymoment=   0.0000E+00 zmoment=   0.0000E+00
 nd#    1649  xforce=   0.0000E+00   yforce=   0.0000E+00  zforce=  -8.3818E+01   energy=   1.3546E-03   setid =    1649 xmoment=   0.0000E+00 ymoment=   0.0000E+00 zmoment=   0.0000E+00
 nd#    1651  xforce=   0.0000E+00   yforce=   0.0000E+00  zforce=  -8.1025E+01   energy=   1.3187E-03   setid =    1651 xmoment=   0.0000E+00 ymoment=   0.0000E+00 zmoment=   0.0000E+00
 nd#    1653  xforce=   0.0000E+00   yforce=   0.0000E+00  zforce=  -7.9822E+01   energy=   1.2985E-03   setid =    1653 xmoment=   0.0000E+00 ymoment=   0.0000E+00 zmoment=   0.0000E+00
 nd#    1655  xforce=   0.0000E+00   yforce=   0.0000E+00  zforce=  -7.9839E+01   energy=   1.2983E-03   setid =    1655 xmoment=   0.0000E+00 ymoment=   0.0000E+00 zmoment=   0.0000E+00
 nd#    1657  xforce=   0.0000E+00   yforce=   0.0000E+00  zforce=  -8.1522E+01   energy=   1.3241E-03   setid =    1657 xmoment=   0.0000E+00 ymoment=   0.0000E+00 zmoment=   0.0000E+00
 nd#    1659  xforce=   0.0000E+00   yforce=   0.0000E+00  zforce=  -4.2314E+01   energy=   6.8352E-04   setid =    1659 xmoment=   0.0000E+00 ymoment=   0.0000E+00 zmoment=   0.0000E+00
 nd#    1733  xforce=   0.0000E+00   yforce=   0.0000E+00  zforce=  -1.2920E+02   energy=   2.1029E-03   setid =    1733 xmoment=   0.0000E+00 ymoment=   0.0000E+00 zmoment=   0.0000E+00
 nd#    1734  xforce=   0.0000E+00   yforce=   0.0000E+00  zforce=  -1.4258E+02   energy=   2.3319E-03   setid =    1734 xmoment=   0.0000E+00 ymoment=   0.0000E+00 zmoment=   0.0000E+00
 nd#    1735  xforce=   0.0000E+00   yforce=   0.0000E+00  zforce=  -1.2924E+02   energy=   2.1060E-03   setid =    1735 xmoment=   0.0000E+00 ymoment=   0.0000E+00 zmoment=   0.0000E+00
 nd#    1736  xforce=   0.0000E+00   yforce=   0.0000E+00  zforce=  -1.4566E+02   energy=   2.3758E-03   setid =    1736 xmoment=   0.0000E+00 ymoment=   0.0000E+00 zmoment=   0.0000E+00
 nd#    1737  xforce=   0.0000E+00   yforce=   0.0000E+00  zforce=  -1.2990E+02   energy=   2.1137E-03   setid =    1737 xmoment=   0.0000E+00 ymoment=   0.0000E+00 zmoment=   0.0000E+00
 nd#    1738  xforce=   0.0000E+00   yforce=   0.0000E+00  zforce=  -1.4770E+02   energy=   2.3997E-03   setid =    1738 xmoment=   0.0000E+00 ymoment=   0.0000E+00 zmoment=   0.0000E+00
 nd#    1739  xforce=   0.0000E+00   yforce=   0.0000E+00  zforce=  -1.3059E+02   energy=   2.1208E-03   setid =    1739 xmoment=   0.0000E+00 ymoment=   0.0000E+00 zmoment=   0.0000E+00
 nd#    1740  xforce=   0.0000E+00   yforce=   0.0000E+00  zforce=  -1.4590E+02   energy=   2.3700E-03   setid =    1740 xmoment=   0.0000E+00 ymoment=   0.0000E+00 zmoment=   0.0000E+00
 nd#    1741  xforce=   0.0000E+00   yforce=   0.0000E+00  zforce=  -1.3066E+02   energy=   2.1216E-03   setid =    1741 xmoment=   0.0000E+00 ymoment=   0.0000E+00 zmoment=   0.0000E+00
 nd#    1742  xforce=   0.0000E+00   yforce=   0.0000E+00  zforce=  -1.4137E+02   energy=   2.3072E-03   setid =    1742 xmoment=   0.0000E+00 ymoment=   0.0000E+00 zmoment=   0.0000E+00
 nd#    1743  xforce=   0.0000E+00   yforce=   0.0000E+00  zforce=  -6.5651E+01   energy=   1.0652E-03   setid =    1743 xmoment=   0.0000E+00 ymoment=   0.0000E+00 zmoment=   0.0000E+00
 nd#    1744  xforce=   0.0000E+00   yforce=   0.0000E+00  zforce=  -6.9685E+01   energy=   1.1404E-03   setid =    1744 xmoment=   0.0000E+00 ymoment=   0.0000E+00 zmoment=   0.0000E+00
 nd#    1751  xforce=   0.0000E+00   yforce=   0.0000E+00  zforce=  -9.9115E+01   energy=   1.6042E-03   setid =    1751 xmoment=   0.0000E+00 ymoment=   0.0000E+00 zmoment=   0.0000E+00
 nd#    1752  xforce=   0.0000E+00   yforce=   0.0000E+00  zforce=  -1.1353E+02   energy=   1.8416E-03   setid =    1752 xmoment=   0.0000E+00 ymoment=   0.0000E+00 zmoment=   0.0000E+00
 nd#    1753  xforce=   0.0000E+00   yforce=   0.0000E+00  zforce=  -9.7268E+01   energy=   1.5814E-03   setid =    1753 xmoment=   0.0000E+00 ymoment=   0.0000E+00 zmoment=   0.0000E+00
 nd#    1754  xforce=   0.0000E+00   yforce=   0.0000E+00  zforce=  -1.1248E+02   energy=   1.8296E-03   setid =    1754 xmoment=   0.0000E+00 ymoment=   0.0000E+00 zmoment=   0.0000E+00
 nd#    1755  xforce=   0.0000E+00   yforce=   0.0000E+00  zforce=  -9.6419E+01   energy=   1.5670E-03   setid =    1755 xmoment=   0.0000E+00 ymoment=   0.0000E+00 zmoment=   0.0000E+00
 nd#    1756  xforce=   0.0000E+00   yforce=   0.0000E+00  zforce=  -1.1225E+02   energy=   1.8246E-03   setid =    1756 xmoment=   0.0000E+00 ymoment=   0.0000E+00 zmoment=   0.0000E+00
 nd#    1757  xforce=   0.0000E+00   yforce=   0.0000E+00  zforce=  -9.5998E+01   energy=   1.5601E-03   setid =    1757 xmoment=   0.0000E+00 ymoment=   0.0000E+00 zmoment=   0.0000E+00
 nd#    1758  xforce=   0.0000E+00   yforce=   0.0000E+00  zforce=  -1.1233E+02   energy=   1.8243E-03   setid =    1758 xmoment=   0.0000E+00 ymoment=   0.0000E+00 zmoment=   0.0000E+00
 nd#    1759  xforce=   0.0000E+00   yforce=   0.0000E+00  zforce=  -9.6549E+01   energy=   1.5692E-03   setid =    1759 xmoment=   0.0000E+00 ymoment=   0.0000E+00 zmoment=   0.0000E+00
 nd#    1760  xforce=   0.0000E+00   yforce=   0.0000E+00  zforce=  -1.1265E+02   energy=   1.8295E-03   setid =    1760 xmoment=   0.0000E+00 ymoment=   0.0000E+00 zmoment=   0.0000E+00
 nd#    1761  xforce=   0.0000E+00   yforce=   0.0000E+00  zforce=  -4.9298E+01   energy=   7.9864E-04   setid =    1761 xmoment=   0.0000E+00 ymoment=   0.0000E+00 zmoment=   0.0000E+00
 nd#    1762  xforce=   0.0000E+00   yforce=   0.0000E+00  zforce=  -5.7011E+01   energy=   9.2410E-04   setid =    1762 xmoment=   0.0000E+00 ymoment=   0.0000E+00 zmoment=   0.0000E+00
 nd#    1769  xforce=   0.0000E+00   yforce=   0.0000E+00  zforce=  -3.2368E+01   energy=   5.5416E-04   setid =    1769 xmoment=   0.0000E+00 ymoment=   0.0000E+00 zmoment=   0.0000E+00
 nd#    1770  xforce=   0.0000E+00   yforce=   0.0000E+00  zforce=  -2.9312E+01   energy=   5.1255E-04   setid =    1770 xmoment=   0.0000E+00 ymoment=   0.0000E+00 zmoment=   0.0000E+00
 nd#    1771  xforce=   0.0000E+00   yforce=   0.0000E+00  zforce=  -2.6303E+01   energy=   4.7073E-04   setid =    1771 xmoment=   0.0000E+00 ymoment=   0.0000E+00 zmoment=   0.0000E+00
 nd#    1772  xforce=   0.0000E+00   yforce=   0.0000E+00  zforce=  -2.4234E+01   energy=   4.4305E-04   setid =    1772 xmoment=   0.0000E+00 ymoment=   0.0000E+00 zmoment=   0.0000E+00
 nd#    1773  xforce=   0.0000E+00   yforce=   0.0000E+00  zforce=  -2.2712E+01   energy=   4.2526E-04   setid =    1773 xmoment=   0.0000E+00 ymoment=   0.0000E+00 zmoment=   0.0000E+00
 nd#    1774  xforce=   0.0000E+00   yforce=   0.0000E+00  zforce=  -1.1033E+01   energy=   2.0928E-04   setid =    1774 xmoment=   0.0000E+00 ymoment=   0.0000E+00 zmoment=   0.0000E+00
              xtotal=   0.0000E+00   ytotal=   0.0000E+00  ztotal=  -4.5365E+03   etotal=   7.3966E-02

 n o d a l   f o r c e/e n e r g y    o u t p u t  t=   9.37702E+00

 velocity boundary condition forces/rigid body moments 

 nd#     354  xforce=   0.0000E+00   yforce=   0.0000E+00  zforce=  -4.3451E+01   energy=   1.1744E-03   setid =     354 xmoment=   0.0000E+00 ymoment=   0.0000E+00 zmoment=   0.0000E+00
 nd#     355  xforce=   0.0000E+00   yforce=   0.0000E+00  zforce=  -5.0067E+01   energy=   1.6119E-03   setid =     355 xmoment=   0.0000E+00 ymoment=   0.0000E+00 zmoment=   0.0000E+00
 nd#     356  xforce=   0.0000E+00   yforce=   0.0000E+00  zforce=  -3.2694E+01   energy=   8.9359E-04   setid =     356 xmoment=   0.0000E+00 ymoment=   0.0000E+00 zmoment=   0.0000E+00
 nd#     357  xforce=   0.0000E+00   yforce=   0.0000E+00  zforce=  -4.2964E+01   energy=   7.9081E-04   setid =     357 xmoment=   0.0000E+00 ymoment=   0.0000E+00 zmoment=   0.0000E+00
 nd#     403  xforce=   0.0000E+00   yforce=   0.0000E+00  zforce=  -1.1293E+01   energy=   6.2354E-04   setid =     403 xmoment=   0.0000E+00 ymoment=   0.0000E+00 zmoment=   0.0000E+00
 nd#     404  xforce=   0.0000E+00   yforce=   0.0000E+00  zforce=  -4.5160E+01   energy=   1.0668E-03   setid =     404 xmoment=   0.0000E+00 ymoment=   0.0000E+00 zmoment=   0.0000E+00
 nd#     405  xforce=   0.0000E+00   yforce=   0.0000E+00  zforce=  -1.6944E+01   energy=   8.1194E-04   setid =     405 xmoment=   0.0000E+00 ymoment=   0.0000E+00 zmoment=   0.0000E+00
 nd#     466  xforce=   0.0000E+00   yforce=   0.0000E+00  zforce=  -2.2386E+01   energy=   4.6054E-04   setid =     466 xmoment=   0.0000E+00 ymoment=   0.0000E+00 zmoment=   0.0000E+00
 nd#     467  xforce=   0.0000E+00   yforce=   0.0000E+00  zforce=   5.8712E-02   energy=   3.9667E-04   setid =     467 xmoment=   0.0000E+00 ymoment=   0.0000E+00 zmoment=   0.0000E+00
 nd#     468  xforce=   0.0000E+00   yforce=   0.0000E+00  zforce=  -4.0498E+01   energy=   8.3537E-04   setid =     468 xmoment=   0.0000E+00 ymoment=   0.0000E+00 zmoment=   0.0000E+00
 nd#     469  xforce=   0.0000E+00   yforce=   0.0000E+00  zforce=  -2.3550E+01   energy=   6.2945E-04   setid =     469 xmoment=   0.0000E+00 ymoment=   0.0000E+00 zmoment=   0.0000E+00
 nd#     530  xforce=   0.0000E+00   yforce=   0.0000E+00  zforce=  -9.4013E+00   energy=   5.1491E-04   setid =     530 xmoment=   0.0000E+00 ymoment=   0.0000E+00 zmoment=   0.0000E+00
 nd#     531  xforce=   0.0000E+00   yforce=   0.0000E+00  zforce=  -3.0677E+01   energy=   8.2606E-04   setid =     531 xmoment=   0.0000E+00 ymoment=   0.0000E+00 zmoment=   0.0000E+00
 nd#     532  xforce=   0.0000E+00   yforce=   0.0000E+00  zforce=   3.0902E+01   energy=   4.6091E-04   setid =     532 xmoment=   0.0000E+00 ymoment=   0.0000E+00 zmoment=   0.0000E+00
 nd#     533  xforce=   0.0000E+00   yforce=   0.0000E+00  zforce=   4.6361E+01   energy=   2.0273E-04   setid =     533 xmoment=   0.0000E+00 ymoment=   0.0000E+00 zmoment=   0.0000E+00
 nd#     549  xforce=   0.0000E+00   yforce=   0.0000E+00  zforce=   2.1041E+00   energy=   3.1301E-04   setid =     549 xmoment=   0.0000E+00 ymoment=   0.0000E+00 zmoment=   0.0000E+00
 nd#     610  xforce=   0.0000E+00   yforce=   0.0000E+00  zforce=  -6.7481E+01   energy=   1.2266E-03   setid =     610 xmoment=   0.0000E+00 ymoment=   0.0000E+00 zmoment=   0.0000E+00
 nd#     611  xforce=   0.0000E+00   yforce=   0.0000E+00  zforce=  -2.8026E+01   energy=   1.0501E-03   setid =     611 xmoment=   0.0000E+00 ymoment=   0.0000E+00 zmoment=   0.0000E+00
 nd#     612  xforce=   0.0000E+00   yforce=   0.0000E+00  zforce=  -6.5178E+01   energy=   1.8844E-03   setid =     612 xmoment=   0.0000E+00 ymoment=   0.0000E+00 zmoment=   0.0000E+00
 nd#     613  xforce=   0.0000E+00   yforce=   0.0000E+00  zforce=  -9.7336E+01   energy=   2.0355E-03   setid =     613 xmoment=   0.0000E+00 ymoment=   0.0000E+00 zmoment=   0.0000E+00
 nd#     629  xforce=   0.0000E+00   yforce=   0.0000E+00  zforce=  -4.4527E+01   energy=   9.8408E-04   setid =     629 xmoment=   0.0000E+00 ymoment=   0.0000E+00 zmoment=   0.0000E+00
 nd#     660  xforce=   0.0000E+00   yforce=   0.0000E+00  zforce=  -5.1542E+01   energy=   7.5287E-04   setid =     660 xmoment=   0.0000E+00 ymoment=   0.0000E+00 zmoment=   0.0000E+00
 nd#     661  xforce=   0.0000E+00   yforce=   0.0000E+00  zforce=  -1.4722E+01   energy=   5.1943E-04   setid =     661 xmoment=   0.0000E+00 ymoment=   0.0000E+00 zmoment=   0.0000E+00
 nd#     692  xforce=   0.0000E+00   yforce=   0.0000E+00  zforce=  -7.6692E+01   energy=   1.8027E-03   setid =     692 xmoment=   0.0000E+00 ymoment=   0.0000E+00 zmoment=   0.0000E+00
 nd#     693  xforce=   0.0000E+00   yforce=   0.0000E+00  zforce=  -7.0692E+01   energy=   1.7361E-03   setid =     693 xmoment=   0.0000E+00 ymoment=   0.0000E+00 zmoment=   0.0000E+00
 nd#     724  xforce=   0.0000E+00   yforce=   0.0000E+00  zforce=  -6.7393E+01   energy=   7.1228E-04   setid =     724 xmoment=   0.0000E+00 ymoment=   0.0000E+00 zmoment=   0.0000E+00
 nd#     725  xforce=   0.0000E+00   yforce=   0.0000E+00  zforce=  -1.1139E+02   energy=   1.1836E-03   setid =     725 xmoment=   0.0000E+00 ymoment=   0.0000E+00 zmoment=   0.0000E+00
 nd#     771  xforce=   0.0000E+00   yforce=   0.0000E+00  zforce=  -1.1701E+01   energy=   5.6602E-04   setid =     771 xmoment=   0.0000E+00 ymoment=   0.0000E+00 zmoment=   0.0000E+00
 nd#     772  xforce=   0.0000E+00   yforce=   0.0000E+00  zforce=  -3.9047E+01   energy=   6.8984E-04   setid =     772 xmoment=   0.0000E+00 ymoment=   0.0000E+00 zmoment=   0.0000E+00
 nd#     773  xforce=   0.0000E+00   yforce=   0.0000E+00  zforce=  -4.7273E+01   energy=   6.7852E-04   setid =     773 xmoment=   0.0000E+00 ymoment=   0.0000E+00 zmoment=   0.0000E+00
 nd#     804  xforce=   0.0000E+00   yforce=   0.0000E+00  zforce=  -7.3828E+01   energy=   9.8111E-04   setid =     804 xmoment=   0.0000E+00 ymoment=   0.0000E+00 zmoment=   0.0000E+00
 nd#     805  xforce=   0.0000E+00   yforce=   0.0000E+00  zforce=  -8.0547E+01   energy=   1.3054E-03   setid =     805 xmoment=   0.0000E+00 ymoment=   0.0000E+00 zmoment=   0.0000E+00
 nd#     821  xforce=   0.0000E+00   yforce=   0.0000E+00  zforce=  -1.0389E+02   energy=   1.0523E-03   setid =     821 xmoment=   0.0000E+00 ymoment=   0.0000E+00 zmoment=   0.0000E+00
 nd#     852  xforce=   0.0000E+00   yforce=   0.0000E+00  zforce=   9.2352E+01   energy=  -7.0643E-05   setid =     852 xmoment=   0.0000E+00 ymoment=   0.0000E+00 zmoment=   0.0000E+00
 nd#     853  xforce=   0.0000E+00   yforce=   0.0000E+00  zforce=   1.6844E+01   energy=   5.3572E-04   setid =     853 xmoment=   0.0000E+00 ymoment=   0.0000E+00 zmoment=   0.0000E+00
 nd#     869  xforce=   0.0000E+00   yforce=   0.0000E+00  zforce=  -7.0801E+01   energy=   8.7346E-04   setid =     869 xmoment=   0.0000E+00 ymoment=   0.0000E+00 zmoment=   0.0000E+00
 nd#     885  xforce=   0.0000E+00   yforce=   0.0000E+00  zforce=  -5.9009E+01   energy=   7.9431E-04   setid =     885 xmoment=   0.0000E+00 ymoment=   0.0000E+00 zmoment=   0.0000E+00
 nd#    1082  xforce=   0.0000E+00   yforce=   0.0000E+00  zforce=   1.0694E+01   energy=   3.2975E-04   setid =    1082 xmoment=   0.0000E+00 ymoment=   0.0000E+00 zmoment=   0.0000E+00
 nd#    1083  xforce=   0.0000E+00   yforce=   0.0000E+00  zforce=  -4.1946E+01   energy=   1.9744E-03   setid =    1083 xmoment=   0.0000E+00 ymoment=   0.0000E+00 zmoment=   0.0000E+00
 nd#    1084  xforce=   0.0000E+00   yforce=   0.0000E+00  zforce=  -5.6724E+01   energy=   1.9334E-03   setid =    1084 xmoment=   0.0000E+00 ymoment=   0.0000E+00 zmoment=   0.0000E+00
 nd#    1085  xforce=   0.0000E+00   yforce=   0.0000E+00  zforce=  -6.6372E+01   energy=   1.8213E-03   setid =    1085 xmoment=   0.0000E+00 ymoment=   0.0000E+00 zmoment=   0.0000E+00
 nd#    1086  xforce=   0.0000E+00   yforce=   0.0000E+00  zforce=  -7.5942E+01   energy=   1.7241E-03   setid =    1086 xmoment=   0.0000E+00 ymoment=   0.0000E+00 zmoment=   0.0000E+00
 nd#    1087  xforce=   0.0000E+00   yforce=   0.0000E+00  zforce=  -8.2272E+01   energy=   1.5949E-03   setid =    1087 xmoment=   0.0000E+00 ymoment=   0.0000E+00 zmoment=   0.0000E+00
 nd#    1649  xforce=   0.0000E+00   yforce=   0.0000E+00  zforce=  -9.1263E+01   energy=   2.6304E-03   setid =    1649 xmoment=   0.0000E+00 ymoment=   0.0000E+00 zmoment=   0.0000E+00
 nd#    1651  xforce=   0.0000E+00   yforce=   0.0000E+00  zforce=  -1.2452E+02   energy=   2.8165E-03   setid =    1651 xmoment=   0.0000E+00 ymoment=   0.0000E+00 zmoment=   0.0000E+00
 nd#    1653  xforce=   0.0000E+00   yforce=   0.0000E+00  zforce=  -1.1267E+02   energy=   2.7012E-03   setid =    1653 xmoment=   0.0000E+00 ymoment=   0.0000E+00 zmoment=   0.0000E+00
 nd#    1655  xforce=   0.0000E+00   yforce=   0.0000E+00  zforce=  -1.2162E+02   energy=   2.7664E-03   setid =    1655 xmoment=   0.0000E+00 ymoment=   0.0000E+00 zmoment=   0.0000E+00
 nd#    1657  xforce=   0.0000E+00   yforce=   0.0000E+00  zforce=  -1.0904E+02   energy=   2.7128E-03   setid =    1657 xmoment=   0.0000E+00 ymoment=   0.0000E+00 zmoment=   0.0000E+00
 nd#    1659  xforce=   0.0000E+00   yforce=   0.0000E+00  zforce=  -5.5690E+01   energy=   1.3977E-03   setid =    1659 xmoment=   0.0000E+00 ymoment=   0.0000E+00 zmoment=   0.0000E+00
 nd#    1733  xforce=   0.0000E+00   yforce=   0.0000E+00  zforce=  -1.2194E+02   energy=   3.9330E-03   setid =    1733 xmoment=   0.0000E+00 ymoment=   0.0000E+00 zmoment=   0.0000E+00
 nd#    1734  xforce=   0.0000E+00   yforce=   0.0000E+00  zforce=  -1.0793E+02   energy=   4.1573E-03   setid =    1734 xmoment=   0.0000E+00 ymoment=   0.0000E+00 zmoment=   0.0000E+00
 nd#    1735  xforce=   0.0000E+00   yforce=   0.0000E+00  zforce=  -1.4789E+02   energy=   4.1254E-03   setid =    1735 xmoment=   0.0000E+00 ymoment=   0.0000E+00 zmoment=   0.0000E+00
 nd#    1736  xforce=   0.0000E+00   yforce=   0.0000E+00  zforce=  -1.4057E+02   energy=   4.4615E-03   setid =    1736 xmoment=   0.0000E+00 ymoment=   0.0000E+00 zmoment=   0.0000E+00
 nd#    1737  xforce=   0.0000E+00   yforce=   0.0000E+00  zforce=  -1.5444E+02   energy=   4.1856E-03   setid =    1737 xmoment=   0.0000E+00 ymoment=   0.0000E+00 zmoment=   0.0000E+00
 nd#    1738  xforce=   0.0000E+00   yforce=   0.0000E+00  zforce=  -1.5219E+02   energy=   4.5850E-03   setid =    1738 xmoment=   0.0000E+00 ymoment=   0.0000E+00 zmoment=   0.0000E+00
 nd#    1739  xforce=   0.0000E+00   yforce=   0.0000E+00  zforce=  -1.7399E+02   energy=   4.3403E-03   setid =    1739 xmoment=   0.0000E+00 ymoment=   0.0000E+00 zmoment=   0.0000E+00
 nd#    1740  xforce=   0.0000E+00   yforce=   0.0000E+00  zforce=  -1.5336E+02   energy=   4.5507E-03   setid =    1740 xmoment=   0.0000E+00 ymoment=   0.0000E+00 zmoment=   0.0000E+00
 nd#    1741  xforce=   0.0000E+00   yforce=   0.0000E+00  zforce=  -1.4759E+02   energy=   4.1492E-03   setid =    1741 xmoment=   0.0000E+00 ymoment=   0.0000E+00 zmoment=   0.0000E+00
 nd#    1742  xforce=   0.0000E+00   yforce=   0.0000E+00  zforce=  -9.7202E+01   energy=   4.0456E-03   setid =    1742 xmoment=   0.0000E+00 ymoment=   0.0000E+00 zmoment=   0.0000E+00
 nd#    1743  xforce=   0.0000E+00   yforce=   0.0000E+00  zforce=  -5.9221E+01   energy=   1.9752E-03   setid =    1743 xmoment=   0.0000E+00 ymoment=   0.0000E+00 zmoment=   0.0000E+00
 nd#    1744  xforce=   0.0000E+00   yforce=   0.0000E+00  zforce=  -2.4233E+01   energy=   1.8247E-03   setid =    1744 xmoment=   0.0000E+00 ymoment=   0.0000E+00 zmoment=   0.0000E+00
 nd#    1751  xforce=   0.0000E+00   yforce=   0.0000E+00  zforce=  -1.1249E+02   energy=   3.1462E-03   setid =    1751 xmoment=   0.0000E+00 ymoment=   0.0000E+00 zmoment=   0.0000E+00
 nd#    1752  xforce=   0.0000E+00   yforce=   0.0000E+00  zforce=  -1.2016E+02   energy=   3.5444E-03   setid =    1752 xmoment=   0.0000E+00 ymoment=   0.0000E+00 zmoment=   0.0000E+00
 nd#    1753  xforce=   0.0000E+00   yforce=   0.0000E+00  zforce=  -1.4170E+02   energy=   3.3227E-03   setid =    1753 xmoment=   0.0000E+00 ymoment=   0.0000E+00 zmoment=   0.0000E+00
 nd#    1754  xforce=   0.0000E+00   yforce=   0.0000E+00  zforce=  -1.4663E+02   energy=   3.7177E-03   setid =    1754 xmoment=   0.0000E+00 ymoment=   0.0000E+00 zmoment=   0.0000E+00
 nd#    1755  xforce=   0.0000E+00   yforce=   0.0000E+00  zforce=  -1.3611E+02   energy=   3.2614E-03   setid =    1755 xmoment=   0.0000E+00 ymoment=   0.0000E+00 zmoment=   0.0000E+00
 nd#    1756  xforce=   0.0000E+00   yforce=   0.0000E+00  zforce=  -1.5034E+02   energy=   3.7380E-03   setid =    1756 xmoment=   0.0000E+00 ymoment=   0.0000E+00 zmoment=   0.0000E+00
 nd#    1757  xforce=   0.0000E+00   yforce=   0.0000E+00  zforce=  -1.5240E+02   energy=   3.3702E-03   setid =    1757 xmoment=   0.0000E+00 ymoment=   0.0000E+00 zmoment=   0.0000E+00
 nd#    1758  xforce=   0.0000E+00   yforce=   0.0000E+00  zforce=  -1.7034E+02   energy=   3.8841E-03   setid =    1758 xmoment=   0.0000E+00 ymoment=   0.0000E+00 zmoment=   0.0000E+00
 nd#    1759  xforce=   0.0000E+00   yforce=   0.0000E+00  zforce=  -1.3083E+02   energy=   3.2261E-03   setid =    1759 xmoment=   0.0000E+00 ymoment=   0.0000E+00 zmoment=   0.0000E+00
 nd#    1760  xforce=   0.0000E+00   yforce=   0.0000E+00  zforce=  -1.4957E+02   energy=   3.7402E-03   setid =    1760 xmoment=   0.0000E+00 ymoment=   0.0000E+00 zmoment=   0.0000E+00
 nd#    1761  xforce=   0.0000E+00   yforce=   0.0000E+00  zforce=  -5.9913E+01   energy=   1.5945E-03   setid =    1761 xmoment=   0.0000E+00 ymoment=   0.0000E+00 zmoment=   0.0000E+00
 nd#    1762  xforce=   0.0000E+00   yforce=   0.0000E+00  zforce=  -6.4145E+01   energy=   1.8070E-03   setid =    1762 xmoment=   0.0000E+00 ymoment=   0.0000E+00 zmoment=   0.0000E+00
 nd#    1769  xforce=   0.0000E+00   yforce=   0.0000E+00  zforce=   2.5118E+01   energy=   6.0699E-04   setid =    1769 xmoment=   0.0000E+00 ymoment=   0.0000E+00 zmoment=   0.0000E+00
 nd#    1770  xforce=   0.0000E+00   yforce=   0.0000E+00  zforce=   3.9953E+01   energy=   4.3501E-04   setid =    1770 xmoment=   0.0000E+00 ymoment=   0.0000E+00 zmoment=   0.0000E+00
 nd#    1771  xforce=   0.0000E+00   yforce=   0.0000E+00  zforce=   6.0847E+01   energy=   2.1900E-04   setid =    1771 xmoment=   0.0000E+00 ymoment=   0.0000E+00 zmoment=   0.0000E+00
 nd#    1772  xforce=   0.0000E+00   yforce=   0.0000E+00  zforce=   7.2784E+01   energy=   8.9267E-05   setid =    1772 xmoment=   0.0000E+00 ymoment=   0.0000E+00 zmoment=   0.0000E+00
 nd#    1773  xforce=   0.0000E+00   yforce=   0.0000E+00  zforce=   9.8148E+01   energy=  -1.2444E-04   setid =    1773 xmoment=   0.0000E+00 ymoment=   0.0000E+00 zmoment=   0.0000E+00
 nd#    1774  xforce=   0.0000E+00   yforce=   0.0000E+00  zforce=   5.6851E+01   energy=  -1.2460E-04   setid =    1774 xmoment=   0.0000E+00 ymoment=   0.0000E+00 zmoment=   0.0000E+00
              xtotal=   0.0000E+00   ytotal=   0.0000E+00  ztotal=  -4.9504E+03   etotal=   1.4310E-01

 n o d a l   f o r c e/e n e r g y    o u t p u t  t=   1.08379E+01

 velocity boundary condition forces/rigid body moments 

 nd#     354  xforce=   0.0000E+00   yforce=   0.0000E+00  zforce=  -5.0207E+01   energy=   1.5165E-03   setid =     354 xmoment=   0.0000E+00 ymoment=   0.0000E+00 zmoment=   0.0000E+00
 nd#     355  xforce=   0.0000E+00   yforce=   0.0000E+00  zforce=  -5.7852E+01   energy=   2.0060E-03   setid =     355 xmoment=   0.0000E+00 ymoment=   0.0000E+00 zmoment=   0.0000E+00
 nd#     356  xforce=   0.0000E+00   yforce=   0.0000E+00  zforce=  -3.5740E+01   energy=   1.1435E-03   setid =     356 xmoment=   0.0000E+00 ymoment=   0.0000E+00 zmoment=   0.0000E+00
 nd#     357  xforce=   0.0000E+00   yforce=   0.0000E+00  zforce=  -4.6148E+01   energy=   1.1163E-03   setid =     357 xmoment=   0.0000E+00 ymoment=   0.0000E+00 zmoment=   0.0000E+00
 nd#     403  xforce=   0.0000E+00   yforce=   0.0000E+00  zforce=  -2.0936E+01   energy=   7.4125E-04   setid =     403 xmoment=   0.0000E+00 ymoment=   0.0000E+00 zmoment=   0.0000E+00
 nd#     404  xforce=   0.0000E+00   yforce=   0.0000E+00  zforce=  -5.1200E+01   energy=   1.4187E-03   setid =     404 xmoment=   0.0000E+00 ymoment=   0.0000E+00 zmoment=   0.0000E+00
 nd#     405  xforce=   0.0000E+00   yforce=   0.0000E+00  zforce=  -2.6790E+01   energy=   9.7167E-04   setid =     405 xmoment=   0.0000E+00 ymoment=   0.0000E+00 zmoment=   0.0000E+00
 nd#     466  xforce=   0.0000E+00   yforce=   0.0000E+00  zforce=  -2.3820E+01   energy=   6.2929E-04   setid =     466 xmoment=   0.0000E+00 ymoment=   0.0000E+00 zmoment=   0.0000E+00
 nd#     467  xforce=   0.0000E+00   yforce=   0.0000E+00  zforce=  -6.1994E+00   energy=   4.1910E-04   setid =     467 xmoment=   0.0000E+00 ymoment=   0.0000E+00 zmoment=   0.0000E+00
 nd#     468  xforce=   0.0000E+00   yforce=   0.0000E+00  zforce=  -3.8962E+01   energy=   1.1256E-03   setid =     468 xmoment=   0.0000E+00 ymoment=   0.0000E+00 zmoment=   0.0000E+00
 nd#     469  xforce=   0.0000E+00   yforce=   0.0000E+00  zforce=  -2.1813E+01   energy=   7.9512E-04   setid =     469 xmoment=   0.0000E+00 ymoment=   0.0000E+00 zmoment=   0.0000E+00
 nd#     530  xforce=   0.0000E+00   yforce=   0.0000E+00  zforce=  -9.8332E+00   energy=   5.8515E-04   setid =     530 xmoment=   0.0000E+00 ymoment=   0.0000E+00 zmoment=   0.0000E+00
 nd#     531  xforce=   0.0000E+00   yforce=   0.0000E+00  zforce=  -3.6120E+01   energy=   1.0700E-03   setid =     531 xmoment=   0.0000E+00 ymoment=   0.0000E+00 zmoment=   0.0000E+00
 nd#     532  xforce=   0.0000E+00   yforce=   0.0000E+00  zforce=   2.0589E+01   energy=   2.7286E-04   setid =     532 xmoment=   0.0000E+00 ymoment=   0.0000E+00 zmoment=   0.0000E+00
 nd#     533  xforce=   0.0000E+00   yforce=   0.0000E+00  zforce=   4.5003E+01   energy=  -1.3094E-04   setid =     533 xmoment=   0.0000E+00 ymoment=   0.0000E+00 zmoment=   0.0000E+00
 nd#     549  xforce=   0.0000E+00   yforce=   0.0000E+00  zforce=   5.2280E+00   energy=   2.8624E-04   setid =     549 xmoment=   0.0000E+00 ymoment=   0.0000E+00 zmoment=   0.0000E+00
 nd#     610  xforce=   0.0000E+00   yforce=   0.0000E+00  zforce=  -6.8979E+01   energy=   1.7249E-03   setid =     610 xmoment=   0.0000E+00 ymoment=   0.0000E+00 zmoment=   0.0000E+00
 nd#     611  xforce=   0.0000E+00   yforce=   0.0000E+00  zforce=  -3.8443E+01   energy=   1.2929E-03   setid =     611 xmoment=   0.0000E+00 ymoment=   0.0000E+00 zmoment=   0.0000E+00
 nd#     612  xforce=   0.0000E+00   yforce=   0.0000E+00  zforce=  -8.1884E+01   energy=   2.4215E-03   setid =     612 xmoment=   0.0000E+00 ymoment=   0.0000E+00 zmoment=   0.0000E+00
 nd#     613  xforce=   0.0000E+00   yforce=   0.0000E+00  zforce=  -1.0328E+02   energy=   2.7682E-03   setid =     613 xmoment=   0.0000E+00 ymoment=   0.0000E+00 zmoment=   0.0000E+00
 nd#     629  xforce=   0.0000E+00   yforce=   0.0000E+00  zforce=  -4.8312E+01   energy=   1.3231E-03   setid =     629 xmoment=   0.0000E+00 ymoment=   0.0000E+00 zmoment=   0.0000E+00
 nd#     660  xforce=   0.0000E+00   yforce=   0.0000E+00  zforce=  -5.5322E+01   energy=   1.1432E-03   setid =     660 xmoment=   0.0000E+00 ymoment=   0.0000E+00 zmoment=   0.0000E+00
 nd#     661  xforce=   0.0000E+00   yforce=   0.0000E+00  zforce=  -1.9217E+01   energy=   6.4338E-04   setid =     661 xmoment=   0.0000E+00 ymoment=   0.0000E+00 zmoment=   0.0000E+00
 nd#     692  xforce=   0.0000E+00   yforce=   0.0000E+00  zforce=  -8.5318E+01   energy=   2.3944E-03   setid =     692 xmoment=   0.0000E+00 ymoment=   0.0000E+00 zmoment=   0.0000E+00
 nd#     693  xforce=   0.0000E+00   yforce=   0.0000E+00  zforce=  -8.0126E+01   energy=   2.2869E-03   setid =     693 xmoment=   0.0000E+00 ymoment=   0.0000E+00 zmoment=   0.0000E+00
 nd#     724  xforce=   0.0000E+00   yforce=   0.0000E+00  zforce=  -6.6755E+01   energy=   1.2022E-03   setid =     724 xmoment=   0.0000E+00 ymoment=   0.0000E+00 zmoment=   0.0000E+00
 nd#     725  xforce=   0.0000E+00   yforce=   0.0000E+00  zforce=  -1.0870E+02   energy=   1.9874E-03   setid =     725 xmoment=   0.0000E+00 ymoment=   0.0000E+00 zmoment=   0.0000E+00
 nd#     771  xforce=   0.0000E+00   yforce=   0.0000E+00  zforce=  -4.0689E+00   energy=   6.2362E-04   setid =     771 xmoment=   0.0000E+00 ymoment=   0.0000E+00 zmoment=   0.0000E+00
 nd#     772  xforce=   0.0000E+00   yforce=   0.0000E+00  zforce=  -4.3122E+01   energy=   9.8993E-04   setid =     772 xmoment=   0.0000E+00 ymoment=   0.0000E+00 zmoment=   0.0000E+00
 nd#     773  xforce=   0.0000E+00   yforce=   0.0000E+00  zforce=  -4.3350E+01   energy=   1.0095E-03   setid =     773 xmoment=   0.0000E+00 ymoment=   0.0000E+00 zmoment=   0.0000E+00
 nd#     804  xforce=   0.0000E+00   yforce=   0.0000E+00  zforce=  -7.3097E+01   energy=   1.5177E-03   setid =     804 xmoment=   0.0000E+00 ymoment=   0.0000E+00 zmoment=   0.0000E+00
 nd#     805  xforce=   0.0000E+00   yforce=   0.0000E+00  zforce=  -8.2058E+01   energy=   1.8992E-03   setid =     805 xmoment=   0.0000E+00 ymoment=   0.0000E+00 zmoment=   0.0000E+00
 nd#     821  xforce=   0.0000E+00   yforce=   0.0000E+00  zforce=  -1.0052E+02   energy=   1.7989E-03   setid =     821 xmoment=   0.0000E+00 ymoment=   0.0000E+00 zmoment=   0.0000E+00
 nd#     852  xforce=   0.0000E+00   yforce=   0.0000E+00  zforce=   7.6467E+01   energy=  -6.8719E-04   setid =     852 xmoment=   0.0000E+00 ymoment=   0.0000E+00 zmoment=   0.0000E+00
 nd#     853  xforce=   0.0000E+00   yforce=   0.0000E+00  zforce=   1.0459E+01   energy=   4.3600E-04   setid =     853 xmoment=   0.0000E+00 ymoment=   0.0000E+00 zmoment=   0.0000E+00
 nd#     869  xforce=   0.0000E+00   yforce=   0.0000E+00  zforce=  -6.7183E+01   energy=   1.3774E-03   setid =     869 xmoment=   0.0000E+00 ymoment=   0.0000E+00 zmoment=   0.0000E+00
 nd#     885  xforce=   0.0000E+00   yforce=   0.0000E+00  zforce=  -6.0880E+01   energy=   1.2322E-03   setid =     885 xmoment=   0.0000E+00 ymoment=   0.0000E+00 zmoment=   0.0000E+00
 nd#    1082  xforce=   0.0000E+00   yforce=   0.0000E+00  zforce=   1.1427E+01   energy=   2.4896E-04   setid =    1082 xmoment=   0.0000E+00 ymoment=   0.0000E+00 zmoment=   0.0000E+00
 nd#    1083  xforce=   0.0000E+00   yforce=   0.0000E+00  zforce=  -4.4536E+01   energy=   2.2902E-03   setid =    1083 xmoment=   0.0000E+00 ymoment=   0.0000E+00 zmoment=   0.0000E+00
 nd#    1084  xforce=   0.0000E+00   yforce=   0.0000E+00  zforce=  -5.8157E+01   energy=   2.3529E-03   setid =    1084 xmoment=   0.0000E+00 ymoment=   0.0000E+00 zmoment=   0.0000E+00
 nd#    1085  xforce=   0.0000E+00   yforce=   0.0000E+00  zforce=  -6.7704E+01   energy=   2.3110E-03   setid =    1085 xmoment=   0.0000E+00 ymoment=   0.0000E+00 zmoment=   0.0000E+00
 nd#    1086  xforce=   0.0000E+00   yforce=   0.0000E+00  zforce=  -7.7615E+01   energy=   2.2849E-03   setid =    1086 xmoment=   0.0000E+00 ymoment=   0.0000E+00 zmoment=   0.0000E+00
 nd#    1087  xforce=   0.0000E+00   yforce=   0.0000E+00  zforce=  -8.3987E+01   energy=   2.2021E-03   setid =    1087 xmoment=   0.0000E+00 ymoment=   0.0000E+00 zmoment=   0.0000E+00
 nd#    1649  xforce=   0.0000E+00   yforce=   0.0000E+00  zforce=  -1.1119E+02   energy=   3.3698E-03   setid =    1649 xmoment=   0.0000E+00 ymoment=   0.0000E+00 zmoment=   0.0000E+00
 nd#    1651  xforce=   0.0000E+00   yforce=   0.0000E+00  zforce=  -1.3221E+02   energy=   3.7541E-03   setid =    1651 xmoment=   0.0000E+00 ymoment=   0.0000E+00 zmoment=   0.0000E+00
 nd#    1653  xforce=   0.0000E+00   yforce=   0.0000E+00  zforce=  -1.2464E+02   energy=   3.5679E-03   setid =    1653 xmoment=   0.0000E+00 ymoment=   0.0000E+00 zmoment=   0.0000E+00
 nd#    1655  xforce=   0.0000E+00   yforce=   0.0000E+00  zforce=  -1.3588E+02   energy=   3.7068E-03   setid =    1655 xmoment=   0.0000E+00 ymoment=   0.0000E+00 zmoment=   0.0000E+00
 nd#    1657  xforce=   0.0000E+00   yforce=   0.0000E+00  zforce=  -1.1967E+02   energy=   3.5481E-03   setid =    1657 xmoment=   0.0000E+00 ymoment=   0.0000E+00 zmoment=   0.0000E+00
 nd#    1659  xforce=   0.0000E+00   yforce=   0.0000E+00  zforce=  -6.0249E+01   energy=   1.8211E-03   setid =    1659 xmoment=   0.0000E+00 ymoment=   0.0000E+00 zmoment=   0.0000E+00
 nd#    1733  xforce=   0.0000E+00   yforce=   0.0000E+00  zforce=  -1.3481E+02   energy=   4.8707E-03   setid =    1733 xmoment=   0.0000E+00 ymoment=   0.0000E+00 zmoment=   0.0000E+00
 nd#    1734  xforce=   0.0000E+00   yforce=   0.0000E+00  zforce=  -1.2113E+02   energy=   4.9939E-03   setid =    1734 xmoment=   0.0000E+00 ymoment=   0.0000E+00 zmoment=   0.0000E+00
 nd#    1735  xforce=   0.0000E+00   yforce=   0.0000E+00  zforce=  -1.6381E+02   energy=   5.2638E-03   setid =    1735 xmoment=   0.0000E+00 ymoment=   0.0000E+00 zmoment=   0.0000E+00
 nd#    1736  xforce=   0.0000E+00   yforce=   0.0000E+00  zforce=  -1.5391E+02   energy=   5.5371E-03   setid =    1736 xmoment=   0.0000E+00 ymoment=   0.0000E+00 zmoment=   0.0000E+00
 nd#    1737  xforce=   0.0000E+00   yforce=   0.0000E+00  zforce=  -1.6948E+02   energy=   5.3686E-03   setid =    1737 xmoment=   0.0000E+00 ymoment=   0.0000E+00 zmoment=   0.0000E+00
 nd#    1738  xforce=   0.0000E+00   yforce=   0.0000E+00  zforce=  -1.6304E+02   energy=   5.7362E-03   setid =    1738 xmoment=   0.0000E+00 ymoment=   0.0000E+00 zmoment=   0.0000E+00
 nd#    1739  xforce=   0.0000E+00   yforce=   0.0000E+00  zforce=  -1.8464E+02   energy=   5.6501E-03   setid =    1739 xmoment=   0.0000E+00 ymoment=   0.0000E+00 zmoment=   0.0000E+00
 nd#    1740  xforce=   0.0000E+00   yforce=   0.0000E+00  zforce=  -1.6270E+02   energy=   5.7050E-03   setid =    1740 xmoment=   0.0000E+00 ymoment=   0.0000E+00 zmoment=   0.0000E+00
 nd#    1741  xforce=   0.0000E+00   yforce=   0.0000E+00  zforce=  -1.5532E+02   energy=   5.2554E-03   setid =    1741 xmoment=   0.0000E+00 ymoment=   0.0000E+00 zmoment=   0.0000E+00
 nd#    1742  xforce=   0.0000E+00   yforce=   0.0000E+00  zforce=  -1.0518E+02   energy=   4.7848E-03   setid =    1742 xmoment=   0.0000E+00 ymoment=   0.0000E+00 zmoment=   0.0000E+00
 nd#    1743  xforce=   0.0000E+00   yforce=   0.0000E+00  zforce=  -6.3799E+01   energy=   2.4245E-03   setid =    1743 xmoment=   0.0000E+00 ymoment=   0.0000E+00 zmoment=   0.0000E+00
 nd#    1744  xforce=   0.0000E+00   yforce=   0.0000E+00  zforce=  -2.8187E+01   energy=   2.0162E-03   setid =    1744 xmoment=   0.0000E+00 ymoment=   0.0000E+00 zmoment=   0.0000E+00
 nd#    1751  xforce=   0.0000E+00   yforce=   0.0000E+00  zforce=  -1.3239E+02   energy=   4.0405E-03   setid =    1751 xmoment=   0.0000E+00 ymoment=   0.0000E+00 zmoment=   0.0000E+00
 nd#    1752  xforce=   0.0000E+00   yforce=   0.0000E+00  zforce=  -1.3639E+02   energy=   4.4814E-03   setid =    1752 xmoment=   0.0000E+00 ymoment=   0.0000E+00 zmoment=   0.0000E+00
 nd#    1753  xforce=   0.0000E+00   yforce=   0.0000E+00  zforce=  -1.5281E+02   energy=   4.3983E-03   setid =    1753 xmoment=   0.0000E+00 ymoment=   0.0000E+00 zmoment=   0.0000E+00
 nd#    1754  xforce=   0.0000E+00   yforce=   0.0000E+00  zforce=  -1.6057E+02   energy=   4.8396E-03   setid =    1754 xmoment=   0.0000E+00 ymoment=   0.0000E+00 zmoment=   0.0000E+00
 nd#    1755  xforce=   0.0000E+00   yforce=   0.0000E+00  zforce=  -1.5214E+02   energy=   4.3141E-03   setid =    1755 xmoment=   0.0000E+00 ymoment=   0.0000E+00 zmoment=   0.0000E+00
 nd#    1756  xforce=   0.0000E+00   yforce=   0.0000E+00  zforce=  -1.6457E+02   energy=   4.8881E-03   setid =    1756 xmoment=   0.0000E+00 ymoment=   0.0000E+00 zmoment=   0.0000E+00
 nd#    1757  xforce=   0.0000E+00   yforce=   0.0000E+00  zforce=  -1.6691E+02   energy=   4.5364E-03   setid =    1757 xmoment=   0.0000E+00 ymoment=   0.0000E+00 zmoment=   0.0000E+00
 nd#    1758  xforce=   0.0000E+00   yforce=   0.0000E+00  zforce=  -1.8007E+02   energy=   5.1638E-03   setid =    1758 xmoment=   0.0000E+00 ymoment=   0.0000E+00 zmoment=   0.0000E+00
 nd#    1759  xforce=   0.0000E+00   yforce=   0.0000E+00  zforce=  -1.4385E+02   energy=   4.2292E-03   setid =    1759 xmoment=   0.0000E+00 ymoment=   0.0000E+00 zmoment=   0.0000E+00
 nd#    1760  xforce=   0.0000E+00   yforce=   0.0000E+00  zforce=  -1.6069E+02   energy=   4.8734E-03   setid =    1760 xmoment=   0.0000E+00 ymoment=   0.0000E+00 zmoment=   0.0000E+00
 nd#    1761  xforce=   0.0000E+00   yforce=   0.0000E+00  zforce=  -6.5781E+01   energy=   2.0535E-03   setid =    1761 xmoment=   0.0000E+00 ymoment=   0.0000E+00 zmoment=   0.0000E+00
 nd#    1762  xforce=   0.0000E+00   yforce=   0.0000E+00  zforce=  -6.8516E+01   energy=   2.2915E-03   setid =    1762 xmoment=   0.0000E+00 ymoment=   0.0000E+00 zmoment=   0.0000E+00
 nd#    1769  xforce=   0.0000E+00   yforce=   0.0000E+00  zforce=   2.3952E+01   energy=   4.2778E-04   setid =    1769 xmoment=   0.0000E+00 ymoment=   0.0000E+00 zmoment=   0.0000E+00
 nd#    1770  xforce=   0.0000E+00   yforce=   0.0000E+00  zforce=   4.1569E+01   energy=   1.3729E-04   setid =    1770 xmoment=   0.0000E+00 ymoment=   0.0000E+00 zmoment=   0.0000E+00
 nd#    1771  xforce=   0.0000E+00   yforce=   0.0000E+00  zforce=   6.3391E+01   energy=  -2.3473E-04   setid =    1771 xmoment=   0.0000E+00 ymoment=   0.0000E+00 zmoment=   0.0000E+00
 nd#    1772  xforce=   0.0000E+00   yforce=   0.0000E+00  zforce=   7.1720E+01   energy=  -4.3848E-04   setid =    1772 xmoment=   0.0000E+00 ymoment=   0.0000E+00 zmoment=   0.0000E+00
 nd#    1773  xforce=   0.0000E+00   yforce=   0.0000E+00  zforce=   9.7361E+01   energy=  -8.3846E-04   setid =    1773 xmoment=   0.0000E+00 ymoment=   0.0000E+00 zmoment=   0.0000E+00
 nd#    1774  xforce=   0.0000E+00   yforce=   0.0000E+00  zforce=   5.7325E+01   energy=  -5.4159E-04   setid =    1774 xmoment=   0.0000E+00 ymoment=   0.0000E+00 zmoment=   0.0000E+00
              xtotal=   0.0000E+00   ytotal=   0.0000E+00  ztotal=  -5.4383E+03   etotal=   1.8104E-01

 n o d a l   f o r c e/e n e r g y    o u t p u t  t=   1.31532E+01

 velocity boundary condition forces/rigid body moments 

 nd#     354  xforce=   0.0000E+00   yforce=   0.0000E+00  zforce=  -5.5098E+01   energy=   2.1260E-03   setid =     354 xmoment=   0.0000E+00 ymoment=   0.0000E+00 zmoment=   0.0000E+00
 nd#     355  xforce=   0.0000E+00   yforce=   0.0000E+00  zforce=  -6.3533E+01   energy=   2.7086E-03   setid =     355 xmoment=   0.0000E+00 ymoment=   0.0000E+00 zmoment=   0.0000E+00
 nd#     356  xforce=   0.0000E+00   yforce=   0.0000E+00  zforce=  -4.0622E+01   energy=   1.5855E-03   setid =     356 xmoment=   0.0000E+00 ymoment=   0.0000E+00 zmoment=   0.0000E+00
 nd#     357  xforce=   0.0000E+00   yforce=   0.0000E+00  zforce=  -5.1972E+01   energy=   1.6842E-03   setid =     357 xmoment=   0.0000E+00 ymoment=   0.0000E+00 zmoment=   0.0000E+00
 nd#     403  xforce=   0.0000E+00   yforce=   0.0000E+00  zforce=  -2.2885E+01   energy=   9.9489E-04   setid =     403 xmoment=   0.0000E+00 ymoment=   0.0000E+00 zmoment=   0.0000E+00
 nd#     404  xforce=   0.0000E+00   yforce=   0.0000E+00  zforce=  -5.7790E+01   energy=   2.0496E-03   setid =     404 xmoment=   0.0000E+00 ymoment=   0.0000E+00 zmoment=   0.0000E+00
 nd#     405  xforce=   0.0000E+00   yforce=   0.0000E+00  zforce=  -2.8354E+01   energy=   1.2909E-03   setid =     405 xmoment=   0.0000E+00 ymoment=   0.0000E+00 zmoment=   0.0000E+00
 nd#     466  xforce=   0.0000E+00   yforce=   0.0000E+00  zforce=  -3.1946E+01   energy=   9.5208E-04   setid =     466 xmoment=   0.0000E+00 ymoment=   0.0000E+00 zmoment=   0.0000E+00
 nd#     467  xforce=   0.0000E+00   yforce=   0.0000E+00  zforce=   6.2132E+00   energy=   4.1902E-04   setid =     467 xmoment=   0.0000E+00 ymoment=   0.0000E+00 zmoment=   0.0000E+00
 nd#     468  xforce=   0.0000E+00   yforce=   0.0000E+00  zforce=  -3.8917E+01   energy=   1.5763E-03   setid =     468 xmoment=   0.0000E+00 ymoment=   0.0000E+00 zmoment=   0.0000E+00
 nd#     469  xforce=   0.0000E+00   yforce=   0.0000E+00  zforce=  -2.9556E+01   energy=   1.0925E-03   setid =     469 xmoment=   0.0000E+00 ymoment=   0.0000E+00 zmoment=   0.0000E+00
 nd#     530  xforce=   0.0000E+00   yforce=   0.0000E+00  zforce=  -7.7548E+00   energy=   6.8696E-04   setid =     530 xmoment=   0.0000E+00 ymoment=   0.0000E+00 zmoment=   0.0000E+00
 nd#     531  xforce=   0.0000E+00   yforce=   0.0000E+00  zforce=  -3.3580E+01   energy=   1.4735E-03   setid =     531 xmoment=   0.0000E+00 ymoment=   0.0000E+00 zmoment=   0.0000E+00
 nd#     532  xforce=   0.0000E+00   yforce=   0.0000E+00  zforce=   2.0317E+01   energy=   3.6089E-05   setid =     532 xmoment=   0.0000E+00 ymoment=   0.0000E+00 zmoment=   0.0000E+00
 nd#     533  xforce=   0.0000E+00   yforce=   0.0000E+00  zforce=   3.6771E+01   energy=  -6.0427E-04   setid =     533 xmoment=   0.0000E+00 ymoment=   0.0000E+00 zmoment=   0.0000E+00
 nd#     549  xforce=   0.0000E+00   yforce=   0.0000E+00  zforce=   1.9698E+00   energy=   2.4457E-04   setid =     549 xmoment=   0.0000E+00 ymoment=   0.0000E+00 zmoment=   0.0000E+00
 nd#     610  xforce=   0.0000E+00   yforce=   0.0000E+00  zforce=  -7.2242E+01   energy=   2.5424E-03   setid =     610 xmoment=   0.0000E+00 ymoment=   0.0000E+00 zmoment=   0.0000E+00
 nd#     611  xforce=   0.0000E+00   yforce=   0.0000E+00  zforce=  -5.3060E+01   energy=   1.8225E-03   setid =     611 xmoment=   0.0000E+00 ymoment=   0.0000E+00 zmoment=   0.0000E+00
 nd#     612  xforce=   0.0000E+00   yforce=   0.0000E+00  zforce=  -1.0106E+02   energy=   3.4804E-03   setid =     612 xmoment=   0.0000E+00 ymoment=   0.0000E+00 zmoment=   0.0000E+00
 nd#     613  xforce=   0.0000E+00   yforce=   0.0000E+00  zforce=  -1.1034E+02   energy=   4.0046E-03   setid =     613 xmoment=   0.0000E+00 ymoment=   0.0000E+00 zmoment=   0.0000E+00
 nd#     629  xforce=   0.0000E+00   yforce=   0.0000E+00  zforce=  -5.7751E+01   energy=   1.9371E-03   setid =     629 xmoment=   0.0000E+00 ymoment=   0.0000E+00 zmoment=   0.0000E+00
 nd#     660  xforce=   0.0000E+00   yforce=   0.0000E+00  zforce=  -6.3585E+01   energy=   1.8314E-03   setid =     660 xmoment=   0.0000E+00 ymoment=   0.0000E+00 zmoment=   0.0000E+00
 nd#     661  xforce=   0.0000E+00   yforce=   0.0000E+00  zforce=  -2.5496E+01   energy=   9.0219E-04   setid =     661 xmoment=   0.0000E+00 ymoment=   0.0000E+00 zmoment=   0.0000E+00
 nd#     692  xforce=   0.0000E+00   yforce=   0.0000E+00  zforce=  -9.8390E+01   energy=   3.4578E-03   setid =     692 xmoment=   0.0000E+00 ymoment=   0.0000E+00 zmoment=   0.0000E+00
 nd#     693  xforce=   0.0000E+00   yforce=   0.0000E+00  zforce=  -9.1058E+01   energy=   3.2777E-03   setid =     693 xmoment=   0.0000E+00 ymoment=   0.0000E+00 zmoment=   0.0000E+00
[...]
 nd#    1737  xforce=   0.0000E+00   yforce=   0.0000E+00  zforce=  -1.9277E+02   energy=   1.0207E-01   setid =    1737 xmoment=   0.0000E+00 ymoment=   0.0000E+00 zmoment=   0.0000E+00
 nd#    1738  xforce=   0.0000E+00   yforce=   0.0000E+00  zforce=  -1.6952E+02   energy=   9.6393E-02   setid =    1738 xmoment=   0.0000E+00 ymoment=   0.0000E+00 zmoment=   0.0000E+00
 nd#    1739  xforce=   0.0000E+00   yforce=   0.0000E+00  zforce=  -1.9044E+02   energy=   1.0587E-01   setid =    1739 xmoment=   0.0000E+00 ymoment=   0.0000E+00 zmoment=   0.0000E+00
 nd#    1740  xforce=   0.0000E+00   yforce=   0.0000E+00  zforce=  -1.4141E+02   energy=   8.8803E-02   setid =    1740 xmoment=   0.0000E+00 ymoment=   0.0000E+00 zmoment=   0.0000E+00
 nd#    1741  xforce=   0.0000E+00   yforce=   0.0000E+00  zforce=  -1.1973E+02   energy=   7.9242E-02   setid =    1741 xmoment=   0.0000E+00 ymoment=   0.0000E+00 zmoment=   0.0000E+00
 nd#    1742  xforce=   0.0000E+00   yforce=   0.0000E+00  zforce=  -4.6909E+01   energy=   4.6023E-02   setid =    1742 xmoment=   0.0000E+00 ymoment=   0.0000E+00 zmoment=   0.0000E+00
 nd#    1743  xforce=   0.0000E+00   yforce=   0.0000E+00  zforce=  -4.9755E+01   energy=   3.2599E-02   setid =    1743 xmoment=   0.0000E+00 ymoment=   0.0000E+00 zmoment=   0.0000E+00
 nd#    1744  xforce=   0.0000E+00   yforce=   0.0000E+00  zforce=  -5.4302E+00   energy=   1.0007E-02   setid =    1744 xmoment=   0.0000E+00 ymoment=   0.0000E+00 zmoment=   0.0000E+00
 nd#    1751  xforce=   0.0000E+00   yforce=   0.0000E+00  zforce=  -1.5132E+02   energy=   7.9752E-02   setid =    1751 xmoment=   0.0000E+00 ymoment=   0.0000E+00 zmoment=   0.0000E+00
 nd#    1752  xforce=   0.0000E+00   yforce=   0.0000E+00  zforce=  -1.4729E+02   energy=   7.9783E-02   setid =    1752 xmoment=   0.0000E+00 ymoment=   0.0000E+00 zmoment=   0.0000E+00
 nd#    1753  xforce=   0.0000E+00   yforce=   0.0000E+00  zforce=  -1.9508E+02   energy=   1.0089E-01   setid =    1753 xmoment=   0.0000E+00 ymoment=   0.0000E+00 zmoment=   0.0000E+00
 nd#    1754  xforce=   0.0000E+00   yforce=   0.0000E+00  zforce=  -2.0219E+02   energy=   1.0433E-01   setid =    1754 xmoment=   0.0000E+00 ymoment=   0.0000E+00 zmoment=   0.0000E+00
 nd#    1755  xforce=   0.0000E+00   yforce=   0.0000E+00  zforce=  -1.8726E+02   energy=   9.6840E-02   setid =    1755 xmoment=   0.0000E+00 ymoment=   0.0000E+00 zmoment=   0.0000E+00
 nd#    1756  xforce=   0.0000E+00   yforce=   0.0000E+00  zforce=  -1.9777E+02   energy=   1.0288E-01   setid =    1756 xmoment=   0.0000E+00 ymoment=   0.0000E+00 zmoment=   0.0000E+00
 nd#    1757  xforce=   0.0000E+00   yforce=   0.0000E+00  zforce=  -1.7476E+02   energy=   9.4600E-02   setid =    1757 xmoment=   0.0000E+00 ymoment=   0.0000E+00 zmoment=   0.0000E+00
 nd#    1758  xforce=   0.0000E+00   yforce=   0.0000E+00  zforce=  -1.9353E+02   energy=   1.0464E-01   setid =    1758 xmoment=   0.0000E+00 ymoment=   0.0000E+00 zmoment=   0.0000E+00
 nd#    1759  xforce=   0.0000E+00   yforce=   0.0000E+00  zforce=  -1.3071E+02   energy=   7.6075E-02   setid =    1759 xmoment=   0.0000E+00 ymoment=   0.0000E+00 zmoment=   0.0000E+00
 nd#    1760  xforce=   0.0000E+00   yforce=   0.0000E+00  zforce=  -1.3821E+02   energy=   8.2834E-02   setid =    1760 xmoment=   0.0000E+00 ymoment=   0.0000E+00 zmoment=   0.0000E+00
 nd#    1761  xforce=   0.0000E+00   yforce=   0.0000E+00  zforce=  -6.3094E+01   energy=   3.5480E-02   setid =    1761 xmoment=   0.0000E+00 ymoment=   0.0000E+00 zmoment=   0.0000E+00
 nd#    1762  xforce=   0.0000E+00   yforce=   0.0000E+00  zforce=  -6.0804E+01   energy=   3.6043E-02   setid =    1762 xmoment=   0.0000E+00 ymoment=   0.0000E+00 zmoment=   0.0000E+00
 nd#    1769  xforce=   0.0000E+00   yforce=   0.0000E+00  zforce=   3.4864E+01   energy=  -2.0049E-02   setid =    1769 xmoment=   0.0000E+00 ymoment=   0.0000E+00 zmoment=   0.0000E+00
 nd#    1770  xforce=   0.0000E+00   yforce=   0.0000E+00  zforce=   4.7307E+01   energy=  -2.7664E-02   setid =    1770 xmoment=   0.0000E+00 ymoment=   0.0000E+00 zmoment=   0.0000E+00
 nd#    1771  xforce=   0.0000E+00   yforce=   0.0000E+00  zforce=   5.7836E+01   energy=  -3.5236E-02   setid =    1771 xmoment=   0.0000E+00 ymoment=   0.0000E+00 zmoment=   0.0000E+00
 nd#    1772  xforce=   0.0000E+00   yforce=   0.0000E+00  zforce=   6.3141E+01   energy=  -4.0665E-02   setid =    1772 xmoment=   0.0000E+00 ymoment=   0.0000E+00 zmoment=   0.0000E+00
 nd#    1773  xforce=   0.0000E+00   yforce=   0.0000E+00  zforce=   6.5709E+01   energy=  -5.0738E-02   setid =    1773 xmoment=   0.0000E+00 ymoment=   0.0000E+00 zmoment=   0.0000E+00
 nd#    1774  xforce=   0.0000E+00   yforce=   0.0000E+00  zforce=   3.0755E+01   energy=  -2.8628E-02   setid =    1774 xmoment=   0.0000E+00 ymoment=   0.0000E+00 zmoment=   0.0000E+00
              xtotal=   0.0000E+00   ytotal=   0.0000E+00  ztotal=  -6.0689E+03   etotal=   3.2837E+00

 n o d a l   f o r c e/e n e r g y    o u t p u t  t=   1.00000E+02

 velocity boundary condition forces/rigid body moments 

 nd#     354  xforce=   0.0000E+00   yforce=   0.0000E+00  zforce=  -6.2224E+01   energy=   3.5614E-02   setid =     354 xmoment=   0.0000E+00 ymoment=   0.0000E+00 zmoment=   0.0000E+00
 nd#     355  xforce=   0.0000E+00   yforce=   0.0000E+00  zforce=  -6.1854E+01   energy=   3.7336E-02   setid =     355 xmoment=   0.0000E+00 ymoment=   0.0000E+00 zmoment=   0.0000E+00
 nd#     356  xforce=   0.0000E+00   yforce=   0.0000E+00  zforce=  -5.2895E+01   energy=   2.5213E-02   setid =     356 xmoment=   0.0000E+00 ymoment=   0.0000E+00 zmoment=   0.0000E+00
 nd#     357  xforce=   0.0000E+00   yforce=   0.0000E+00  zforce=  -7.5323E+01   energy=   3.4784E-02   setid =     357 xmoment=   0.0000E+00 ymoment=   0.0000E+00 zmoment=   0.0000E+00
 nd#     403  xforce=   0.0000E+00   yforce=   0.0000E+00  zforce=  -4.6885E+01   energy=   2.4026E-02   setid =     403 xmoment=   0.0000E+00 ymoment=   0.0000E+00 zmoment=   0.0000E+00
 nd#     404  xforce=   0.0000E+00   yforce=   0.0000E+00  zforce=  -8.5838E+01   energy=   4.2146E-02   setid =     404 xmoment=   0.0000E+00 ymoment=   0.0000E+00 zmoment=   0.0000E+00
 nd#     405  xforce=   0.0000E+00   yforce=   0.0000E+00  zforce=  -2.4645E+01   energy=   1.8644E-02   setid =     405 xmoment=   0.0000E+00 ymoment=   0.0000E+00 zmoment=   0.0000E+00
 nd#     466  xforce=   0.0000E+00   yforce=   0.0000E+00  zforce=  -5.1566E+01   energy=   2.4742E-02   setid =     466 xmoment=   0.0000E+00 ymoment=   0.0000E+00 zmoment=   0.0000E+00
 nd#     467  xforce=   0.0000E+00   yforce=   0.0000E+00  zforce=   6.5702E+00   energy=   6.9660E-03   setid =     467 xmoment=   0.0000E+00 ymoment=   0.0000E+00 zmoment=   0.0000E+00
 nd#     468  xforce=   0.0000E+00   yforce=   0.0000E+00  zforce=  -4.3566E+01   energy=   2.6817E-02   setid =     468 xmoment=   0.0000E+00 ymoment=   0.0000E+00 zmoment=   0.0000E+00
 nd#     469  xforce=   0.0000E+00   yforce=   0.0000E+00  zforce=  -4.9524E+01   energy=   2.4438E-02   setid =     469 xmoment=   0.0000E+00 ymoment=   0.0000E+00 zmoment=   0.0000E+00
 nd#     530  xforce=   0.0000E+00   yforce=   0.0000E+00  zforce=   1.2511E+01   energy=   3.0822E-03   setid =     530 xmoment=   0.0000E+00 ymoment=   0.0000E+00 zmoment=   0.0000E+00
 nd#     531  xforce=   0.0000E+00   yforce=   0.0000E+00  zforce=  -3.5610E+00   energy=   1.4002E-02   setid =     531 xmoment=   0.0000E+00 ymoment=   0.0000E+00 zmoment=   0.0000E+00
 nd#     532  xforce=   0.0000E+00   yforce=   0.0000E+00  zforce=   1.3409E+01   energy=  -7.4490E-03   setid =     532 xmoment=   0.0000E+00 ymoment=   0.0000E+00 zmoment=   0.0000E+00
 nd#     533  xforce=   0.0000E+00   yforce=   0.0000E+00  zforce=   2.6642E+01   energy=  -1.4768E-02   setid =     533 xmoment=   0.0000E+00 ymoment=   0.0000E+00 zmoment=   0.0000E+00
 nd#     549  xforce=   0.0000E+00   yforce=   0.0000E+00  zforce=   1.5744E+01   energy=  -3.3845E-03   setid =     549 xmoment=   0.0000E+00 ymoment=   0.0000E+00 zmoment=   0.0000E+00
 nd#     610  xforce=   0.0000E+00   yforce=   0.0000E+00  zforce=  -1.0502E+02   energy=   5.1527E-02   setid =     610 xmoment=   0.0000E+00 ymoment=   0.0000E+00 zmoment=   0.0000E+00
 nd#     611  xforce=   0.0000E+00   yforce=   0.0000E+00  zforce=  -8.9243E+01   energy=   4.1079E-02   setid =     611 xmoment=   0.0000E+00 ymoment=   0.0000E+00 zmoment=   0.0000E+00
 nd#     612  xforce=   0.0000E+00   yforce=   0.0000E+00  zforce=  -1.1646E+02   energy=   6.1534E-02   setid =     612 xmoment=   0.0000E+00 ymoment=   0.0000E+00 zmoment=   0.0000E+00
 nd#     613  xforce=   0.0000E+00   yforce=   0.0000E+00  zforce=  -1.3830E+02   energy=   7.2833E-02   setid =     613 xmoment=   0.0000E+00 ymoment=   0.0000E+00 zmoment=   0.0000E+00
 nd#     629  xforce=   0.0000E+00   yforce=   0.0000E+00  zforce=  -8.9697E+01   energy=   4.2407E-02   setid =     629 xmoment=   0.0000E+00 ymoment=   0.0000E+00 zmoment=   0.0000E+00
 nd#     660  xforce=   0.0000E+00   yforce=   0.0000E+00  zforce=  -1.0942E+02   energy=   4.8395E-02   setid =     660 xmoment=   0.0000E+00 ymoment=   0.0000E+00 zmoment=   0.0000E+00
 nd#     661  xforce=   0.0000E+00   yforce=   0.0000E+00  zforce=  -8.7528E+01   energy=   3.1932E-02   setid =     661 xmoment=   0.0000E+00 ymoment=   0.0000E+00 zmoment=   0.0000E+00
 nd#     692  xforce=   0.0000E+00   yforce=   0.0000E+00  zforce=  -1.2332E+02   energy=   6.4590E-02   setid =     692 xmoment=   0.0000E+00 ymoment=   0.0000E+00 zmoment=   0.0000E+00
 nd#     693  xforce=   0.0000E+00   yforce=   0.0000E+00  zforce=  -1.0427E+02   energy=   5.6371E-02   setid =     693 xmoment=   0.0000E+00 ymoment=   0.0000E+00 zmoment=   0.0000E+00
 nd#     724  xforce=   0.0000E+00   yforce=   0.0000E+00  zforce=  -9.1538E+01   energy=   4.0235E-02   setid =     724 xmoment=   0.0000E+00 ymoment=   0.0000E+00 zmoment=   0.0000E+00
 nd#     725  xforce=   0.0000E+00   yforce=   0.0000E+00  zforce=  -6.2320E+01   energy=   4.0644E-02   setid =     725 xmoment=   0.0000E+00 ymoment=   0.0000E+00 zmoment=   0.0000E+00
 nd#     771  xforce=   0.0000E+00   yforce=   0.0000E+00  zforce=   7.1975E+01   energy=  -2.0890E-02   setid =     771 xmoment=   0.0000E+00 ymoment=   0.0000E+00 zmoment=   0.0000E+00
 nd#     772  xforce=   0.0000E+00   yforce=   0.0000E+00  zforce=  -8.6307E+01   energy=   3.6905E-02   setid =     772 xmoment=   0.0000E+00 ymoment=   0.0000E+00 zmoment=   0.0000E+00
 nd#     773  xforce=   0.0000E+00   yforce=   0.0000E+00  zforce=  -5.2676E+01   energy=   2.3940E-02   setid =     773 xmoment=   0.0000E+00 ymoment=   0.0000E+00 zmoment=   0.0000E+00
 nd#     804  xforce=   0.0000E+00   yforce=   0.0000E+00  zforce=  -6.9028E+01   energy=   3.7503E-02   setid =     804 xmoment=   0.0000E+00 ymoment=   0.0000E+00 zmoment=   0.0000E+00
 nd#     805  xforce=   0.0000E+00   yforce=   0.0000E+00  zforce=  -6.9283E+01   energy=   4.0089E-02   setid =     805 xmoment=   0.0000E+00 ymoment=   0.0000E+00 zmoment=   0.0000E+00
 nd#     821  xforce=   0.0000E+00   yforce=   0.0000E+00  zforce=  -7.0645E+01   energy=   4.1168E-02   setid =     821 xmoment=   0.0000E+00 ymoment=   0.0000E+00 zmoment=   0.0000E+00
 nd#     852  xforce=   0.0000E+00   yforce=   0.0000E+00  zforce=   5.2060E+01   energy=  -2.2818E-02   setid =     852 xmoment=   0.0000E+00 ymoment=   0.0000E+00 zmoment=   0.0000E+00
 nd#     853  xforce=   0.0000E+00   yforce=   0.0000E+00  zforce=  -4.4579E+00   energy=   3.3450E-03   setid =     853 xmoment=   0.0000E+00 ymoment=   0.0000E+00 zmoment=   0.0000E+00
 nd#     869  xforce=   0.0000E+00   yforce=   0.0000E+00  zforce=  -4.6442E+01   energy=   2.9850E-02   setid =     869 xmoment=   0.0000E+00 ymoment=   0.0000E+00 zmoment=   0.0000E+00
 nd#     885  xforce=   0.0000E+00   yforce=   0.0000E+00  zforce=  -4.8013E+01   energy=   3.1283E-02   setid =     885 xmoment=   0.0000E+00 ymoment=   0.0000E+00 zmoment=   0.0000E+00
 nd#    1082  xforce=   0.0000E+00   yforce=   0.0000E+00  zforce=   2.8612E+01   energy=  -1.3344E-02   setid =    1082 xmoment=   0.0000E+00 ymoment=   0.0000E+00 zmoment=   0.0000E+00
 nd#    1083  xforce=   0.0000E+00   yforce=   0.0000E+00  zforce=  -2.1136E+01   energy=   1.8071E-02   setid =    1083 xmoment=   0.0000E+00 ymoment=   0.0000E+00 zmoment=   0.0000E+00
 nd#    1084  xforce=   0.0000E+00   yforce=   0.0000E+00  zforce=  -4.0575E+01   energy=   2.7638E-02   setid =    1084 xmoment=   0.0000E+00 ymoment=   0.0000E+00 zmoment=   0.0000E+00
 nd#    1085  xforce=   0.0000E+00   yforce=   0.0000E+00  zforce=  -5.8927E+01   energy=   3.5638E-02   setid =    1085 xmoment=   0.0000E+00 ymoment=   0.0000E+00 zmoment=   0.0000E+00
 nd#    1086  xforce=   0.0000E+00   yforce=   0.0000E+00  zforce=  -6.9009E+01   energy=   4.0285E-02   setid =    1086 xmoment=   0.0000E+00 ymoment=   0.0000E+00 zmoment=   0.0000E+00
 nd#    1087  xforce=   0.0000E+00   yforce=   0.0000E+00  zforce=  -7.0434E+01   energy=   4.1510E-02   setid =    1087 xmoment=   0.0000E+00 ymoment=   0.0000E+00 zmoment=   0.0000E+00
 nd#    1649  xforce=   0.0000E+00   yforce=   0.0000E+00  zforce=  -1.3070E+02   energy=   7.1800E-02   setid =    1649 xmoment=   0.0000E+00 ymoment=   0.0000E+00 zmoment=   0.0000E+00
 nd#    1651  xforce=   0.0000E+00   yforce=   0.0000E+00  zforce=  -1.6725E+02   energy=   8.9892E-02   setid =    1651 xmoment=   0.0000E+00 ymoment=   0.0000E+00 zmoment=   0.0000E+00
 nd#    1653  xforce=   0.0000E+00   yforce=   0.0000E+00  zforce=  -1.5769E+02   energy=   8.5444E-02   setid =    1653 xmoment=   0.0000E+00 ymoment=   0.0000E+00 zmoment=   0.0000E+00
 nd#    1655  xforce=   0.0000E+00   yforce=   0.0000E+00  zforce=  -1.4528E+02   energy=   8.1981E-02   setid =    1655 xmoment=   0.0000E+00 ymoment=   0.0000E+00 zmoment=   0.0000E+00
 nd#    1657  xforce=   0.0000E+00   yforce=   0.0000E+00  zforce=  -1.1389E+02   energy=   6.7600E-02   setid =    1657 xmoment=   0.0000E+00 ymoment=   0.0000E+00 zmoment=   0.0000E+00
 nd#    1659  xforce=   0.0000E+00   yforce=   0.0000E+00  zforce=  -6.4899E+01   energy=   3.5568E-02   setid =    1659 xmoment=   0.0000E+00 ymoment=   0.0000E+00 zmoment=   0.0000E+00
 nd#    1733  xforce=   0.0000E+00   yforce=   0.0000E+00  zforce=  -1.2756E+02   energy=   7.3876E-02   setid =    1733 xmoment=   0.0000E+00 ymoment=   0.0000E+00 zmoment=   0.0000E+00
 nd#    1734  xforce=   0.0000E+00   yforce=   0.0000E+00  zforce=  -1.0456E+02   energy=   6.2658E-02   setid =    1734 xmoment=   0.0000E+00 ymoment=   0.0000E+00 zmoment=   0.0000E+00
 nd#    1735  xforce=   0.0000E+00   yforce=   0.0000E+00  zforce=  -1.8707E+02   energy=   1.0106E-01   setid =    1735 xmoment=   0.0000E+00 ymoment=   0.0000E+00 zmoment=   0.0000E+00
 nd#    1736  xforce=   0.0000E+00   yforce=   0.0000E+00  zforce=  -1.5562E+02   energy=   8.8704E-02   setid =    1736 xmoment=   0.0000E+00 ymoment=   0.0000E+00 zmoment=   0.0000E+00
 nd#    1737  xforce=   0.0000E+00   yforce=   0.0000E+00  zforce=  -1.8637E+02   energy=   1.0319E-01   setid =    1737 xmoment=   0.0000E+00 ymoment=   0.0000E+00 zmoment=   0.0000E+00
 nd#    1738  xforce=   0.0000E+00   yforce=   0.0000E+00  zforce=  -1.6558E+02   energy=   9.7383E-02   setid =    1738 xmoment=   0.0000E+00 ymoment=   0.0000E+00 zmoment=   0.0000E+00
 nd#    1739  xforce=   0.0000E+00   yforce=   0.0000E+00  zforce=  -1.8294E+02   energy=   1.0698E-01   setid =    1739 xmoment=   0.0000E+00 ymoment=   0.0000E+00 zmoment=   0.0000E+00
 nd#    1740  xforce=   0.0000E+00   yforce=   0.0000E+00  zforce=  -1.3460E+02   energy=   8.9618E-02   setid =    1740 xmoment=   0.0000E+00 ymoment=   0.0000E+00 zmoment=   0.0000E+00
 nd#    1741  xforce=   0.0000E+00   yforce=   0.0000E+00  zforce=  -1.1192E+02   energy=   7.9926E-02   setid =    1741 xmoment=   0.0000E+00 ymoment=   0.0000E+00 zmoment=   0.0000E+00
 nd#    1742  xforce=   0.0000E+00   yforce=   0.0000E+00  zforce=  -3.9125E+01   energy=   4.6277E-02   setid =    1742 xmoment=   0.0000E+00 ymoment=   0.0000E+00 zmoment=   0.0000E+00
 nd#    1743  xforce=   0.0000E+00   yforce=   0.0000E+00  zforce=  -4.7037E+01   energy=   3.2885E-02   setid =    1743 xmoment=   0.0000E+00 ymoment=   0.0000E+00 zmoment=   0.0000E+00
 nd#    1744  xforce=   0.0000E+00   yforce=   0.0000E+00  zforce=  -2.6521E+00   energy=   1.0030E-02   setid =    1744 xmoment=   0.0000E+00 ymoment=   0.0000E+00 zmoment=   0.0000E+00
 nd#    1751  xforce=   0.0000E+00   yforce=   0.0000E+00  zforce=  -1.4753E+02   energy=   8.0634E-02   setid =    1751 xmoment=   0.0000E+00 ymoment=   0.0000E+00 zmoment=   0.0000E+00
 nd#    1752  xforce=   0.0000E+00   yforce=   0.0000E+00  zforce=  -1.4505E+02   energy=   8.0646E-02   setid =    1752 xmoment=   0.0000E+00 ymoment=   0.0000E+00 zmoment=   0.0000E+00
 nd#    1753  xforce=   0.0000E+00   yforce=   0.0000E+00  zforce=  -1.9297E+02   energy=   1.0204E-01   setid =    1753 xmoment=   0.0000E+00 ymoment=   0.0000E+00 zmoment=   0.0000E+00
 nd#    1754  xforce=   0.0000E+00   yforce=   0.0000E+00  zforce=  -1.9984E+02   energy=   1.0551E-01   setid =    1754 xmoment=   0.0000E+00 ymoment=   0.0000E+00 zmoment=   0.0000E+00
 nd#    1755  xforce=   0.0000E+00   yforce=   0.0000E+00  zforce=  -1.8142E+02   energy=   9.7929E-02   setid =    1755 xmoment=   0.0000E+00 ymoment=   0.0000E+00 zmoment=   0.0000E+00
 nd#    1756  xforce=   0.0000E+00   yforce=   0.0000E+00  zforce=  -1.9115E+02   energy=   1.0403E-01   setid =    1756 xmoment=   0.0000E+00 ymoment=   0.0000E+00 zmoment=   0.0000E+00
 nd#    1757  xforce=   0.0000E+00   yforce=   0.0000E+00  zforce=  -1.6966E+02   energy=   9.5616E-02   setid =    1757 xmoment=   0.0000E+00 ymoment=   0.0000E+00 zmoment=   0.0000E+00
 nd#    1758  xforce=   0.0000E+00   yforce=   0.0000E+00  zforce=  -1.8689E+02   energy=   1.0576E-01   setid =    1758 xmoment=   0.0000E+00 ymoment=   0.0000E+00 zmoment=   0.0000E+00
 nd#    1759  xforce=   0.0000E+00   yforce=   0.0000E+00  zforce=  -1.2506E+02   energy=   7.6830E-02   setid =    1759 xmoment=   0.0000E+00 ymoment=   0.0000E+00 zmoment=   0.0000E+00
 nd#    1760  xforce=   0.0000E+00   yforce=   0.0000E+00  zforce=  -1.3096E+02   energy=   8.3628E-02   setid =    1760 xmoment=   0.0000E+00 ymoment=   0.0000E+00 zmoment=   0.0000E+00
 nd#    1761  xforce=   0.0000E+00   yforce=   0.0000E+00  zforce=  -6.1120E+01   energy=   3.5847E-02   setid =    1761 xmoment=   0.0000E+00 ymoment=   0.0000E+00 zmoment=   0.0000E+00
 nd#    1762  xforce=   0.0000E+00   yforce=   0.0000E+00  zforce=  -5.8470E+01   energy=   3.6395E-02   setid =    1762 xmoment=   0.0000E+00 ymoment=   0.0000E+00 zmoment=   0.0000E+00
 nd#    1769  xforce=   0.0000E+00   yforce=   0.0000E+00  zforce=   3.3462E+01   energy=  -2.0251E-02   setid =    1769 xmoment=   0.0000E+00 ymoment=   0.0000E+00 zmoment=   0.0000E+00
 nd#    1770  xforce=   0.0000E+00   yforce=   0.0000E+00  zforce=   4.5676E+01   energy=  -2.7938E-02   setid =    1770 xmoment=   0.0000E+00 ymoment=   0.0000E+00 zmoment=   0.0000E+00
 nd#    1771  xforce=   0.0000E+00   yforce=   0.0000E+00  zforce=   5.6134E+01   energy=  -3.5572E-02   setid =    1771 xmoment=   0.0000E+00 ymoment=   0.0000E+00 zmoment=   0.0000E+00
 nd#    1772  xforce=   0.0000E+00   yforce=   0.0000E+00  zforce=   6.1966E+01   energy=  -4.1035E-02   setid =    1772 xmoment=   0.0000E+00 ymoment=   0.0000E+00 zmoment=   0.0000E+00
 nd#    1773  xforce=   0.0000E+00   yforce=   0.0000E+00  zforce=   5.6643E+01   energy=  -5.1100E-02   setid =    1773 xmoment=   0.0000E+00 ymoment=   0.0000E+00 zmoment=   0.0000E+00
 nd#    1774  xforce=   0.0000E+00   yforce=   0.0000E+00  zforce=   2.4690E+01   energy=  -2.8792E-02   setid =    1774 xmoment=   0.0000E+00 ymoment=   0.0000E+00 zmoment=   0.0000E+00
              xtotal=   0.0000E+00   ytotal=   0.0000E+00  ztotal=  -5.8907E+03   etotal=   3.3190E+00
