 LS-DYNA keyword deck by LS-PrePost                                      
                    ls-dyna smp d R14 R14.1.1s_1_ef50e1 date 06/16/2024



 e l e m e n t   s t r e s s   c a l c u l a t i o n s   f o r   t i m e  s t e p        1   ( at time 0.00000E+00 )

 element  materl
     ipt  stress       sig-xx      sig-yy      sig-zz      sig-xy      sig-yz      sig-zx                       yield
           state                                                                                  effsg      function
      45-      1
       1          -1.9509E-06 -1.9509E-06 -1.9509E-06  0.0000E+00  0.0000E+00  0.0000E+00    0.0000E+00    0.0000E+00
      47-      1
       1          -1.9509E-06 -1.9509E-06 -1.9509E-06  0.0000E+00  0.0000E+00  0.0000E+00    0.0000E+00    0.0000E+00
      53-      1
       1          -3.9019E-06 -3.9019E-06 -3.9019E-06  0.0000E+00  0.0000E+00  0.0000E+00    0.0000E+00    0.0000E+00
      61-      1
       1           0.0000E+00  0.0000E+00  0.0000E+00  0.0000E+00  0.0000E+00  0.0000E+00    0.0000E+00    0.0000E+00
      67-      1
       1          -3.9019E-06 -3.9019E-06 -3.9019E-06  0.0000E+00  0.0000E+00  0.0000E+00    0.0000E+00    0.0000E+00
      79-      1
       1           0.0000E+00  0.0000E+00  0.0000E+00  0.0000E+00  0.0000E+00  0.0000E+00    0.0000E+00    0.0000E+00
      81-      1
       1          -1.9509E-06 -1.9509E-06 -1.9509E-06  0.0000E+00  0.0000E+00  0.0000E+00    0.0000E+00    0.0000E+00



 e l e m e n t   s t r a i n   c a l c u l a t i o n s   f o r   t i m e  s t e p        1   ( at time  0.00000E+00 )

 element  strain       eps-xx      eps-yy      eps-zz      eps-xy      eps-yz      eps-zx                            yield
 num/ipt   state
      45-      1
      1            0.0000E+00  0.0000E+00  0.0000E+00  0.0000E+00  0.0000E+00  0.0000E+00
      47-      1
      1            0.0000E+00  0.0000E+00  0.0000E+00  0.0000E+00  0.0000E+00  0.0000E+00
      53-      1
      1            0.0000E+00  0.0000E+00  0.0000E+00  0.0000E+00  0.0000E+00  0.0000E+00
      61-      1
      1            0.0000E+00  0.0000E+00  0.0000E+00  0.0000E+00  0.0000E+00  0.0000E+00
      67-      1
      1            0.0000E+00  0.0000E+00  0.0000E+00  0.0000E+00  0.0000E+00  0.0000E+00
      79-      1
      1            0.0000E+00  0.0000E+00  0.0000E+00  0.0000E+00  0.0000E+00  0.0000E+00
      81-      1
      1            0.0000E+00  0.0000E+00  0.0000E+00  0.0000E+00  0.0000E+00  0.0000E+00



 e l e m e n t   s t r e s s   c a l c u l a t i o n s   f o r   t i m e  s t e p        6   ( at time 2.50000E+00 )

 element  materl
     ipt  stress       sig-xx      sig-yy      sig-zz      sig-xy      sig-yz      sig-zx                       yield
           state                                                                                  effsg      function
      45-      1
       1          -2.4122E+07 -4.2056E+07 -1.5864E+08  1.0124E+07 -8.5538E+06 -1.8183E+07    1.3238E+08    0.0000E+00
      47-      1
       1          -3.8609E+07 -3.0687E+07 -1.6003E+08  1.3010E+07 -1.6669E+07 -1.1928E+07    1.3243E+08    0.0000E+00
      53-      1
       1          -3.1852E+07 -3.6790E+07 -1.6056E+08  1.3743E+07 -1.3474E+07 -1.5708E+07    1.3344E+08    0.0000E+00
      61-      1
       1          -1.9411E+07 -4.5436E+07 -1.5834E+08  3.8174E+06 -2.9673E+06 -1.9854E+07    1.3273E+08    0.0000E+00
      67-      1
       1          -4.2844E+07 -2.5412E+07 -1.5707E+08  9.4652E+06 -1.8455E+07 -7.0284E+06    1.2954E+08    0.0000E+00
      79-      1
       1          -3.6131E+07 -3.5995E+07 -7.9974E+07  1.5298E+05  4.2983E+04  1.2602E+03    4.3913E+07    0.0000E+00
      81-      1
       1          -4.4519E+07 -2.0665E+07 -1.5560E+08  3.7564E+06 -1.9840E+07 -2.2856E+06    1.2960E+08    0.0000E+00



 e l e m e n t   s t r a i n   c a l c u l a t i o n s   f o r   t i m e  s t e p        6   ( at time  2.50000E+00 )

 element  strain       eps-xx      eps-yy      eps-zz      eps-xy      eps-yz      eps-zx                            yield
 num/ipt   state
      45-      1
      1            6.1400E-04  2.7160E-04 -1.9534E-03  1.9325E-04 -1.6319E-04 -3.4678E-04
      47-      1
      1            3.5908E-04  5.1018E-04 -1.9582E-03  2.4831E-04 -3.1799E-04 -2.2747E-04
      53-      1
      1            4.8745E-04  3.9306E-04 -1.9690E-03  2.6231E-04 -2.5706E-04 -2.9957E-04
      61-      1
      1            6.9609E-04  1.9931E-04 -1.9556E-03  7.2861E-05 -5.6614E-05 -3.7864E-04
      67-      1
      1            2.5910E-04  5.9180E-04 -1.9209E-03  1.8068E-04 -3.5204E-04 -1.3404E-04
      79-      1
      1            3.7585E-05  4.0185E-05 -7.9913E-04  2.9194E-06  8.2475E-07  2.8547E-08
      81-      1
      1            2.0537E-04  6.6071E-04 -1.9147E-03  7.1713E-05 -3.7844E-04 -4.3587E-05



 e l e m e n t   s t r e s s   c a l c u l a t i o n s   f o r   t i m e  s t e p       10   ( at time 6.46223E+00 )

 element  materl
     ipt  stress       sig-xx      sig-yy      sig-zz      sig-xy      sig-yz      sig-zx                       yield
           state                                                                                  effsg      function
      45-      1
       1          -7.9601E+07 -1.2090E+08 -3.3695E+08  2.3645E+07 -1.6262E+07 -3.5085E+07    2.5193E+08    6.2595E-04
      47-      1
       1          -1.1306E+08 -9.5272E+07 -3.3927E+08  3.0288E+07 -3.0160E+07 -2.2403E+07    2.5000E+08    6.3664E-04
      53-      1
       1          -9.7993E+07 -1.1046E+08 -3.4004E+08  3.1617E+07 -2.4586E+07 -2.9356E+07    2.5124E+08    6.4456E-04
      61-      1
       1          -6.8047E+07 -1.2716E+08 -3.3172E+08  9.0196E+06 -5.6989E+06 -3.8388E+07    2.4938E+08    6.5286E-04
      67-      1
       1          -1.2043E+08 -7.9019E+07 -3.3739E+08  2.2783E+07 -3.5159E+07 -1.3722E+07    2.5219E+08    5.7901E-04
      79-      1
       1          -9.5658E+07 -9.4734E+07 -2.1053E+08  6.5110E+05  1.1372E+05 -4.4525E+04    1.1534E+08    0.0000E+00
      81-      1
       1          -1.2190E+08 -6.5455E+07 -3.2891E+08  9.2549E+06 -3.8324E+07 -4.4513E+06    2.4989E+08    5.9750E-04



 e l e m e n t   s t r a i n   c a l c u l a t i o n s   f o r   t i m e  s t e p       10   ( at time  6.46223E+00 )

 element  strain       eps-xx      eps-yy      eps-zz      eps-xy      eps-yz      eps-zx                            yield
 num/ipt   state
      45-      1
      1            2.0379E-03  8.6751E-04 -5.4609E-03  6.7425E-04 -4.9943E-04 -1.0446E-03
      47-      1
      1            1.1777E-03  1.6779E-03 -5.4577E-03  8.7937E-04 -9.5847E-04 -6.9289E-04
      53-      1
      1            1.6209E-03  1.2682E-03 -5.4959E-03  9.1642E-04 -7.8052E-04 -8.9748E-04
      61-      1
      1            2.3388E-03  6.3079E-04 -5.4761E-03  2.6076E-04 -1.7284E-04 -1.1454E-03
      67-      1
      1            8.2742E-04  1.9681E-03 -5.3470E-03  6.4092E-04 -1.0672E-03 -4.1666E-04
      79-      1
      1            9.1331E-05  1.0896E-04 -2.1009E-03  1.2424E-05  2.1697E-06 -8.4924E-07
      81-      1
      1            6.4241E-04  2.2258E-03 -5.3234E-03  2.6313E-04 -1.1492E-03 -1.3701E-04



 e l e m e n t   s t r e s s   c a l c u l a t i o n s   f o r   t i m e  s t e p      163   ( at time 9.37702E+00 )

 element  materl
     ipt  stress       sig-xx      sig-yy      sig-zz      sig-xy      sig-yz      sig-zx                       yield
           state                                                                                  effsg      function
      45-      1
       1          -1.2404E+08 -1.6347E+08 -3.1692E+08  1.6638E+07 -1.6736E+07 -2.1970E+07    1.8512E+08    1.3712E-02
      47-      1
       1          -9.1779E+07 -8.3392E+07 -2.7534E+08  2.9734E+07 -2.2185E+07 -2.7095E+07    2.0405E+08    1.1629E-02
      53-      1
       1          -1.1597E+08 -1.1512E+08 -2.7876E+08  2.7661E+07 -1.7579E+07 -1.8578E+07    1.7577E+08    1.3012E-02
      61-      1
       1          -4.1997E+07 -6.5515E+07 -2.1117E+08  1.7557E+07 -4.1598E+06 -2.9046E+07    1.6941E+08    2.9416E-02
      67-      1
       1          -7.6769E+07 -3.4869E+07 -2.9056E+08  1.9754E+07 -4.1508E+07 -2.6020E+07    2.5454E+08    9.2162E-03
      79-      1
       1          -1.5826E+08 -1.6406E+08 -3.0489E+08  2.5784E+07 -1.3917E+07 -1.5477E+06    1.5253E+08    7.7712E-04
      81-      1
       1          -4.1330E+07 -5.7309E+06 -2.0470E+08  4.6715E+06 -3.8602E+07 -3.7212E+06    1.9583E+08    1.7838E-02



 e l e m e n t   s t r a i n   c a l c u l a t i o n s   f o r   t i m e  s t e p      163   ( at time  9.37702E+00 )

 element  strain       eps-xx      eps-yy      eps-zz      eps-xy      eps-yz      eps-zx                            yield
 num/ipt   state
      45-      1
      1            7.1012E-03  2.9804E-03 -1.2997E-02  1.6308E-03 -1.9379E-03 -2.6765E-03
      47-      1
      1            4.6971E-03  5.2217E-03 -1.2093E-02  2.6538E-03 -2.3101E-03 -2.4086E-03
      53-      1
      1            4.6386E-03  4.7311E-03 -1.1820E-02  2.7105E-03 -2.0962E-03 -2.1247E-03
      61-      1
      1            9.6491E-03  5.1932E-03 -1.6481E-02  2.2552E-03  2.1463E-04 -4.4009E-03
      67-      1
      1            3.8554E-03  7.0003E-03 -1.2811E-02  1.5951E-03 -3.3165E-03 -1.9936E-03
      79-      1
      1            4.0973E-04  2.5651E-04 -3.6306E-03  7.4152E-04 -4.1827E-04 -1.9480E-04
      81-      1
      1            4.5445E-03  8.7026E-03 -1.4546E-02  7.5323E-04 -5.3097E-03 -5.8514E-04



 e l e m e n t   s t r e s s   c a l c u l a t i o n s   f o r   t i m e  s t e p      169   ( at time 1.08379E+01 )

 element  materl
     ipt  stress       sig-xx      sig-yy      sig-zz      sig-xy      sig-yz      sig-zx                       yield
           state                                                                                  effsg      function
      45-      1
       1          -1.0760E+08 -1.4050E+08 -3.4538E+08  1.9251E+07 -1.9472E+07 -1.9813E+07    2.3070E+08    1.6752E-02
      47-      1
       1          -8.5775E+07 -7.1565E+07 -2.9097E+08  2.8500E+07 -2.4954E+07 -2.4621E+07    2.2660E+08    1.4982E-02
      53-      1
       1          -1.1115E+08 -1.0638E+08 -3.1157E+08  2.8060E+07 -1.9091E+07 -2.1575E+07    2.1447E+08    1.6414E-02
      61-      1
       1          -6.9119E+07 -1.0447E+08 -2.9813E+08  1.0507E+07 -5.6444E+06 -1.4321E+07    2.1596E+08    3.2024E-02
      67-      1
       1          -7.3089E+07 -3.3995E+07 -2.9941E+08  1.8894E+07 -4.0581E+07 -2.3114E+07    2.6308E+08    1.2498E-02
      79-      1
       1          -1.6578E+08 -1.7641E+08 -3.6292E+08  2.0173E+07 -1.2028E+07 -2.8501E+06    1.9637E+08    1.6307E-03
      81-      1
       1          -3.4969E+07  5.7268E+06 -2.4610E+08  5.3279E+06 -4.7211E+07 -4.8272E+06    2.4833E+08    2.0974E-02



 e l e m e n t   s t r a i n   c a l c u l a t i o n s   f o r   t i m e  s t e p      169   ( at time  1.08379E+01 )

 element  strain       eps-xx      eps-yy      eps-zz      eps-xy      eps-yz      eps-zx                            yield
 num/ipt   state
      45-      1
      1            8.8652E-03  4.2507E-03 -1.5986E-02  1.9596E-03 -2.1845E-03 -2.9222E-03
      47-      1
      1            5.9640E-03  6.8540E-03 -1.4987E-02  3.1556E-03 -2.7065E-03 -2.7594E-03
      53-      1
      1            6.0377E-03  6.2515E-03 -1.4837E-02  3.2295E-03 -2.3774E-03 -2.5330E-03
      61-      1
      1            1.1791E-02  6.2516E-03 -1.9739E-02  2.1351E-03  3.1475E-04 -4.9276E-03
      67-      1
      1            5.0640E-03  8.8330E-03 -1.5879E-02  1.9192E-03 -4.0349E-03 -2.3502E-03
      79-      1
      1            1.0093E-03  6.9668E-04 -5.0398E-03  7.3979E-04 -4.1269E-04 -2.5946E-04
      81-      1
      1            5.7277E-03  1.0653E-02 -1.7799E-02  8.6124E-04 -6.2484E-03 -6.8870E-04



 e l e m e n t   s t r e s s   c a l c u l a t i o n s   f o r   t i m e  s t e p      177   ( at time 1.31532E+01 )

 element  materl
     ipt  stress       sig-xx      sig-yy      sig-zz      sig-xy      sig-yz      sig-zx                       yield
           state                                                                                  effsg      function
      45-      1
       1          -1.1437E+08 -1.3973E+08 -3.6478E+08  1.6066E+07 -1.7808E+07 -1.9217E+07    2.4460E+08    2.3623E-02
      47-      1
       1          -6.4364E+07 -5.2243E+07 -2.9481E+08  2.7000E+07 -2.4293E+07 -2.0462E+07    2.4751E+08    2.1244E-02
      53-      1
       1          -9.5429E+07 -9.2400E+07 -3.1528E+08  2.7741E+07 -1.8649E+07 -1.9519E+07    2.3131E+08    2.3230E-02
      61-      1
       1          -7.3791E+07 -1.0771E+08 -3.1469E+08  3.0298E+06 -6.4454E+06 -1.3047E+07    2.2733E+08    3.8979E-02
      67-      1
       1          -5.6321E+07 -2.0545E+07 -2.9878E+08  1.6537E+07 -3.7108E+07 -1.9460E+07    2.7355E+08    1.8957E-02
      79-      1
       1          -2.0176E+08 -2.0589E+08 -4.2606E+08  1.7132E+07 -1.1969E+07 -5.3668E+06    2.2539E+08    4.5004E-03
      81-      1
       1          -6.2835E+06  3.1255E+07 -2.4000E+08  5.3157E+06 -4.6229E+07 -4.4005E+06    2.6713E+08    2.8486E-02



 e l e m e n t   s t r a i n   c a l c u l a t i o n s   f o r   t i m e  s t e p      177   ( at time  1.31532E+01 )

 element  strain       eps-xx      eps-yy      eps-zz      eps-xy      eps-yz      eps-zx                            yield
 num/ipt   state
      45-      1
      1            1.2204E-02  6.7432E-03 -2.1964E-02  2.4503E-03 -2.6581E-03 -3.5577E-03
      47-      1
      1            8.6226E-03  9.8499E-03 -2.0489E-02  4.0519E-03 -3.3013E-03 -3.2618E-03
      53-      1
      1            8.8456E-03  9.0764E-03 -2.0369E-02  4.2312E-03 -2.7660E-03 -3.0763E-03
      61-      1
      1            1.6139E-02  8.7770E-03 -2.6665E-02  1.8690E-03  4.5800E-04 -6.0004E-03
      67-      1
      1            7.6086E-03  1.2531E-02 -2.2003E-02  2.4574E-03 -5.2164E-03 -2.9357E-03
      79-      1
      1            2.1894E-03  1.9263E-03 -8.0623E-03  9.7304E-04 -6.0414E-04 -4.3270E-04
      81-      1
      1            8.5192E-03  1.4841E-02 -2.4530E-02  1.0915E-03 -8.0191E-03 -8.5726E-04



 e l e m e n t   s t r e s s   c a l c u l a t i o n s   f o r   t i m e  s t e p      185   ( at time 1.54685E+01 )

 element  materl
     ipt  stress       sig-xx      sig-yy      sig-zz      sig-xy      sig-yz      sig-zx                       yield
           state                                                                                  effsg      function
      45-      1
       1          -1.0269E+08 -1.3208E+08 -3.7877E+08  1.6233E+07 -1.5705E+07 -2.3858E+07    2.6871E+08    2.9774E-02
      47-      1
       1          -5.5622E+07 -3.9521E+07 -3.0409E+08  2.7135E+07 -2.3861E+07 -1.9841E+07    2.6664E+08    2.7208E-02
      53-      1
       1          -9.1929E+07 -8.7084E+07 -3.3937E+08  2.8390E+07 -1.8237E+07 -2.0284E+07    2.5904E+08    2.8942E-02
      61-      1
       1          -5.3321E+07 -9.2107E+07 -3.0732E+08  5.1027E+05 -4.1409E+06 -2.0971E+07    2.3988E+08    4.6008E-02
      67-      1
       1          -5.3428E+07 -1.7752E+07 -3.0489E+08  1.6552E+07 -3.4607E+07 -1.9456E+07    2.8112E+08    2.5175E-02
      79-      1
       1          -2.2672E+08 -2.3026E+08 -4.6789E+08  1.3833E+07 -1.0516E+07 -6.2462E+06    2.4155E+08    7.6625E-03
      81-      1
       1          -7.9257E+06  2.8265E+07 -2.5452E+08  5.2240E+06 -4.5411E+07 -3.9539E+06    2.7814E+08    3.5320E-02



 e l e m e n t   s t r a i n   c a l c u l a t i o n s   f o r   t i m e  s t e p      185   ( at time  1.54685E+01 )

 element  strain       eps-xx      eps-yy      eps-zz      eps-xy      eps-yz      eps-zx                            yield
 num/ipt   state
      45-      1
      1            1.5662E-02  9.1501E-03 -2.7828E-02  2.9647E-03 -2.9982E-03 -4.3658E-03
      47-      1
      1            1.1150E-02  1.2929E-02 -2.6060E-02  4.9149E-03 -3.9438E-03 -3.8145E-03
      53-      1
      1            1.1398E-02  1.1775E-02 -2.5712E-02  5.0889E-03 -3.1711E-03 -3.6420E-03
      61-      1
      1            2.0928E-02  1.1411E-02 -3.3734E-02  1.6946E-03  5.7853E-04 -7.6684E-03
      67-      1
      1            1.0011E-02  1.6080E-02 -2.7984E-02  3.0093E-03 -6.2633E-03 -3.5452E-03
      79-      1
      1            3.5743E-03  3.2489E-03 -1.1206E-02  1.1565E-03 -7.4416E-04 -5.7908E-04
      81-      1
      1            1.1021E-02  1.8596E-02 -3.0910E-02  1.2826E-03 -9.5443E-03 -9.7350E-04



 e l e m e n t   s t r e s s   c a l c u l a t i o n s   f o r   t i m e  s t e p      193   ( at time 1.77838E+01 )

 element  materl
     ipt  stress       sig-xx      sig-yy      sig-zz      sig-xy      sig-yz      sig-zx                       yield
           state                                                                                  effsg      function
      45-      1
       1          -1.0185E+08 -1.2864E+08 -3.9045E+08  1.2365E+07 -1.2912E+07 -2.1861E+07    2.8048E+08    3.6205E-02
      47-      1
       1          -4.7465E+07 -3.1292E+07 -3.0875E+08  2.3229E+07 -2.1925E+07 -1.7767E+07    2.7706E+08    3.3340E-02
      53-      1
       1          -8.4242E+07 -7.7749E+07 -3.5062E+08  2.4795E+07 -1.6471E+07 -1.9539E+07    2.7664E+08    3.5067E-02
      61-      1
       1          -5.5639E+07 -9.2053E+07 -3.2190E+08 -1.4243E+06 -2.7276E+06 -2.4711E+07    2.5374E+08    5.2204E-02
      67-      1
       1          -5.0474E+07 -2.0363E+07 -3.1046E+08  1.4528E+07 -3.2074E+07 -1.6345E+07    2.8434E+08    3.1415E-02
      79-      1
       1          -2.5349E+08 -2.5154E+08 -5.0889E+08  1.0263E+07 -9.4274E+06 -7.4624E+06    2.5783E+08    1.1329E-02
      81-      1
       1           2.3406E+06  3.6450E+07 -2.5783E+08  4.7378E+06 -4.3758E+07 -3.1127E+06    2.8908E+08    4.1990E-02



 e l e m e n t   s t r a i n   c a l c u l a t i o n s   f o r   t i m e  s t e p      193   ( at time  1.77838E+01 )

 element  strain       eps-xx      eps-yy      eps-zz      eps-xy      eps-yz      eps-zx                            yield
 num/ipt   state
      45-      1
      1            1.9197E-02  1.1784E-02 -3.4061E-02  3.2841E-03 -3.2576E-03 -4.9994E-03
      47-      1
      1            1.3831E-02  1.6107E-02 -3.1889E-02  5.5923E-03 -4.5084E-03 -4.2942E-03
      53-      1
      1            1.4247E-02  1.4829E-02 -3.1614E-02  5.8053E-03 -3.5520E-03 -4.2114E-03
      61-      1
      1            2.5071E-02  1.4009E-02 -4.0651E-02  1.5142E-03  7.1364E-04 -8.7036E-03
      67-      1
      1            1.2561E-02  1.9491E-02 -3.3995E-02  3.4529E-03 -7.1998E-03 -3.9854E-03
      79-      1
      1            5.1811E-03  4.9890E-03 -1.4983E-02  1.3005E-03 -8.9105E-04 -7.5504E-04
      81-      1
      1            1.3680E-02  2.2391E-02 -3.7323E-02  1.4368E-03 -1.0916E-02 -1.0463E-03



 e l e m e n t   s t r e s s   c a l c u l a t i o n s   f o r   t i m e  s t e p      201   ( at time 2.00991E+01 )

 element  materl
     ipt  stress       sig-xx      sig-yy      sig-zz      sig-xy      sig-yz      sig-zx                       yield
           state                                                                                  effsg      function
      45-      1
       1          -8.4698E+07 -1.1447E+08 -3.8345E+08  1.1592E+07 -1.2949E+07 -2.0775E+07    2.8887E+08    4.2803E-02
      47-      1
       1          -4.2821E+07 -2.6002E+07 -3.1377E+08  2.3938E+07 -2.1594E+07 -1.7652E+07    2.8689E+08    3.9725E-02
      53-      1
       1          -7.6690E+07 -7.2066E+07 -3.5443E+08  2.3995E+07 -1.5701E+07 -2.1834E+07    2.8696E+08    4.1660E-02
      61-      1
       1          -4.8327E+07 -8.6546E+07 -3.2160E+08 -9.2600E+05 -2.6693E+06 -2.6302E+07    2.6037E+08    5.8490E-02
      67-      1
       1          -4.8688E+07 -1.6974E+07 -3.1325E+08  1.6325E+07 -3.1035E+07 -1.5003E+07    2.8940E+08    3.7939E-02
      79-      1
       1          -2.7644E+08 -2.6859E+08 -5.4055E+08  7.3090E+06 -7.4257E+06 -7.5659E+06    2.6905E+08    1.5154E-02
      81-      1
       1           3.2605E+06  4.2552E+07 -2.6196E+08  5.4266E+06 -4.2503E+07 -3.1990E+06    2.9638E+08    4.8809E-02



 e l e m e n t   s t r a i n   c a l c u l a t i o n s   f o r   t i m e  s t e p      201   ( at time  2.00991E+01 )

 element  strain       eps-xx      eps-yy      eps-zz      eps-xy      eps-yz      eps-zx                            yield
 num/ipt   state
      45-      1
      1            2.3016E-02  1.4488E-02 -4.0431E-02  3.6434E-03 -3.6101E-03 -5.6344E-03
      47-      1
      1            1.6644E-02  1.9469E-02 -3.8069E-02  6.3965E-03 -5.1420E-03 -4.8246E-03
      53-      1
      1            1.7387E-02  1.8071E-02 -3.7981E-02  6.5953E-03 -3.9934E-03 -4.9514E-03
      61-      1
      1            2.9383E-02  1.6611E-02 -4.7615E-02  1.4332E-03  7.2152E-04 -9.6904E-03
      67-      1
      1            1.5165E-02  2.3176E-02 -4.0303E-02  4.0442E-03 -8.1567E-03 -4.4293E-03
      79-      1
      1            6.8455E-03  6.9211E-03 -1.8929E-02  1.4005E-03 -9.8880E-04 -9.0881E-04
      81-      1
      1            1.6246E-02  2.6422E-02 -4.3941E-02  1.6346E-03 -1.2256E-02 -1.1387E-03



 e l e m e n t   s t r e s s   c a l c u l a t i o n s   f o r   t i m e  s t e p      219   ( at time 2.47297E+01 )

 element  materl
     ipt  stress       sig-xx      sig-yy      sig-zz      sig-xy      sig-yz      sig-zx                       yield
           state                                                                                  effsg      function
      45-      1
       1          -7.5821E+07 -1.0676E+08 -3.8537E+08  7.4511E+06 -1.0526E+07 -2.1193E+07    2.9840E+08    5.6864E-02
      47-      1
       1          -3.5678E+07 -2.0163E+07 -3.1842E+08  1.9759E+07 -2.0351E+07 -1.6301E+07    2.9628E+08    5.3134E-02
      53-      1
       1          -8.0489E+07 -7.3075E+07 -3.6950E+08  1.9690E+07 -1.5123E+07 -2.2611E+07    2.9851E+08    5.5350E-02
      61-      1
       1          -3.4842E+07 -6.4712E+07 -3.0965E+08  2.0518E+06 -3.3504E+05 -2.6667E+07    2.6524E+08    7.1721E-02
      67-      1
       1          -4.9169E+07 -2.0899E+07 -3.2350E+08  1.4473E+07 -2.7188E+07 -1.2480E+07    2.9517E+08    5.1478E-02
      79-      1
       1          -3.0870E+08 -3.0268E+08 -5.8611E+08  4.3345E+06 -7.0458E+06 -7.9184E+06    2.8117E+08    2.3807E-02
      81-      1
       1           6.2859E+06  4.2550E+07 -2.6975E+08  4.6148E+06 -3.6868E+07 -1.8801E+06    3.0277E+08    6.2781E-02



 e l e m e n t   s t r a i n   c a l c u l a t i o n s   f o r   t i m e  s t e p      219   ( at time  2.47297E+01 )

 element  strain       eps-xx      eps-yy      eps-zz      eps-xy      eps-yz      eps-zx                            yield
 num/ipt   state
      45-      1
      1            3.0969E-02  2.0287E-02 -5.4181E-02  4.1493E-03 -4.2779E-03 -7.1427E-03
      47-      1
      1            2.2650E-02  2.6515E-02 -5.1144E-02  7.7245E-03 -6.3635E-03 -5.7829E-03
      53-      1
      1            2.3775E-02  2.4968E-02 -5.1427E-02  7.9302E-03 -4.8870E-03 -6.3858E-03
      61-      1
      1            3.8026E-02  2.2547E-02 -6.2202E-02  1.4620E-03  7.1890E-04 -1.1609E-02
      67-      1
      1            2.0735E-02  3.0629E-02 -5.3458E-02  5.0320E-03 -9.7820E-03 -5.1957E-03
      79-      1
      1            1.0850E-02  1.1156E-02 -2.7722E-02  1.5869E-03 -1.2835E-03 -1.2653E-03
      81-      1
      1            2.1824E-02  3.4397E-02 -5.7585E-02  1.9563E-03 -1.4487E-02 -1.2085E-03



 e l e m e n t   s t r e s s   c a l c u l a t i o n s   f o r   t i m e  s t e p      228   ( at time 2.70450E+01 )

 element  materl
     ipt  stress       sig-xx      sig-yy      sig-zz      sig-xy      sig-yz      sig-zx                       yield
           state                                                                                  effsg      function
      45-      1
       1          -1.5876E+07 -5.4990E+07 -3.3054E+08  1.2775E+07 -1.3469E+07 -2.9344E+07    3.0308E+08    6.5024E-02
      47-      1
       1          -3.2826E+07 -1.8206E+07 -3.1965E+08  2.2801E+07 -2.0701E+07 -1.5615E+07    3.0042E+08    5.9717E-02
      53-      1
       1          -8.2858E+07 -7.7662E+07 -3.7558E+08  2.2639E+07 -1.6476E+07 -2.3743E+07    3.0212E+08    6.2505E-02
      61-      1
       1          -3.0704E+07 -6.8105E+07 -3.1059E+08  2.4365E+06 -1.6268E+06 -2.8858E+07    2.6794E+08    7.8724E-02
      67-      1
       1          -5.1077E+07 -2.0451E+07 -3.2798E+08  1.5367E+07 -2.6543E+07 -1.0879E+07    2.9878E+08    5.8060E-02
      79-      1
       1          -3.1694E+08 -3.1189E+08 -5.9841E+08  3.6057E+06 -7.2986E+06 -7.4447E+06    2.8467E+08    2.7745E-02
      81-      1
       1           4.6203E+06  4.3080E+07 -2.7302E+08  5.0155E+06 -3.5075E+07 -1.3736E+06    3.0498E+08    6.9666E-02



 e l e m e n t   s t r a i n   c a l c u l a t i o n s   f o r   t i m e  s t e p      228   ( at time  2.70450E+01 )

 element  strain       eps-xx      eps-yy      eps-zz      eps-xy      eps-yz      eps-zx                            yield
 num/ipt   state
      45-      1
      1            3.6007E-02  2.3617E-02 -6.1805E-02  4.7657E-03 -4.8158E-03 -8.3931E-03
      47-      1
      1            2.5616E-02  2.9946E-02 -5.7555E-02  8.5314E-03 -6.9811E-03 -6.2482E-03
      53-      1
      1            2.7143E-02  2.8489E-02 -5.8414E-02  8.7941E-03 -5.3820E-03 -7.2016E-03
      61-      1
      1            4.2717E-02  2.5398E-02 -6.9892E-02  1.5198E-03  5.8998E-04 -1.2553E-02
      67-      1
      1            2.3388E-02  3.4322E-02 -5.9863E-02  5.5619E-03 -1.0563E-02 -5.4906E-03
      79-      1
      1            1.2722E-02  1.3109E-02 -3.1699E-02  1.6509E-03 -1.4260E-03 -1.4045E-03
      81-      1
      1            2.4469E-02  3.8401E-02 -6.4287E-02  2.1339E-03 -1.5519E-02 -1.2228E-03



 e l e m e n t   s t r e s s   c a l c u l a t i o n s   f o r   t i m e  s t e p      236   ( at time 2.93602E+01 )

 element  materl
     ipt  stress       sig-xx      sig-yy      sig-zz      sig-xy      sig-yz      sig-zx                       yield
           state                                                                                  effsg      function
      45-      1
       1          -5.4040E+07 -8.5061E+07 -3.3058E+08  1.4530E+07 -1.3135E+07 -2.8616E+07    2.6919E+08    7.1538E-02
      47-      1
       1          -5.9495E+07 -4.9354E+07 -3.1272E+08  2.5154E+07 -2.5611E+07 -1.5183E+07    2.6711E+08    6.5553E-02
      53-      1
       1          -6.9606E+07 -6.7381E+07 -3.6489E+08  2.8790E+07 -1.6740E+07 -2.8264E+07    3.0591E+08    6.9192E-02
      61-      1
       1          -3.1033E+07 -6.7003E+07 -3.1478E+08  4.1977E+06 -8.8653E+05 -3.1398E+07    2.7316E+08    8.5334E-02
      67-      1
       1          -8.4404E+07 -6.1620E+07 -3.3091E+08  1.8546E+07 -2.5473E+07 -9.7059E+06    2.6488E+08    6.4203E-02
      79-      1
       1          -3.1615E+08 -3.1215E+08 -6.0097E+08  3.0083E+06 -6.6818E+06 -6.6252E+06    2.8736E+08    3.1509E-02
      81-      1
       1           1.1869E+06  4.1397E+07 -2.7938E+08  6.1433E+06 -3.2580E+07 -4.8280E+05    3.0808E+08    7.6619E-02



 e l e m e n t   s t r a i n   c a l c u l a t i o n s   f o r   t i m e  s t e p      236   ( at time  2.93602E+01 )

 element  strain       eps-xx      eps-yy      eps-zz      eps-xy      eps-yz      eps-zx                            yield
 num/ipt   state
      45-      1
      1            4.0370E-02  2.6757E-02 -6.8821E-02  5.5725E-03 -5.3025E-03 -9.6161E-03
      47-      1
      1            2.8481E-02  3.3727E-02 -6.3873E-02  9.4969E-03 -7.8793E-03 -6.7669E-03
      53-      1
      1            3.0416E-02  3.1744E-02 -6.4811E-02  9.8441E-03 -5.8925E-03 -8.1848E-03
      61-      1
      1            4.7076E-02  2.8287E-02 -7.7146E-02  1.7268E-03  4.8309E-04 -1.3804E-02
      67-      1
      1            2.6257E-02  3.8351E-02 -6.6575E-02  6.2408E-03 -1.1475E-02 -5.8768E-03
      79-      1
      1            1.4563E-02  1.5006E-02 -3.5456E-02  1.7010E-03 -1.5329E-03 -1.5116E-03
      81-      1
      1            2.7130E-02  4.2459E-02 -7.1094E-02  2.3637E-03 -1.6486E-02 -1.2142E-03



 e l e m e n t   s t r e s s   c a l c u l a t i o n s   f o r   t i m e  s t e p      245   ( at time 3.16755E+01 )

 element  materl
     ipt  stress       sig-xx      sig-yy      sig-zz      sig-xy      sig-yz      sig-zx                       yield
           state                                                                                  effsg      function
      45-      1
       1          -1.0628E+08 -1.3080E+08 -3.4123E+08  5.2497E+06 -9.4650E+06 -2.6377E+07    2.2908E+08    7.7605E-02
      47-      1
       1          -1.3765E+07 -8.3654E+06 -2.6575E+08  2.4720E+07 -3.2433E+07 -2.1065E+07    2.6684E+08    7.2238E-02
      53-      1
       1          -5.4444E+07 -4.9041E+07 -3.4455E+08  2.9766E+07 -2.0028E+07 -3.0829E+07    3.0409E+08    7.6628E-02
      61-      1
       1          -3.4895E+07 -6.2516E+07 -3.1579E+08  1.5919E+06  3.4501E+06 -2.5793E+07    2.7193E+08    9.2589E-02
      67-      1
       1          -9.4260E+07 -7.1546E+07 -3.4483E+08  1.5872E+07 -2.8324E+07 -8.3072E+06    2.6900E+08    7.0197E-02
      79-      1
       1          -3.2575E+08 -3.2492E+08 -6.1503E+08  3.4050E+06 -7.2869E+06 -7.1665E+06    2.9029E+08    3.5993E-02
      81-      1
       1           8.0471E+06  4.3902E+07 -2.7905E+08  6.5485E+06 -3.4331E+07  8.8355E+05    3.1252E+08    8.4013E-02



 e l e m e n t   s t r a i n   c a l c u l a t i o n s   f o r   t i m e  s t e p      245   ( at time  3.16755E+01 )

 element  strain       eps-xx      eps-yy      eps-zz      eps-xy      eps-yz      eps-zx                            yield
 num/ipt   state
      45-      1
      1            4.5035E-02  3.0477E-02 -7.6432E-02  6.1522E-03 -5.6845E-03 -1.0895E-02
      47-      1
      1            3.2016E-02  3.8125E-02 -7.0762E-02  1.0589E-02 -8.9726E-03 -7.6005E-03
      53-      1
      1            3.3857E-02  3.5421E-02 -7.1710E-02  1.0945E-02 -6.5593E-03 -9.1954E-03
      61-      1
      1            5.1740E-02  3.1705E-02 -8.5115E-02  1.7701E-03  6.3237E-04 -1.4631E-02
      67-      1
      1            2.9093E-02  4.2151E-02 -7.3338E-02  6.7453E-03 -1.2311E-02 -6.1729E-03
      79-      1
      1            1.6757E-02  1.7155E-02 -3.9985E-02  1.7909E-03 -1.6998E-03 -1.6822E-03
      81-      1
      1            3.0156E-02  4.6721E-02 -7.8376E-02  2.6155E-03 -1.7554E-02 -1.1097E-03



 e l e m e n t   s t r e s s   c a l c u l a t i o n s   f o r   t i m e  s t e p      253   ( at time 3.39908E+01 )

 element  materl
     ipt  stress       sig-xx      sig-yy      sig-zz      sig-xy      sig-yz      sig-zx                       yield
           state                                                                                  effsg      function
      45-      1
       1          -1.0498E+08 -1.2917E+08 -3.3939E+08  7.5250E+06 -1.4321E+07 -3.0608E+07    2.3121E+08    8.2876E-02
      47-      1
       1          -6.8288E+06 -4.1327E+06 -2.6486E+08  2.3842E+07 -2.9572E+07 -2.0219E+07    2.6989E+08    7.8360E-02
      53-      1
       1          -9.3318E+07 -9.1544E+07 -3.4907E+08  2.1457E+07 -2.4386E+07 -3.0455E+07    2.6798E+08    8.3096E-02
      61-      1
       1          -3.1526E+07 -6.0419E+07 -3.1603E+08  2.7045E+06  5.2983E+06 -3.0040E+07    2.7635E+08    9.9196E-02
      67-      1
       1          -9.8976E+07 -7.6439E+07 -3.5221E+08  1.6606E+07 -2.7444E+07 -8.8613E+06    2.7142E+08    7.5937E-02
      79-      1
       1          -3.1953E+08 -3.2475E+08 -6.1499E+08  3.0721E+06 -6.5259E+06 -6.3875E+06    2.9336E+08    4.0038E-02
      81-      1
       1           4.5113E+06  4.3740E+07 -2.8423E+08  6.0276E+06 -3.2174E+07  7.9237E+05    3.1536E+08    9.0765E-02



 e l e m e n t   s t r a i n   c a l c u l a t i o n s   f o r   t i m e  s t e p      253   ( at time  3.39908E+01 )

 element  strain       eps-xx      eps-yy      eps-zz      eps-xy      eps-yz      eps-zx                            yield
 num/ipt   state
      45-      1
      1            4.8967E-02  3.3659E-02 -8.3228E-02  7.0114E-03 -6.2467E-03 -1.1989E-02
      47-      1
      1            3.5182E-02  4.1780E-02 -7.7413E-02  1.1467E-02 -9.8449E-03 -8.3183E-03
      53-      1
      1            3.7354E-02  3.9113E-02 -7.8630E-02  1.1890E-02 -7.2498E-03 -1.0226E-02
      61-      1
      1            5.6021E-02  3.4731E-02 -9.2384E-02  1.9291E-03  7.5875E-04 -1.5835E-02
      67-      1
      1            3.1777E-02  4.5810E-02 -7.9723E-02  7.2753E-03 -1.3110E-02 -6.5172E-03
      79-      1
      1            1.8900E-02  1.9073E-02 -4.4028E-02  1.8507E-03 -1.8076E-03 -1.7887E-03
      81-      1
      1            3.2781E-02  5.0685E-02 -8.5040E-02  2.8037E-03 -1.8468E-02 -1.0686E-03



 e l e m e n t   s t r e s s   c a l c u l a t i o n s   f o r   t i m e  s t e p      262   ( at time 3.63061E+01 )

 element  materl
     ipt  stress       sig-xx      sig-yy      sig-zz      sig-xy      sig-yz      sig-zx                       yield
           state                                                                                  effsg      function
      45-      1
       1          -1.2028E+08 -1.4029E+08 -3.5351E+08  6.9978E+06 -1.8045E+07 -3.1271E+07    2.3278E+08    8.8784E-02
      47-      1
       1          -6.2426E+07 -5.5261E+07 -2.7862E+08  2.2034E+07 -3.4153E+07 -1.9509E+07    2.3332E+08    8.4698E-02
      53-      1
       1          -6.1689E+07 -5.8764E+07 -3.1458E+08  2.4882E+07 -2.7136E+07 -3.6323E+07    2.6968E+08    9.0902E-02
      61-      1
       1          -2.9914E+07 -5.9071E+07 -3.1572E+08 -4.5982E+05  7.4573E+06 -3.1587E+07    2.7814E+08    1.0634E-01
      67-      1
       1          -6.2218E+07 -4.1517E+07 -3.1238E+08  2.2086E+07 -3.5113E+07 -1.4527E+07    2.7200E+08    8.3436E-02
      79-      1
       1          -3.1295E+08 -3.3815E+08 -6.2020E+08  2.0639E+06 -5.9945E+06 -5.8107E+06    2.9583E+08    4.5034E-02
      81-      1
       1          -3.9948E+07 -3.7170E+05 -2.9186E+08  3.5426E+06 -2.8893E+07 -1.1030E+06    2.7847E+08    9.7624E-02



 e l e m e n t   s t r a i n   c a l c u l a t i o n s   f o r   t i m e  s t e p      262   ( at time  3.63061E+01 )

 element  strain       eps-xx      eps-yy      eps-zz      eps-xy      eps-yz      eps-zx                            yield
 num/ipt   state
      45-      1
      1            5.3163E-02  3.7397E-02 -9.1018E-02  8.0240E-03 -6.8720E-03 -1.3204E-02
      47-      1
      1            3.8818E-02  4.6527E-02 -8.5279E-02  1.2779E-02 -1.0953E-02 -9.1822E-03
      53-      1
      1            4.1661E-02  4.3748E-02 -8.6663E-02  1.3501E-02 -8.0636E-03 -1.1689E-02
      61-      1
      1            6.0639E-02  3.8023E-02 -1.0025E-01  1.9506E-03  9.1800E-04 -1.6901E-02
      67-      1
      1            3.5474E-02  5.0941E-02 -8.7590E-02  8.5175E-03 -1.4458E-02 -7.2556E-03
      79-      1
      1            2.1867E-02  2.1021E-02 -4.9017E-02  1.8865E-03 -1.9340E-03 -1.9020E-03
      81-      1
      1            3.5663E-02  5.5552E-02 -9.2758E-02  2.9702E-03 -1.9461E-02 -1.0543E-03



 e l e m e n t   s t r e s s   c a l c u l a t i o n s   f o r   t i m e  s t e p      271   ( at time 3.86214E+01 )

 element  materl
     ipt  stress       sig-xx      sig-yy      sig-zz      sig-xy      sig-yz      sig-zx                       yield
           state                                                                                  effsg      function
      45-      1
       1          -1.2045E+08 -1.3985E+08 -3.5584E+08  5.9264E+06 -1.6430E+07 -2.9185E+07    2.3385E+08    9.4671E-02
      47-      1
       1          -6.7133E+07 -6.2871E+07 -2.9035E+08  2.0399E+07 -3.0459E+07 -1.5919E+07    2.3577E+08    9.0536E-02
      53-      1
       1          -6.0844E+07 -5.4069E+07 -3.1811E+08  2.1881E+07 -2.5775E+07 -3.1019E+07    2.7256E+08    9.7978E-02
      61-      1
       1          -3.0071E+07 -5.6945E+07 -3.1444E+08 -3.3908E+06  6.7008E+06 -3.1949E+07    2.7781E+08    1.1365E-01
      67-      1
       1          -6.2709E+07 -4.2613E+07 -3.1830E+08  1.9419E+07 -3.0039E+07 -1.2555E+07    2.7418E+08    8.9942E-02
      79-      1
       1          -3.0763E+08 -3.3181E+08 -6.1793E+08  2.4513E+06 -5.6836E+06 -3.0448E+06    2.9918E+08    4.9667E-02
      81-      1
       1          -4.5033E+07 -8.2961E+06 -3.0009E+08  3.5597E+06 -2.7727E+07 -1.5807E+06    2.7951E+08    1.0409E-01



 e l e m e n t   s t r a i n   c a l c u l a t i o n s   f o r   t i m e  s t e p      271   ( at time  3.86214E+01 )

 element  strain       eps-xx      eps-yy      eps-zz      eps-xy      eps-yz      eps-zx                            yield
 num/ipt   state
      45-      1
      1            5.7261E-02  4.1066E-02 -9.8637E-02  8.6838E-03 -7.3850E-03 -1.4209E-02
      47-      1
      1            4.2301E-02  5.0718E-02 -9.2722E-02  1.3706E-02 -1.1773E-02 -9.7681E-03
      53-      1
      1            4.5305E-02  4.7918E-02 -9.4338E-02  1.4531E-02 -8.7220E-03 -1.2661E-02
      61-      1
      1            6.5232E-02  4.1416E-02 -1.0828E-01  1.8161E-03  9.7827E-04 -1.7870E-02
      67-      1
      1            3.8592E-02  5.5095E-02 -9.4787E-02  9.2215E-03 -1.5308E-02 -7.7087E-03
      79-      1
      1            2.4477E-02  2.3090E-02 -5.3646E-02  1.9525E-03 -2.0481E-03 -1.9038E-03
      81-      1
      1            3.8507E-02  5.9908E-02 -1.0005E-01  3.1365E-03 -2.0286E-02 -1.0116E-03



 e l e m e n t   s t r e s s   c a l c u l a t i o n s   f o r   t i m e  s t e p      279   ( at time 4.09367E+01 )

 element  materl
     ipt  stress       sig-xx      sig-yy      sig-zz      sig-xy      sig-yz      sig-zx                       yield
           state                                                                                  effsg      function
      45-      1
       1          -1.2333E+08 -1.4079E+08 -3.6095E+08  1.0679E+07 -1.6651E+07 -2.9738E+07    2.3759E+08    1.0004E-01
      47-      1
       1          -7.3804E+07 -7.0999E+07 -3.0118E+08  2.1733E+07 -2.6939E+07 -1.5751E+07    2.3808E+08    9.6235E-02
      53-      1
       1          -6.6769E+07 -5.9010E+07 -3.2828E+08  2.5346E+07 -2.3914E+07 -2.7853E+07    2.7649E+08    1.0457E-01
      61-      1
       1          -2.5023E+07 -5.7316E+07 -3.1690E+08 -2.1149E+06  3.8109E+06 -3.3655E+07    2.8331E+08    1.2035E-01
      67-      1
       1          -6.2566E+07 -4.0861E+07 -3.2042E+08  1.9403E+07 -2.7245E+07 -1.3604E+07    2.7653E+08    9.6483E-02
      79-      1
       1          -2.7283E+08 -3.0030E+08 -5.8527E+08  1.4467E+06 -2.4099E+06 -4.6798E+05    2.9969E+08    5.3475E-02
      81-      1
       1          -5.2200E+07 -1.4517E+07 -3.0751E+08  4.1465E+06 -2.8365E+07 -2.2212E+06    2.8054E+08    1.1060E-01



 e l e m e n t   s t r a i n   c a l c u l a t i o n s   f o r   t i m e  s t e p      279   ( at time  4.09367E+01 )

 element  strain       eps-xx      eps-yy      eps-zz      eps-xy      eps-yz      eps-zx                            yield
 num/ipt   state
      45-      1
      1            6.0849E-02  4.4439E-02 -1.0563E-01  9.6010E-03 -7.9645E-03 -1.5320E-02
      47-      1
      1            4.5674E-02  5.4797E-02 -9.9919E-02  1.4743E-02 -1.2629E-02 -1.0382E-02
      53-      1
      1            4.8623E-02  5.1798E-02 -1.0148E-01  1.5744E-02 -9.4177E-03 -1.3590E-02
      61-      1
      1            6.9651E-02  4.4409E-02 -1.1568E-01  1.8561E-03  9.2585E-04 -1.9054E-02
      67-      1
      1            4.1690E-02  5.9307E-02 -1.0196E-01  9.9846E-03 -1.6216E-02 -8.2472E-03
      79-      1
      1            2.6806E-02  2.4836E-02 -5.7265E-02  1.9599E-03 -2.0405E-03 -1.8696E-03
      81-      1
      1            4.1285E-02  6.4292E-02 -1.0731E-01  3.3249E-03 -2.1188E-02 -1.0153E-03



 e l e m e n t   s t r e s s   c a l c u l a t i o n s   f o r   t i m e  s t e p      288   ( at time 4.32520E+01 )

 element  materl
     ipt  stress       sig-xx      sig-yy      sig-zz      sig-xy      sig-yz      sig-zx                       yield
           state                                                                                  effsg      function
      45-      1
       1          -1.1764E+08 -1.3471E+08 -3.5543E+08  8.5394E+06 -1.4699E+07 -3.0840E+07    2.3769E+08    1.0633E-01
      47-      1
       1          -1.1129E+08 -1.0798E+08 -2.9997E+08  1.3914E+07 -2.3914E+07 -1.4208E+07    1.9783E+08    1.0142E-01
      53-      1
       1          -1.0081E+08 -9.0251E+07 -3.2103E+08  1.9053E+07 -2.4526E+07 -2.4820E+07    2.3595E+08    1.1102E-01
      61-      1
       1          -7.3023E+07 -9.3209E+07 -3.1923E+08 -4.8461E+04  3.6248E+06 -3.1201E+07    2.4293E+08    1.2719E-01
      67-      1
       1          -1.1172E+08 -1.0368E+08 -3.3870E+08  1.3239E+07 -2.1529E+07 -1.1288E+07    2.3602E+08    1.0224E-01
      79-      1
       1          -2.6210E+08 -2.9027E+08 -5.7726E+08  3.1448E+06 -4.9516E+06 -1.3007E+06    3.0224E+08    5.8254E-02
      81-      1
       1          -5.8526E+07 -2.6604E+07 -3.2013E+08 -8.1324E+05 -2.8709E+07 -5.0383E+05    2.8334E+08    1.1743E-01



 e l e m e n t   s t r a i n   c a l c u l a t i o n s   f o r   t i m e  s t e p      288   ( at time  4.32520E+01 )

 element  strain       eps-xx      eps-yy      eps-zz      eps-xy      eps-yz      eps-zx                            yield
 num/ipt   state
      45-      1
      1            6.5087E-02  4.8406E-02 -1.1366E-01  1.0343E-02 -8.3147E-03 -1.6464E-02
      47-      1
      1            4.9623E-02  5.9783E-02 -1.0772E-01  1.6015E-02 -1.3676E-02 -1.1202E-02
      53-      1
      1            5.2649E-02  5.6326E-02 -1.0954E-01  1.6864E-02 -1.0231E-02 -1.4484E-02
      61-      1
      1            7.4659E-02  4.8225E-02 -1.2418E-01  1.8934E-03  8.7844E-04 -2.0365E-02
      67-      1
      1            4.5457E-02  6.3782E-02 -1.0946E-01  1.0948E-02 -1.7319E-02 -8.9150E-03
      79-      1
      1            2.9562E-02  2.6915E-02 -6.1982E-02  2.0664E-03 -2.2213E-03 -1.9432E-03
      81-      1
      1            4.4446E-02  6.8786E-02 -1.1515E-01  3.2585E-03 -2.1997E-02 -8.7207E-04



 e l e m e n t   s t r e s s   c a l c u l a t i o n s   f o r   t i m e  s t e p      297   ( at time 4.55673E+01 )

 element  materl
     ipt  stress       sig-xx      sig-yy      sig-zz      sig-xy      sig-yz      sig-zx                       yield
           state                                                                                  effsg      function
      45-      1
       1          -2.1249E+08 -2.3127E+08 -3.7549E+08  2.5612E+06 -1.2900E+07 -2.5335E+07    1.6219E+08    1.1067E-01
      47-      1
       1          -1.8762E+08 -1.8664E+08 -3.3568E+08  8.4436E+06 -2.5725E+07 -1.6695E+07    1.5845E+08    1.0558E-01
      53-      1
       1          -1.6777E+08 -1.6305E+08 -3.5210E+08  1.3542E+07 -3.0457E+07 -2.5197E+07    2.0027E+08    1.1632E-01
      61-      1
       1          -6.8648E+07 -9.5540E+07 -3.1912E+08  2.9385E+06  5.0751E+05 -3.1105E+07    2.4424E+08    1.3375E-01
      67-      1
       1          -1.2969E+08 -1.1352E+08 -3.5329E+08  1.1608E+07 -2.5986E+07 -1.3445E+07    2.3843E+08    1.0801E-01
      79-      1
       1          -2.5971E+08 -2.8268E+08 -5.7524E+08  1.9468E+06 -1.7267E+06 -2.1776E+06    3.0475E+08    6.2817E-02
      81-      1
       1          -6.5795E+07 -3.5963E+07 -3.2832E+08 -2.9893E+06 -3.3085E+07 -2.9449E+06    2.8457E+08    1.2442E-01



 e l e m e n t   s t r a i n   c a l c u l a t i o n s   f o r   t i m e  s t e p      297   ( at time  4.55673E+01 )

 element  strain       eps-xx      eps-yy      eps-zz      eps-xy      eps-yz      eps-zx                            yield
 num/ipt   state
      45-      1
      1            6.9806E-02  5.2142E-02 -1.2167E-01  1.1123E-02 -8.6892E-03 -1.7715E-02
      47-      1
      1            5.4340E-02  6.4618E-02 -1.1579E-01  1.7713E-02 -1.5085E-02 -1.2488E-02
      53-      1
      1            5.7104E-02  6.0873E-02 -1.1767E-01  1.8480E-02 -1.1329E-02 -1.5718E-02
      61-      1
      1            7.9660E-02  5.1504E-02 -1.3236E-01  2.1440E-03  6.2938E-04 -2.1475E-02
      67-      1
      1            4.8599E-02  6.8370E-02 -1.1702E-01  1.1689E-02 -1.8425E-02 -9.5559E-03
      79-      1
      1            3.2066E-02  2.9008E-02 -6.6537E-02  2.0877E-03 -2.1904E-03 -2.0266E-03
      81-      1
      1            4.7615E-02  7.3380E-02 -1.2309E-01  3.1668E-03 -2.2949E-02 -8.3419E-04



 e l e m e n t   s t r e s s   c a l c u l a t i o n s   f o r   t i m e  s t e p      306   ( at time 4.78826E+01 )

 element  materl
     ipt  stress       sig-xx      sig-yy      sig-zz      sig-xy      sig-yz      sig-zx                       yield
           state                                                                                  effsg      function
      45-      1
       1          -2.1802E+08 -2.3804E+08 -3.8343E+08  5.2141E+06 -1.4494E+07 -2.3778E+07    1.6389E+08    1.1450E-01
      47-      1
       1          -2.0540E+08 -2.0322E+08 -3.5563E+08  9.7404E+06 -2.4389E+07 -1.6138E+07    1.6047E+08    1.0930E-01
      53-      1
       1          -1.6912E+08 -1.7086E+08 -3.6193E+08  1.5499E+07 -2.5458E+07 -2.2014E+07    2.0239E+08    1.2109E-01
      61-      1
       1          -7.5971E+07 -1.0464E+08 -3.3229E+08  4.5604E+06 -2.5943E+05 -3.0067E+07    2.4890E+08    1.3982E-01
      67-      1
       1          -1.3926E+08 -1.1806E+08 -3.6014E+08  1.1683E+07 -2.8011E+07 -1.6524E+07    2.3979E+08    1.1361E-01
      79-      1
       1          -2.6169E+08 -2.7950E+08 -5.7619E+08  1.8908E+06 -1.8801E+06 -1.6463E+06    3.0603E+08    6.7155E-02
      81-      1
       1          -1.6029E+07  2.7836E+07 -2.6900E+08  3.2048E+05 -3.9898E+07 -3.9785E+06    2.8607E+08    1.3228E-01



 e l e m e n t   s t r a i n   c a l c u l a t i o n s   f o r   t i m e  s t e p      306   ( at time  4.78826E+01 )

 element  strain       eps-xx      eps-yy      eps-zz      eps-xy      eps-yz      eps-zx                            yield
 num/ipt   state
      45-      1
      1            7.3869E-02  5.5332E-02 -1.2884E-01  1.1902E-02 -9.1925E-03 -1.8704E-02
      47-      1
      1            5.8137E-02  6.8425E-02 -1.2299E-01  1.8962E-02 -1.6298E-02 -1.3536E-02
      53-      1
      1            6.0904E-02  6.4674E-02 -1.2486E-01  1.9719E-02 -1.2237E-02 -1.6745E-02
      61-      1
      1            8.4196E-02  5.4555E-02 -1.4011E-01  2.4138E-03  5.5728E-04 -2.2638E-02
      67-      1
      1            5.1673E-02  7.2462E-02 -1.2420E-01  1.2434E-02 -1.9511E-02 -1.0257E-02
      79-      1
      1            3.4362E-02  3.1026E-02 -7.0865E-02  2.1268E-03 -2.2335E-03 -2.0595E-03
      81-      1
      1            5.0914E-02  7.9088E-02 -1.3141E-01  3.3358E-03 -2.4418E-02 -7.5934E-04



 e l e m e n t   s t r e s s   c a l c u l a t i o n s   f o r   t i m e  s t e p      315   ( at time 5.01979E+01 )

 element  materl
     ipt  stress       sig-xx      sig-yy      sig-zz      sig-xy      sig-yz      sig-zx                       yield
           state                                                                                  effsg      function
      45-      1
       1          -2.1280E+08 -2.3291E+08 -3.8102E+08  6.7528E+06 -1.2317E+07 -2.1928E+07    1.6539E+08    1.1854E-01
      47-      1
       1          -2.2061E+08 -2.1898E+08 -3.7350E+08  9.9541E+06 -2.3682E+07 -1.6224E+07    1.6247E+08    1.1314E-01
      53-      1
       1          -1.7947E+08 -1.8480E+08 -3.7549E+08  1.6723E+07 -2.3992E+07 -2.4008E+07    2.0421E+08    1.2597E-01
      61-      1
       1          -8.0354E+07 -1.1017E+08 -3.4100E+08  4.4525E+06 -2.2688E+06 -2.8528E+07    2.5214E+08    1.4598E-01
      67-      1
       1          -1.7673E+08 -1.5884E+08 -3.6131E+08  1.0562E+07 -3.0326E+07 -1.4240E+07    2.0345E+08    1.1875E-01
      79-      1
       1          -2.6496E+08 -2.8344E+08 -5.8072E+08  1.6510E+06 -1.4445E+06 -1.6241E+06    3.0697E+08    7.1870E-02
      81-      1
       1          -6.3741E+07 -2.9970E+07 -2.8376E+08  6.4657E+06 -3.7694E+07 -4.7774E+06    2.4786E+08    1.3889E-01



 e l e m e n t   s t r a i n   c a l c u l a t i o n s   f o r   t i m e  s t e p      315   ( at time  5.01979E+01 )

 element  strain       eps-xx      eps-yy      eps-zz      eps-xy      eps-yz      eps-zx                            yield
 num/ipt   state
      45-      1
      1            7.8114E-02  5.8742E-02 -1.3631E-01  1.2764E-02 -9.5644E-03 -1.9732E-02
      47-      1
      1            6.1958E-02  7.2514E-02 -1.3049E-01  2.0114E-02 -1.7509E-02 -1.4514E-02
      53-      1
      1            6.4891E-02  6.8441E-02 -1.3228E-01  2.1014E-02 -1.3161E-02 -1.7816E-02
      61-      1
      1            8.8840E-02  5.7753E-02 -1.4797E-01  2.7092E-03  3.7716E-04 -2.3702E-02
      67-      1
      1            5.4887E-02  7.7483E-02 -1.3188E-01  1.3032E-02 -2.0919E-02 -1.0819E-02
      79-      1
      1            3.6894E-02  3.3123E-02 -7.5564E-02  2.1602E-03 -2.2568E-03 -2.0972E-03
      81-      1
      1            5.4104E-02  8.4605E-02 -1.3967E-01  3.5760E-03 -2.5775E-02 -8.2311E-04



 e l e m e n t   s t r e s s   c a l c u l a t i o n s   f o r   t i m e  s t e p      325   ( at time 5.25132E+01 )

 element  materl
     ipt  stress       sig-xx      sig-yy      sig-zz      sig-xy      sig-yz      sig-zx                       yield
           state                                                                                  effsg      function
      45-      1
       1          -2.2135E+08 -2.3971E+08 -3.8967E+08  3.6206E+06 -1.0041E+07 -2.1960E+07    1.6543E+08    1.2263E-01
      47-      1
       1          -2.3672E+08 -2.3307E+08 -3.9027E+08  9.8453E+06 -2.0604E+07 -1.7027E+07    1.6305E+08    1.1695E-01
      53-      1
       1          -1.9104E+08 -1.9484E+08 -3.8739E+08  1.4063E+07 -2.4123E+07 -2.6408E+07    2.0555E+08    1.3088E-01
      61-      1
       1          -8.8063E+07 -1.1183E+08 -3.4738E+08  4.6700E+06 -1.3324E+06 -2.6256E+07    2.5256E+08    1.5216E-01
      67-      1
       1          -1.7084E+08 -1.5900E+08 -3.6216E+08  1.1182E+07 -2.6310E+07 -1.2211E+07    2.0472E+08    1.2351E-01
      79-      1
       1          -2.6670E+08 -2.8607E+08 -5.8487E+08  2.1591E+06 -1.4276E+06 -1.9645E+06    3.0900E+08    7.6787E-02
      81-      1
       1          -6.6987E+07 -3.7890E+07 -2.9357E+08  2.7088E+06 -3.5335E+07 -3.9327E+06    2.5019E+08    1.4494E-01



 e l e m e n t   s t r a i n   c a l c u l a t i o n s   f o r   t i m e  s t e p      325   ( at time  5.25132E+01 )

 element  strain       eps-xx      eps-yy      eps-zz      eps-xy      eps-yz      eps-zx                            yield
 num/ipt   state
      45-      1
      1            8.2409E-02  6.2320E-02 -1.4400E-01  1.3379E-02 -9.7906E-03 -2.0604E-02
      47-      1
      1            6.5613E-02  7.6693E-02 -1.3787E-01  2.1007E-02 -1.8682E-02 -1.5380E-02
      53-      1
      1            6.8744E-02  7.2438E-02 -1.3984E-01  2.2026E-02 -1.3999E-02 -1.8716E-02
      61-      1
      1            9.3375E-02  6.1202E-02 -1.5597E-01  3.0413E-03  1.7508E-04 -2.4449E-02
      67-      1
      1            5.8164E-02  8.1607E-02 -1.3913E-01  1.3594E-02 -2.2074E-02 -1.1236E-02
      79-      1
      1            3.9557E-02  3.5311E-02 -8.0473E-02  2.2210E-03 -2.3020E-03 -2.1626E-03
      81-      1
      1            5.7287E-02  8.9329E-02 -1.4749E-01  3.5497E-03 -2.6803E-02 -7.8187E-04



 e l e m e n t   s t r e s s   c a l c u l a t i o n s   f o r   t i m e  s t e p      343   ( at time 5.71438E+01 )

 element  materl
     ipt  stress       sig-xx      sig-yy      sig-zz      sig-xy      sig-yz      sig-zx                       yield
           state                                                                                  effsg      function
      45-      1
       1          -1.6950E+08 -1.9960E+08 -3.4569E+08  5.7235E+06 -5.6307E+06 -1.8207E+07    1.6683E+08    1.3127E-01
      47-      1
       1          -2.4474E+08 -2.4147E+08 -4.0285E+08  1.1297E+07 -1.5798E+07 -1.6314E+07    1.6569E+08    1.2478E-01
      53-      1
       1          -2.0771E+08 -2.1880E+08 -4.1223E+08  1.5133E+07 -2.1051E+07 -2.4266E+07    2.0848E+08    1.4037E-01
      61-      1
       1          -6.4726E+07 -8.1451E+07 -3.2442E+08  9.6133E+06 -8.0070E+06 -2.3850E+07    2.5603E+08    1.6521E-01
      67-      1
       1          -1.8040E+08 -1.6974E+08 -3.7658E+08  1.1874E+07 -2.3709E+07 -1.0749E+07    2.0772E+08    1.3351E-01
      79-      1
       1          -2.6137E+08 -2.8659E+08 -5.8598E+08  1.5621E+06 -1.0386E+06 -1.6834E+06    3.1279E+08    8.6407E-02
      81-      1
       1          -1.1733E+08 -8.7635E+07 -3.0434E+08 -9.3692E+05 -3.3876E+07 -2.3563E+06    2.1183E+08    1.5683E-01



 e l e m e n t   s t r a i n   c a l c u l a t i o n s   f o r   t i m e  s t e p      343   ( at time  5.71438E+01 )

 element  strain       eps-xx      eps-yy      eps-zz      eps-xy      eps-yz      eps-zx                            yield
 num/ipt   state
      45-      1
      1            9.1917E-02  6.9436E-02 -1.5941E-01  1.5497E-02 -1.0161E-02 -2.2452E-02
      47-      1
      1            7.2906E-02  8.5033E-02 -1.5299E-01  2.3058E-02 -2.0872E-02 -1.6937E-02
      53-      1
      1            7.6567E-02  7.9849E-02 -1.5466E-01  2.4144E-02 -1.5535E-02 -2.0067E-02
      61-      1
      1            1.0289E-01  6.8568E-02 -1.7213E-01  4.1369E-03 -8.2183E-04 -2.6700E-02
      67-      1
      1            6.5004E-02  9.0304E-02 -1.5434E-01  1.5068E-02 -2.4551E-02 -1.2136E-02
      79-      1
      1            4.4902E-02  3.9526E-02 -9.0050E-02  2.2820E-03 -2.3507E-03 -2.2430E-03
      81-      1
      1            6.3682E-02  9.9925E-02 -1.6393E-01  3.5430E-03 -2.9350E-02 -7.1689E-04



 e l e m e n t   s t r e s s   c a l c u l a t i o n s   f o r   t i m e  s t e p      353   ( at time 5.94591E+01 )

 element  materl
     ipt  stress       sig-xx      sig-yy      sig-zz      sig-xy      sig-yz      sig-zx                       yield
           state                                                                                  effsg      function
      45-      1
       1          -1.8333E+08 -2.0977E+08 -3.5864E+08  3.5424E+06 -4.5958E+06 -2.1673E+07    1.6825E+08    1.3535E-01
      47-      1
       1          -2.3303E+08 -2.3736E+08 -3.9317E+08  1.2670E+07 -1.8296E+07 -1.7593E+07    1.6548E+08    1.2902E-01
      53-      1
       1          -2.0520E+08 -2.0377E+08 -4.0282E+08  1.3220E+07 -2.7116E+07 -2.5245E+07    2.0971E+08    1.4569E-01
      61-      1
       1          -6.6415E+07 -8.0013E+07 -3.2523E+08  6.7478E+06 -7.6861E+06 -2.0848E+07    2.5548E+08    1.7091E-01
      67-      1
       1          -1.8248E+08 -1.7445E+08 -3.8052E+08  1.0450E+07 -2.3013E+07 -1.1349E+07    2.0779E+08    1.3853E-01
      79-      1
       1          -2.5586E+08 -2.8886E+08 -5.8507E+08  1.5465E+06 -1.2694E+06 -1.3657E+06    3.1404E+08    9.1928E-02
      81-      1
       1          -1.1637E+08 -9.1632E+07 -3.0850E+08  5.3715E+05 -3.1731E+07 -1.1732E+06    2.1284E+08    1.6213E-01



 e l e m e n t   s t r a i n   c a l c u l a t i o n s   f o r   t i m e  s t e p      353   ( at time  5.94591E+01 )

 element  strain       eps-xx      eps-yy      eps-zz      eps-xy      eps-yz      eps-zx                            yield
 num/ipt   state
      45-      1
      1            9.6166E-02  7.2739E-02 -1.6700E-01  1.6126E-02 -1.0440E-02 -2.3406E-02
      47-      1
      1            7.7569E-02  8.9142E-02 -1.6090E-01  2.4691E-02 -2.2017E-02 -1.7961E-02
      53-      1
      1            8.1283E-02  8.4780E-02 -1.6284E-01  2.5364E-02 -1.6714E-02 -2.0863E-02
      61-      1
      1            1.0685E-01  7.1888E-02 -1.7911E-01  4.4435E-03 -1.2613E-03 -2.7740E-02
      67-      1
      1            6.8535E-02  9.4522E-02 -1.6197E-01  1.5509E-02 -2.5693E-02 -1.2583E-02
      79-      1
      1            4.8132E-02  4.1746E-02 -9.5502E-02  2.3222E-03 -2.3875E-03 -2.2744E-03
      81-      1
      1            6.7095E-02  1.0479E-01 -1.7205E-01  3.5094E-03 -3.0396E-02 -6.2650E-04



 e l e m e n t   s t r e s s   c a l c u l a t i o n s   f o r   t i m e  s t e p      363   ( at time 6.17744E+01 )

 element  materl
     ipt  stress       sig-xx      sig-yy      sig-zz      sig-xy      sig-yz      sig-zx                       yield
           state                                                                                  effsg      function
      45-      1
       1          -1.8350E+08 -2.1397E+08 -3.6032E+08  1.9599E+06 -3.9844E+06 -2.4242E+07    1.6920E+08    1.3977E-01
      47-      1
       1          -1.6562E+08 -1.7931E+08 -3.3199E+08  1.3739E+07 -8.5595E+06 -2.0703E+07    1.6632E+08    1.3459E-01
      53-      1
       1          -1.8935E+08 -1.7238E+08 -3.7831E+08  1.7138E+07 -2.9549E+07 -2.1203E+07    2.0988E+08    1.5138E-01
      61-      1
       1          -1.1229E+08 -1.2779E+08 -3.3111E+08  4.3326E+06 -9.9209E+06 -1.8739E+07    2.1479E+08    1.7622E-01
      67-      1
       1          -2.3637E+08 -2.2659E+08 -3.9565E+08  4.2961E+06 -1.2538E+07 -1.2277E+07    1.6734E+08    1.4317E-01
      79-      1
       1          -2.4896E+08 -2.8627E+08 -5.8095E+08  1.5060E+06 -1.9282E+06  6.1400E+05    3.1503E+08    9.8042E-02
      81-      1
       1          -1.2673E+08 -1.0449E+08 -3.2257E+08  1.8692E+06 -3.0359E+07 -5.2367E+05    2.1443E+08    1.6802E-01



 e l e m e n t   s t r a i n   c a l c u l a t i o n s   f o r   t i m e  s t e p      363   ( at time  6.17744E+01 )

 element  strain       eps-xx      eps-yy      eps-zz      eps-xy      eps-yz      eps-zx                            yield
 num/ipt   state
      45-      1
      1            1.0141E-01  7.5719E-02 -1.7508E-01  1.6389E-02 -1.0434E-02 -2.4516E-02
      47-      1
      1            8.4335E-02  9.4711E-02 -1.7070E-01  2.6754E-02 -2.3083E-02 -1.9379E-02
      53-      1
      1            8.5801E-02  9.0451E-02 -1.7143E-01  2.7517E-02 -1.8489E-02 -2.1489E-02
      61-      1
      1            1.1198E-01  7.5299E-02 -1.8704E-01  4.6690E-03 -1.8442E-03 -2.8571E-02
      67-      1
      1            7.2949E-02  9.9534E-02 -1.7109E-01  1.5762E-02 -2.6796E-02 -1.3061E-02
      79-      1
      1            5.1724E-02  4.4187E-02 -1.0150E-01  2.3645E-03 -2.4359E-03 -2.2231E-03
      81-      1
      1            7.0915E-02  1.1028E-01 -1.8131E-01  3.4841E-03 -3.1370E-02 -5.4198E-04



 e l e m e n t   s t r e s s   c a l c u l a t i o n s   f o r   t i m e  s t e p      373   ( at time 6.40897E+01 )

 element  materl
     ipt  stress       sig-xx      sig-yy      sig-zz      sig-xy      sig-yz      sig-zx                       yield
           state                                                                                  effsg      function
      45-      1
       1          -1.2345E+08 -1.6167E+08 -3.0518E+08  9.4332E+06 -7.6911E+06 -1.2833E+07    1.6876E+08    1.4478E-01
      47-      1
       1          -1.3390E+08 -1.5453E+08 -2.6054E+08  1.4023E+07  3.6326E+06 -2.0236E+07    1.2533E+08    1.4022E-01
      53-      1
       1          -5.9588E+07 -4.0953E+07 -2.5288E+08  1.6102E+07 -2.3323E+07 -1.1368E+07    2.1002E+08    1.5871E-01
      61-      1
       1          -7.5508E+07 -9.4275E+07 -2.8995E+08  3.9675E+06 -1.3120E+07 -2.4657E+07    2.1143E+08    1.8378E-01
      67-      1
       1          -2.3722E+08 -2.3985E+08 -4.0222E+08  2.9611E+06 -1.3771E+07 -1.7279E+07    1.6819E+08    1.4832E-01
      79-      1
       1          -2.3841E+08 -2.7401E+08 -5.7221E+08  2.6775E+06 -1.1971E+06 -1.3745E+06    3.1755E+08    1.0500E-01
      81-      1
       1          -1.3069E+08 -1.1192E+08 -3.2765E+08  2.7019E+06 -3.2924E+07  4.7873E+05    2.1475E+08    1.7430E-01



 e l e m e n t   s t r a i n   c a l c u l a t i o n s   f o r   t i m e  s t e p      373   ( at time  6.40897E+01 )

 element  strain       eps-xx      eps-yy      eps-zz      eps-xy      eps-yz      eps-zx                            yield
 num/ipt   state
      45-      1
      1            1.0714E-01  7.9020E-02 -1.8369E-01  1.7147E-02 -1.0942E-02 -2.5259E-02
      47-      1
      1            9.2715E-02  1.0202E-01 -1.8241E-01  3.0353E-02 -2.4379E-02 -2.1257E-02
      53-      1
      1            9.0973E-02  9.8217E-02 -1.8176E-01  2.9648E-02 -2.0754E-02 -2.1758E-02
      61-      1
      1            1.1891E-01  8.0074E-02 -1.9760E-01  4.8662E-03 -2.2328E-03 -2.9662E-02
      67-      1
      1            7.8638E-02  1.0474E-01 -1.8113E-01  1.6064E-02 -2.7949E-02 -1.3687E-02
      79-      1
      1            5.5760E-02  4.7099E-02 -1.0833E-01  2.4735E-03 -2.4733E-03 -2.3023E-03
      81-      1
      1            7.5254E-02  1.1599E-01 -1.9107E-01  3.3985E-03 -3.2301E-02 -4.2838E-04



 e l e m e n t   s t r e s s   c a l c u l a t i o n s   f o r   t i m e  s t e p      382   ( at time 6.64050E+01 )

 element  materl
     ipt  stress       sig-xx      sig-yy      sig-zz      sig-xy      sig-yz      sig-zx                       yield
           state                                                                                  effsg      function
      45-      1
       1          -1.2943E+08 -1.5930E+08 -3.0599E+08  7.8939E+06 -3.0615E+06 -1.2638E+07    1.6579E+08    1.4920E-01
      47-      1
       1          -7.6762E+07 -9.2349E+07 -2.0056E+08  1.1376E+07 -7.5498E+06 -2.4448E+07    1.2646E+08    1.4496E-01
      53-      1
       1          -7.7654E+07 -6.9739E+07 -2.3214E+08  1.3553E+07 -2.5776E+07 -1.5219E+07    1.6850E+08    1.6405E-01
      61-      1
       1          -7.0404E+07 -9.0274E+07 -2.8495E+08  1.6489E+06 -1.1473E+07 -2.4958E+07    2.1079E+08    1.8942E-01
      67-      1
       1          -2.2093E+08 -2.3438E+08 -3.8779E+08  7.3091E+06 -1.9949E+07 -1.5062E+07    1.6678E+08    1.5288E-01
      79-      1
       1          -1.8940E+08 -2.1702E+08 -5.1851E+08 -3.0381E+06 -1.5547E+06 -1.4479E+06    3.1627E+08    1.1213E-01
      81-      1
       1          -1.1543E+08 -1.1366E+08 -3.2005E+08  9.1979E+05 -3.5384E+07 -2.9378E+05    2.1446E+08    1.8018E-01



 e l e m e n t   s t r a i n   c a l c u l a t i o n s   f o r   t i m e  s t e p      382   ( at time  6.64050E+01 )

 element  strain       eps-xx      eps-yy      eps-zz      eps-xy      eps-yz      eps-zx                            yield
 num/ipt   state
      45-      1
      1            1.1145E-01  8.2535E-02 -1.9120E-01  1.8078E-02 -1.1498E-02 -2.6255E-02
      47-      1
      1            1.0063E-01  1.0790E-01 -1.9258E-01  3.2575E-02 -2.6169E-02 -2.3182E-02
      53-      1
      1            9.6396E-02  1.0413E-01 -1.9118E-01  3.2070E-02 -2.2843E-02 -2.2942E-02
      61-      1
      1            1.2400E-01  8.3497E-02 -2.0532E-01  5.0275E-03 -2.6042E-03 -3.0746E-02
      67-      1
      1            8.3900E-02  1.0870E-01 -1.8969E-01  1.7446E-02 -2.9053E-02 -1.4175E-02
      79-      1
      1            5.9844E-02  5.0422E-02 -1.1502E-01  2.2694E-03 -2.5503E-03 -2.2924E-03
      81-      1
      1            7.9917E-02  1.2067E-01 -2.0014E-01  3.1572E-03 -3.3170E-02 -2.8299E-04



 e l e m e n t   s t r e s s   c a l c u l a t i o n s   f o r   t i m e  s t e p      392   ( at time 6.87203E+01 )

 element  materl
     ipt  stress       sig-xx      sig-yy      sig-zz      sig-xy      sig-yz      sig-zx                       yield
           state                                                                                  effsg      function
      45-      1
       1          -1.2932E+08 -1.5518E+08 -3.0547E+08  6.0259E+06 -2.6666E+06 -1.6109E+07    1.6749E+08    1.5359E-01
      47-      1
       1          -6.9927E+07 -7.9932E+07 -1.8202E+08  1.3476E+07 -1.9945E+07 -3.1883E+07    1.2780E+08    1.5027E-01
      53-      1
       1          -3.1731E+07 -1.4168E+07 -1.8029E+08  1.8988E+07 -2.4980E+07 -1.5840E+07    1.6939E+08    1.6934E-01
      61-      1
       1          -8.1033E+07 -9.7064E+07 -3.0155E+08  1.6593E+06 -9.5199E+06 -1.8982E+07    2.1613E+08    1.9567E-01
      67-      1
       1          -1.7897E+08 -1.9906E+08 -3.4372E+08  9.2446E+06 -2.9745E+07 -2.1097E+07    1.6877E+08    1.5834E-01
      79-      1
       1          -1.6696E+08 -1.8760E+08 -4.9338E+08 -1.8785E+06 -9.4483E+05 -1.7205E+06    3.1664E+08    1.1955E-01
      81-      1
       1          -1.2027E+08 -1.2384E+08 -3.2911E+08  2.2021E+06 -3.3474E+07  9.6809E+05    2.1508E+08    1.8657E-01



 e l e m e n t   s t r a i n   c a l c u l a t i o n s   f o r   t i m e  s t e p      392   ( at time  6.87203E+01 )

 element  strain       eps-xx      eps-yy      eps-zz      eps-xy      eps-yz      eps-zx                            yield
 num/ipt   state
      45-      1
      1            1.1588E-01  8.5958E-02 -1.9896E-01  1.8497E-02 -1.1738E-02 -2.7432E-02
      47-      1
      1            1.0797E-01  1.1513E-01 -2.0356E-01  3.6255E-02 -2.8457E-02 -2.5168E-02
      53-      1
      1            1.0167E-01  1.0991E-01 -1.9998E-01  3.4507E-02 -2.5138E-02 -2.4419E-02
      61-      1
      1            1.2934E-01  8.7693E-02 -2.1449E-01  5.1536E-03 -2.8047E-03 -3.1695E-02
      67-      1
      1            9.0828E-02  1.1394E-01 -1.9959E-01  1.9308E-02 -3.0211E-02 -1.4883E-02
      79-      1
      1            6.3842E-02  5.3848E-02 -1.2212E-01  2.2309E-03 -2.6190E-03 -2.3401E-03
      81-      1
      1            8.4922E-02  1.2569E-01 -2.1019E-01  3.0518E-03 -3.3977E-02 -5.5076E-06



 e l e m e n t   s t r e s s   c a l c u l a t i o n s   f o r   t i m e  s t e p      401   ( at time 7.10356E+01 )

 element  materl
     ipt  stress       sig-xx      sig-yy      sig-zz      sig-xy      sig-yz      sig-zx                       yield
           state                                                                                  effsg      function
      45-      1
       1          -7.3027E+07 -9.6162E+07 -2.4871E+08  4.3940E+06 -3.3851E+06 -2.2241E+07    1.7003E+08    1.5902E-01
      47-      1
       1          -7.3132E+07 -8.6642E+07 -1.8752E+08  1.2267E+07 -2.4112E+07 -2.9369E+07    1.2847E+08    1.5456E-01
      53-      1
       1          -8.5393E+07 -7.6858E+07 -1.9902E+08  1.3958E+07 -2.3074E+07 -1.6946E+07    1.3038E+08    1.7299E-01
      61-      1
       1          -7.1499E+07 -8.9620E+07 -2.9020E+08  7.8859E+06 -1.1044E+07 -2.2797E+07    2.1519E+08    2.0215E-01
      67-      1
       1          -7.7716E+07 -9.0423E+07 -2.3670E+08  1.3565E+07 -3.4254E+07 -2.0523E+07    1.6956E+08    1.6360E-01
      79-      1
       1          -1.2557E+08 -1.1731E+08 -4.4006E+08 -1.6914E+06 -2.0186E+05 -2.2722E+05    3.1871E+08    1.2736E-01
      81-      1
       1          -1.1805E+08 -1.3115E+08 -3.2974E+08  4.0947E+06 -3.2252E+07 -1.4561E+06    2.1305E+08    1.9242E-01



 e l e m e n t   s t r a i n   c a l c u l a t i o n s   f o r   t i m e  s t e p      401   ( at time  7.10356E+01 )

 element  strain       eps-xx      eps-yy      eps-zz      eps-xy      eps-yz      eps-zx                            yield
 num/ipt   state
      45-      1
      1            1.2227E-01  9.0823E-02 -2.0805E-01  1.9231E-02 -1.1901E-02 -2.8894E-02
      47-      1
      1            1.1332E-01  1.2082E-01 -2.1324E-01  3.8223E-02 -2.9998E-02 -2.6213E-02
      53-      1
      1            1.0565E-01  1.1523E-01 -2.0869E-01  3.6537E-02 -2.6621E-02 -2.5116E-02
      61-      1
      1            1.3539E-01  9.1718E-02 -2.2359E-01  6.1510E-03 -3.5295E-03 -3.2754E-02
      67-      1
      1            9.6923E-02  1.1954E-01 -2.0850E-01  2.1359E-02 -3.1408E-02 -1.5508E-02
      79-      1
      1            6.7471E-02  5.8320E-02 -1.2948E-01  2.1769E-03 -2.5590E-03 -2.2372E-03
      81-      1
      1            8.9482E-02  1.2961E-01 -2.1847E-01  3.4127E-03 -3.5156E-02 -1.5506E-04



 e l e m e n t   s t r e s s   c a l c u l a t i o n s   f o r   t i m e  s t e p      411   ( at time 7.33509E+01 )

 element  materl
     ipt  stress       sig-xx      sig-yy      sig-zz      sig-xy      sig-yz      sig-zx                       yield
           state                                                                                  effsg      function
      45-      1
       1          -3.9722E+07 -7.7802E+07 -2.2034E+08  2.9254E+06 -4.2332E+06 -2.5475E+07    1.7094E+08    1.6580E-01
      47-      1
       1          -7.9293E+07 -8.6055E+07 -1.5167E+08  9.4464E+06 -1.5342E+07 -2.7414E+07    8.9570E+07    1.5813E-01
      53-      1
       1          -9.2973E+07 -7.4558E+07 -2.0202E+08  9.8523E+06 -2.3346E+07 -1.5308E+07    1.2988E+08    1.7734E-01
      61-      1
       1          -5.7393E+07 -7.2984E+07 -2.7628E+08  1.1617E+07 -1.2281E+07 -2.5245E+07    2.1797E+08    2.1086E-01
      67-      1
       1          -7.7741E+07 -1.0298E+08 -1.9462E+08  1.5673E+07 -3.1187E+07 -1.9506E+07    1.2706E+08    1.6818E-01
      79-      1
       1          -9.5158E+07 -7.3628E+07 -4.0364E+08  1.0426E+06 -1.2487E+06 -3.3611E+06    3.1986E+08    1.3531E-01
      81-      1
       1          -1.1767E+08 -1.3498E+08 -3.2718E+08  9.1787E+06 -3.8583E+07 -3.3533E+06    2.1289E+08    1.9891E-01



 e l e m e n t   s t r a i n   c a l c u l a t i o n s   f o r   t i m e  s t e p      411   ( at time  7.33509E+01 )

 element  strain       eps-xx      eps-yy      eps-zz      eps-xy      eps-yz      eps-zx                            yield
 num/ipt   state
      45-      1
      1            1.3088E-01  9.4801E-02 -2.1888E-01  1.9825E-02 -1.1961E-02 -3.1251E-02
      47-      1
      1            1.1944E-01  1.2779E-01 -2.2332E-01  4.1198E-02 -3.1515E-02 -2.7959E-02
      53-      1
      1            1.1064E-01  1.2128E-01 -2.1862E-01  3.8164E-02 -2.8220E-02 -2.6104E-02
      61-      1
      1            1.4361E-01  9.7225E-02 -2.3580E-01  7.0421E-03 -4.5683E-03 -3.4346E-02
      67-      1
      1            1.0451E-01  1.2515E-01 -2.1793E-01  2.4519E-02 -3.2951E-02 -1.5943E-02
      79-      1
      1            7.0959E-02  6.2835E-02 -1.3700E-01  2.2706E-03 -2.6669E-03 -2.4047E-03
      81-      1
      1            9.4179E-02  1.3411E-01 -2.2780E-01  3.8716E-03 -3.6077E-02 -4.5809E-04



 e l e m e n t   s t r e s s   c a l c u l a t i o n s   f o r   t i m e  s t e p      421   ( at time 7.56662E+01 )

 element  materl
     ipt  stress       sig-xx      sig-yy      sig-zz      sig-xy      sig-yz      sig-zx                       yield
           state                                                                                  effsg      function
      45-      1
       1          -6.9033E+07 -9.9716E+07 -2.0282E+08  1.9684E+06 -3.7521E+06 -2.2858E+07    1.2789E+08    1.7192E-01
      47-      1
       1          -5.6684E+07 -6.6347E+07 -1.3136E+08  8.7917E+06 -1.5677E+07 -2.7176E+07    9.0183E+07    1.6147E-01
      53-      1
       1          -8.5469E+07 -8.4910E+07 -2.0215E+08  8.1086E+06 -2.2560E+07 -1.7479E+07    1.2775E+08    1.8215E-01
      61-      1
       1          -8.0687E+07 -8.6822E+07 -2.5102E+08  9.2796E+06 -1.4224E+07 -2.5249E+07    1.7545E+08    2.1681E-01
      67-      1
       1          -6.7962E+07 -9.3743E+07 -1.8801E+08  1.0095E+07 -3.1712E+07 -2.0393E+07    1.2865E+08    1.7200E-01
      79-      1
       1          -5.1912E+07 -3.1641E+07 -3.6694E+08  2.8119E+05  1.9118E+05 -1.5565E+06    3.2565E+08    1.4298E-01
      81-      1
       1          -1.1440E+08 -1.3582E+08 -3.2806E+08  1.0476E+07 -3.3687E+07 -3.8840E+06    2.1287E+08    2.0410E-01



 e l e m e n t   s t r a i n   c a l c u l a t i o n s   f o r   t i m e  s t e p      421   ( at time  7.56662E+01 )

 element  strain       eps-xx      eps-yy      eps-zz      eps-xy      eps-yz      eps-zx                            yield
 num/ipt   state
      45-      1
      1            1.4066E-01  9.9854E-02 -2.3078E-01  2.0392E-02 -1.2170E-02 -3.3756E-02
      47-      1
      1            1.2488E-01  1.3429E-01 -2.3290E-01  4.3256E-02 -3.3054E-02 -2.9503E-02
      53-      1
      1            1.1614E-01  1.2677E-01 -2.2891E-01  4.0115E-02 -2.9830E-02 -2.7593E-02
      61-      1
      1            1.5193E-01  1.0227E-01 -2.4699E-01  8.1168E-03 -6.0133E-03 -3.5877E-02
      67-      1
      1            1.1099E-01  1.2957E-01 -2.2692E-01  2.6331E-02 -3.3996E-02 -1.6272E-02
      79-      1
      1            7.4587E-02  6.7135E-02 -1.4439E-01  2.2692E-03 -2.6592E-03 -2.3480E-03
      81-      1
      1            9.8190E-02  1.3761E-01 -2.3555E-01  3.9817E-03 -3.6409E-02 -8.1318E-04



 e l e m e n t   s t r e s s   c a l c u l a t i o n s   f o r   t i m e  s t e p      432   ( at time 7.79815E+01 )

 element  materl
     ipt  stress       sig-xx      sig-yy      sig-zz      sig-xy      sig-yz      sig-zx                       yield
           state                                                                                  effsg      function
      45-      1
       1          -8.6808E+07 -1.2058E+08 -2.1739E+08 -5.2315E+06 -5.7903E+06 -2.5819E+07    1.2635E+08    1.7758E-01
      47-      1
       1          -5.4620E+07 -6.2573E+07 -1.3015E+08  5.8535E+06 -1.5931E+07 -2.7402E+07    9.1021E+07    1.6471E-01
      53-      1
       1          -8.6155E+07 -7.5734E+07 -1.9352E+08  1.0252E+07 -2.2981E+07 -1.8085E+07    1.2504E+08    1.8634E-01
      61-      1
       1          -7.4056E+07 -8.3914E+07 -2.4502E+08  8.9647E+06 -1.5959E+07 -2.7487E+07    1.7581E+08    2.2260E-01
      67-      1
       1          -1.0562E+08 -1.2641E+08 -1.8356E+08  8.4288E+06 -2.2737E+07 -2.1379E+07    8.9564E+07    1.7490E-01
      79-      1
       1          -2.0589E+07  2.0739E+06 -3.3539E+08  2.6567E+05  1.1423E+06 -1.6015E+06    3.2674E+08    1.5106E-01
      81-      1
       1          -1.0725E+08 -1.3305E+08 -3.1960E+08  1.2694E+07 -3.4906E+07 -3.3172E+06    2.1083E+08    2.0972E-01



 e l e m e n t   s t r a i n   c a l c u l a t i o n s   f o r   t i m e  s t e p      432   ( at time  7.79815E+01 )

 element  strain       eps-xx      eps-yy      eps-zz      eps-xy      eps-yz      eps-zx                            yield
 num/ipt   state
      45-      1
      1            1.4857E-01  1.0360E-01 -2.4146E-01  2.0086E-02 -1.2077E-02 -3.6183E-02
      47-      1
      1            1.3107E-01  1.4032E-01 -2.4308E-01  4.5107E-02 -3.4332E-02 -3.0703E-02
      53-      1
      1            1.2073E-01  1.3183E-01 -2.3752E-01  4.1915E-02 -3.1525E-02 -2.8662E-02
      61-      1
      1            1.5932E-01  1.0692E-01 -2.5785E-01  8.9346E-03 -7.4441E-03 -3.7518E-02
      67-      1
      1            1.1785E-01  1.3434E-01 -2.3638E-01  2.8529E-02 -3.4791E-02 -1.6774E-02
      79-      1
      1            7.8235E-02  7.1646E-02 -1.5214E-01  2.2823E-03 -2.6563E-03 -2.3656E-03
      81-      1
      1            1.0246E-01  1.4111E-01 -2.4344E-01  4.3564E-03 -3.6990E-02 -1.0588E-03



 e l e m e n t   s t r e s s   c a l c u l a t i o n s   f o r   t i m e  s t e p      441   ( at time 8.02968E+01 )

 element  materl
     ipt  stress       sig-xx      sig-yy      sig-zz      sig-xy      sig-yz      sig-zx                       yield
           state                                                                                  effsg      function
      45-      1
       1          -9.6006E+07 -1.2947E+08 -2.3046E+08 -1.7785E+06 -6.9334E+06 -2.4898E+07    1.2927E+08    1.8206E-01
      47-      1
       1          -6.9352E+07 -7.7607E+07 -1.4711E+08  7.3350E+06 -1.7655E+07 -2.4669E+07    9.1626E+07    1.6728E-01
      53-      1
       1          -8.3545E+07 -7.9681E+07 -2.0005E+08  9.8341E+06 -2.3726E+07 -1.9228E+07    1.3087E+08    1.8992E-01
      61-      1
       1          -1.7216E+07 -4.4791E+07 -1.9926E+08  2.6021E+06 -9.7852E+06 -3.1039E+07    1.7911E+08    2.2918E-01
      67-      1
       1          -8.9881E+07 -1.0147E+08 -1.6849E+08  7.9661E+06 -2.2030E+07 -1.8790E+07    9.0046E+07    1.7718E-01
      79-      1
       1           1.0513E+07  5.1825E+07 -2.9544E+08 -3.2426E+05  2.3464E+06 -1.9255E+06    3.2861E+08    1.5717E-01
      81-      1
       1          -4.9840E+07 -7.3525E+07 -2.6480E+08  1.6211E+07 -3.7265E+07 -1.3748E+06    2.1595E+08    2.1510E-01



 e l e m e n t   s t r a i n   c a l c u l a t i o n s   f o r   t i m e  s t e p      441   ( at time  8.02968E+01 )

 element  strain       eps-xx      eps-yy      eps-zz      eps-xy      eps-yz      eps-zx                            yield
 num/ipt   state
      45-      1
      1            1.5499E-01  1.0713E-01 -2.5055E-01  2.0937E-02 -1.2206E-02 -3.7742E-02
      47-      1
      1            1.3561E-01  1.4498E-01 -2.5173E-01  4.6661E-02 -3.5393E-02 -3.1641E-02
      53-      1
      1            1.2491E-01  1.3636E-01 -2.4589E-01  4.3305E-02 -3.2641E-02 -2.9490E-02
      61-      1
      1            1.6770E-01  1.1168E-01 -2.6915E-01  9.5536E-03 -7.6816E-03 -3.9312E-02
      67-      1
      1            1.2302E-01  1.3805E-01 -2.4399E-01  3.0223E-02 -3.5613E-02 -1.7254E-02
      79-      1
      1            8.0639E-02  7.5534E-02 -1.5788E-01  2.2597E-03 -2.6243E-03 -2.4919E-03
      81-      1
      1            1.0681E-01  1.4501E-01 -2.5085E-01  4.8460E-03 -3.8033E-02 -9.4948E-04



 e l e m e n t   s t r e s s   c a l c u l a t i o n s   f o r   t i m e  s t e p      451   ( at time 8.26121E+01 )

 element  materl
     ipt  stress       sig-xx      sig-yy      sig-zz      sig-xy      sig-yz      sig-zx                       yield
           state                                                                                  effsg      function
      45-      1
       1          -9.6183E+07 -1.2787E+08 -2.3226E+08 -3.9240E+06 -7.8970E+06 -2.4409E+07    1.3126E+08    1.8697E-01
      47-      1
       1          -6.9886E+07 -7.5756E+07 -1.4389E+08  5.9040E+06 -1.8654E+07 -2.7280E+07    9.1966E+07    1.7015E-01
      53-      1
       1          -9.2556E+07 -8.5952E+07 -2.0730E+08  8.7869E+06 -2.2276E+07 -2.0225E+07    1.3006E+08    1.9397E-01
      61-      1
       1          -3.6109E+07 -5.4363E+07 -2.1398E+08 -2.3097E+06 -9.9144E+06 -2.9492E+07    1.7789E+08    2.3554E-01
      67-      1
       1          -8.4190E+07 -8.8405E+07 -1.5999E+08  2.3641E+06 -2.4614E+07 -1.7540E+07    9.0561E+07    1.7997E-01
      79-      1
       1           1.2644E+08  1.6700E+08 -1.7547E+08 -1.3989E+06  3.4586E+05 -3.8108E+06    3.2418E+08    1.6830E-01
      81-      1
       1          -5.2809E+07 -6.5167E+07 -2.2061E+08  2.1566E+07 -3.2394E+07 -4.9461E+06    1.7565E+08    2.2188E-01



 e l e m e n t   s t r a i n   c a l c u l a t i o n s   f o r   t i m e  s t e p      451   ( at time  8.26121E+01 )

 element  strain       eps-xx      eps-yy      eps-zz      eps-xy      eps-yz      eps-zx                            yield
 num/ipt   state
      45-      1
      1            1.6217E-01  1.1115E-01 -2.6069E-01  2.1011E-02 -1.2215E-02 -3.9447E-02
      47-      1
      1            1.4033E-01  1.5098E-01 -2.6130E-01  4.8186E-02 -3.5854E-02 -3.2287E-02
      53-      1
      1            1.2933E-01  1.4148E-01 -2.5484E-01  4.4924E-02 -3.3889E-02 -3.0529E-02
      61-      1
      1            1.7550E-01  1.1668E-01 -2.8112E-01  9.3809E-03 -8.1372E-03 -4.0301E-02
      67-      1
      1            1.2868E-01  1.4489E-01 -2.5420E-01  3.1391E-02 -3.6229E-02 -1.6917E-02
      79-      1
      1            8.5440E-02  8.2296E-02 -1.6785E-01  2.1689E-03 -2.5909E-03 -2.5395E-03
      81-      1
      1            1.1313E-01  1.5240E-01 -2.6236E-01  6.1545E-03 -3.8754E-02 -8.2141E-04



 e l e m e n t   s t r e s s   c a l c u l a t i o n s   f o r   t i m e  s t e p      471   ( at time 8.72427E+01 )

 element  materl
     ipt  stress       sig-xx      sig-yy      sig-zz      sig-xy      sig-yz      sig-zx                       yield
           state                                                                                  effsg      function
      45-      1
       1          -9.6216E+07 -1.2401E+08 -2.2859E+08 -2.3284E+06 -7.7788E+06 -2.8465E+07    1.3132E+08    1.9671E-01
      47-      1
       1          -6.8596E+07 -7.4199E+07 -1.4489E+08  4.6419E+06 -2.0188E+07 -2.5612E+07    9.3164E+07    1.7613E-01
      53-      1
       1          -1.0318E+08 -9.8149E+07 -2.1753E+08  6.6492E+06 -2.5702E+07 -2.0867E+07    1.3076E+08    2.0198E-01
      61-      1
       1          -4.4006E+07 -6.2646E+07 -2.2150E+08 -4.4104E+05 -8.6315E+06 -3.4208E+07    1.7966E+08    2.4820E-01
      67-      1
       1          -7.5240E+07 -8.0889E+07 -1.5310E+08  3.4747E+05 -2.5742E+07 -1.5859E+07    9.1633E+07    1.8581E-01
      79-      1
       1           6.8088E+07  9.9617E+07 -3.5628E+07  1.5243E+06 -3.8575E+06 -2.6167E+06    1.2285E+08    1.7882E-01
      81-      1
       1          -4.6145E+07 -7.3529E+07 -1.7408E+08  1.8060E+07 -2.5229E+07 -9.4339E+06    1.2949E+08    2.3131E-01



 e l e m e n t   s t r a i n   c a l c u l a t i o n s   f o r   t i m e  s t e p      471   ( at time  8.72427E+01 )

 element  strain       eps-xx      eps-yy      eps-zz      eps-xy      eps-yz      eps-zx                            yield
 num/ipt   state
      45-      1
      1            1.7582E-01  1.1974E-01 -2.8128E-01  2.1463E-02 -1.1645E-02 -4.1927E-02
      47-      1
      1            1.5091E-01  1.6145E-01 -2.8091E-01  5.1421E-02 -3.7378E-02 -3.4107E-02
      53-      1
      1            1.3940E-01  1.5087E-01 -2.7347E-01  4.7494E-02 -3.6344E-02 -3.1902E-02
      61-      1
      1            1.9063E-01  1.2630E-01 -3.0457E-01  1.0299E-02 -9.0224E-03 -4.2463E-02
      67-      1
      1            1.4035E-01  1.5811E-01 -2.7422E-01  3.3273E-02 -3.8166E-02 -1.7151E-02
      79-      1
      1            9.2388E-02  9.6714E-02 -1.8416E-01  1.9127E-03 -2.6545E-03 -3.3091E-03
      81-      1
      1            1.2514E-01  1.6561E-01 -2.8265E-01  9.2086E-03 -4.1222E-02 -1.2684E-03



 e l e m e n t   s t r e s s   c a l c u l a t i o n s   f o r   t i m e  s t e p      481   ( at time 8.95580E+01 )

 element  materl
     ipt  stress       sig-xx      sig-yy      sig-zz      sig-xy      sig-yz      sig-zx                       yield
           state                                                                                  effsg      function
      45-      1
       1          -1.1327E+08 -1.3688E+08 -2.4759E+08  2.8153E+06 -9.4224E+06 -2.7085E+07    1.3386E+08    2.0154E-01
      47-      1
       1          -7.4828E+07 -8.1180E+07 -1.5223E+08  6.1259E+06 -2.0870E+07 -2.4486E+07    9.3580E+07    1.7893E-01
      53-      1
       1          -7.1527E+07 -7.6617E+07 -1.9533E+08  6.4756E+06 -2.4782E+07 -2.3534E+07    1.3547E+08    2.0696E-01
      61-      1
       1          -4.5357E+07 -7.3830E+07 -2.3130E+08  2.7401E+05 -6.8801E+06 -3.3688E+07    1.8340E+08    2.5375E-01
      67-      1
       1          -8.2064E+07 -8.5833E+07 -1.5761E+08 -7.7272E+05 -2.6676E+07 -1.7506E+07    9.2156E+07    1.8835E-01
      79-      1
       1           1.0094E+08  1.2750E+08 -6.1830E+06  9.9539E+05 -1.5479E+06 -3.1281E+06    1.2274E+08    1.8155E-01
      81-      1
       1          -6.1329E+07 -8.5058E+07 -1.8215E+08  1.2935E+07 -3.1529E+07 -9.8070E+06    1.2675E+08    2.3515E-01



 e l e m e n t   s t r a i n   c a l c u l a t i o n s   f o r   t i m e  s t e p      481   ( at time  8.95580E+01 )

 element  strain       eps-xx      eps-yy      eps-zz      eps-xy      eps-yz      eps-zx                            yield
 num/ipt   state
      45-      1
      1            1.8318E-01  1.2415E-01 -2.9192E-01  2.3069E-02 -1.2057E-02 -4.3294E-02
      47-      1
      1            1.5488E-01  1.6708E-01 -2.9033E-01  5.3114E-02 -3.7952E-02 -3.5006E-02
      53-      1
      1            1.4554E-01  1.5732E-01 -2.8440E-01  4.8990E-02 -3.7481E-02 -3.3080E-02
      61-      1
      1            1.9771E-01  1.2989E-01 -3.1507E-01  1.0751E-02 -9.3323E-03 -4.3187E-02
      67-      1
      1            1.4438E-01  1.6383E-01 -2.8325E-01  3.3150E-02 -3.8669E-02 -1.7212E-02
      79-      1
      1            9.5385E-02  1.0173E-01 -1.9029E-01  1.6655E-03 -2.7696E-03 -3.7852E-03
      81-      1
      1            1.3007E-01  1.7054E-01 -2.9184E-01  9.0219E-03 -4.1121E-02 -1.3279E-03



 e l e m e n t   s t r e s s   c a l c u l a t i o n s   f o r   t i m e  s t e p      490   ( at time 9.18733E+01 )

 element  materl
     ipt  stress       sig-xx      sig-yy      sig-zz      sig-xy      sig-yz      sig-zx                       yield
           state                                                                                  effsg      function
      45-      1
       1          -9.2677E+07 -1.0770E+08 -2.2758E+08  4.5467E+06 -9.3720E+06 -2.3455E+07    1.3555E+08    2.0559E-01
      47-      1
       1          -7.6415E+07 -8.5816E+07 -1.5665E+08  6.3315E+06 -1.9203E+07 -2.4734E+07    9.3984E+07    1.8132E-01
      53-      1
       1          -5.6180E+07 -6.7353E+07 -1.8711E+08  7.8813E+06 -1.9192E+07 -2.0740E+07    1.3560E+08    2.1064E-01
      61-      1
       1          -4.4558E+07 -6.9236E+07 -2.3029E+08 -1.0401E+06 -6.6428E+06 -3.4352E+07    1.8492E+08    2.5840E-01
      67-      1
       1          -8.0680E+07 -8.7674E+07 -1.5943E+08 -6.7013E+05 -2.6072E+07 -1.6578E+07    9.2549E+07    1.9080E-01
      79-      1
       1           7.4098E+07  8.6057E+07 -1.2096E+06  1.5937E+06 -1.9485E+06 -2.6612E+06    8.2189E+07    1.8333E-01
      81-      1
       1          -5.8442E+07 -7.9205E+07 -1.8319E+08  1.0736E+07 -3.1384E+07 -9.7256E+06    1.3034E+08    2.3894E-01



 e l e m e n t   s t r a i n   c a l c u l a t i o n s   f o r   t i m e  s t e p      490   ( at time  9.18733E+01 )

 element  strain       eps-xx      eps-yy      eps-zz      eps-xy      eps-yz      eps-zx                            yield
 num/ipt   state
      45-      1
      1            1.8905E-01  1.2861E-01 -3.0111E-01  2.3865E-02 -1.2188E-02 -4.4229E-02
      47-      1
      1            1.5917E-01  1.7148E-01 -2.9879E-01  5.4228E-02 -3.8310E-02 -3.5463E-02
      53-      1
      1            1.5038E-01  1.6192E-01 -2.9304E-01  5.0202E-02 -3.8086E-02 -3.3767E-02
      61-      1
      1            2.0343E-01  1.3342E-01 -3.2431E-01  1.0908E-02 -9.5499E-03 -4.3075E-02
      67-      1
      1            1.4929E-01  1.6865E-01 -2.9220E-01  3.3439E-02 -3.9098E-02 -1.7074E-02
      79-      1
      1            9.8582E-02  1.0608E-01 -1.9681E-01  1.6726E-03 -2.7437E-03 -4.0910E-03
      81-      1
      1            1.3498E-01  1.7532E-01 -3.0069E-01  9.4821E-03 -4.1581E-02 -1.6527E-03



 e l e m e n t   s t r e s s   c a l c u l a t i o n s   f o r   t i m e  s t e p      500   ( at time 9.41886E+01 )

 element  materl
     ipt  stress       sig-xx      sig-yy      sig-zz      sig-xy      sig-yz      sig-zx                       yield
           state                                                                                  effsg      function
      45-      1
       1          -8.9237E+07 -1.0986E+08 -2.2711E+08  4.3488E+06 -1.1347E+07 -2.2697E+07    1.3630E+08    2.0976E-01
      47-      1
       1          -7.6116E+07 -8.2150E+07 -1.5664E+08  5.9057E+06 -1.7563E+07 -2.5001E+07    9.4547E+07    1.8417E-01
      53-      1
       1          -5.0754E+07 -6.4628E+07 -1.8438E+08  5.8766E+06 -1.8792E+07 -1.9359E+07    1.3595E+08    2.1517E-01
      61-      1
       1          -4.7275E+07 -7.1771E+07 -2.3392E+08 -1.4930E+06 -5.6416E+06 -3.2481E+07    1.8475E+08    2.6352E-01
      67-      1
       1          -6.7664E+07 -8.0984E+07 -1.5222E+08  1.8917E+06 -2.4663E+07 -1.3325E+07    9.2569E+07    1.9375E-01
      79-      1
       1           4.9987E+07  5.8089E+07  1.2900E+07  1.1644E+06 -7.2619E+06 -6.0880E+05    4.3646E+07    1.8456E-01
      81-      1
       1          -3.5338E+07 -5.4509E+07 -1.5977E+08  1.8308E+07 -2.9443E+07 -6.8066E+06    1.3119E+08    2.4324E-01



 e l e m e n t   s t r a i n   c a l c u l a t i o n s   f o r   t i m e  s t e p      500   ( at time  9.41886E+01 )

 element  strain       eps-xx      eps-yy      eps-zz      eps-xy      eps-yz      eps-zx                            yield
 num/ipt   state
      45-      1
      1            1.9606E-01  1.3234E-01 -3.1110E-01  2.4359E-02 -1.2451E-02 -4.4898E-02
      47-      1
      1            1.6456E-01  1.7693E-01 -3.0875E-01  5.5886E-02 -3.8663E-02 -3.6155E-02
      53-      1
      1            1.5660E-01  1.6681E-01 -3.0331E-01  5.1482E-02 -3.8996E-02 -3.4852E-02
      61-      1
      1            2.0978E-01  1.3720E-01 -3.3430E-01  1.0913E-02 -9.6062E-03 -4.2938E-02
      67-      1
      1            1.5583E-01  1.7476E-01 -3.0236E-01  3.3393E-02 -3.9957E-02 -1.7193E-02
      79-      1
      1            1.0228E-01  1.1339E-01 -2.0483E-01  1.9066E-03 -2.6948E-03 -4.3250E-03
      81-      1
      1            1.4004E-01  1.8107E-01 -3.0918E-01  1.0067E-02 -4.2800E-02 -2.4123E-03



 e l e m e n t   s t r e s s   c a l c u l a t i o n s   f o r   t i m e  s t e p      511   ( at time 9.65039E+01 )

 element  materl
     ipt  stress       sig-xx      sig-yy      sig-zz      sig-xy      sig-yz      sig-zx                       yield
           state                                                                                  effsg      function
      45-      1
       1          -1.0518E+08 -1.2220E+08 -2.4018E+08  4.3764E+06 -1.0760E+07 -2.4305E+07    1.3563E+08    2.1385E-01
      47-      1
       1          -7.9182E+07 -8.6401E+07 -1.5940E+08  4.6507E+06 -1.8666E+07 -2.5767E+07    9.4919E+07    1.8687E-01
      53-      1
       1          -6.0256E+07 -6.9774E+07 -1.9199E+08  4.0378E+06 -1.9215E+07 -2.0291E+07    1.3631E+08    2.1945E-01
      61-      1
       1          -5.9862E+07 -8.5873E+07 -2.4750E+08 -1.7484E+06 -5.0198E+06 -3.4580E+07    1.8622E+08    2.6849E-01
      67-      1
       1          -5.4047E+07 -6.9472E+07 -1.3742E+08 -7.4262E+04 -2.6590E+07 -1.4247E+07    9.2915E+07    1.9650E-01
      79-      1
       1           0.0000E+00  0.0000E+00  0.0000E+00  0.0000E+00  0.0000E+00  0.0000E+00    0.0000E+00    1.8456E-01
      81-      1
       1          -2.0336E+07 -3.8746E+07 -1.8493E+08  1.5434E+07 -2.7621E+07 -8.3284E+06    1.6616E+08    2.4760E-01



 e l e m e n t   s t r a i n   c a l c u l a t i o n s   f o r   t i m e  s t e p      511   ( at time  9.65039E+01 )

 element  strain       eps-xx      eps-yy      eps-zz      eps-xy      eps-yz      eps-zx                            yield
 num/ipt   state
      45-      1
      1            2.0213E-01  1.3600E-01 -3.2095E-01  2.4887E-02 -1.2592E-02 -4.5427E-02
      47-      1
      1            1.6956E-01  1.8172E-01 -3.1815E-01  5.7353E-02 -3.8861E-02 -3.6835E-02
      53-      1
      1            1.6250E-01  1.7166E-01 -3.1348E-01  5.2184E-02 -3.9618E-02 -3.5712E-02
      61-      1
      1            2.1570E-01  1.4066E-01 -3.4410E-01  1.0886E-02 -9.7167E-03 -4.2797E-02
      67-      1
      1            1.6147E-01  1.8032E-01 -3.1143E-01  3.3015E-02 -4.0581E-02 -1.7248E-02
      79-      1
      1            1.0625E-01  1.2020E-01 -2.1269E-01  1.4747E-03 -2.6296E-03 -4.3015E-03
      81-      1
      1            1.4446E-01  1.8640E-01 -3.1757E-01  1.0657E-02 -4.3452E-02 -2.7876E-03



 e l e m e n t   s t r e s s   c a l c u l a t i o n s   f o r   t i m e  s t e p      520   ( at time 9.88192E+01 )

 element  materl
     ipt  stress       sig-xx      sig-yy      sig-zz      sig-xy      sig-yz      sig-zx                       yield
           state                                                                                  effsg      function
      45-      1
       1          -1.0671E+08 -1.1801E+08 -2.4171E+08  2.9449E+06 -1.0300E+07 -2.3134E+07    1.3703E+08    2.1711E-01
      47-      1
       1          -8.3396E+07 -9.2079E+07 -1.6756E+08  3.4510E+06 -1.7489E+07 -2.3708E+07    9.5225E+07    1.8915E-01
      53-      1
       1          -6.3987E+07 -7.1954E+07 -1.9907E+08  2.7893E+06 -1.8492E+07 -1.9204E+07    1.3925E+08    2.2305E-01
      61-      1
       1          -3.7369E+07 -6.2673E+07 -2.2452E+08  2.0891E+05 -3.3884E+06 -3.5723E+07    1.8653E+08    2.7279E-01
      67-      1
       1          -5.0444E+07 -6.3200E+07 -1.3634E+08  1.1641E+06 -2.4472E+07 -1.3070E+07    9.3588E+07    1.9873E-01
      79-      1
       1           0.0000E+00  0.0000E+00  0.0000E+00  0.0000E+00  0.0000E+00  0.0000E+00    0.0000E+00    1.8456E-01
      81-      1
       1          -1.8644E+07 -3.0694E+07 -1.8670E+08  1.3956E+07 -2.7625E+07 -8.9709E+06    1.7169E+08    2.5196E-01



 e l e m e n t   s t r a i n   c a l c u l a t i o n s   f o r   t i m e  s t e p      520   ( at time  9.88192E+01 )

 element  strain       eps-xx      eps-yy      eps-zz      eps-xy      eps-yz      eps-zx                            yield
 num/ipt   state
      45-      1
      1            2.0728E-01  1.3989E-01 -3.2988E-01  2.4940E-02 -1.2624E-02 -4.5099E-02
      47-      1
      1            1.7389E-01  1.8584E-01 -3.2662E-01  5.8054E-02 -3.8870E-02 -3.7370E-02
      53-      1
      1            1.6719E-01  1.7598E-01 -3.2257E-01  5.2828E-02 -3.9975E-02 -3.6173E-02
      61-      1
      1            2.2049E-01  1.4397E-01 -3.5233E-01  1.1317E-02 -9.6581E-03 -4.2303E-02
      67-      1
      1            1.6588E-01  1.8474E-01 -3.1939E-01  3.3044E-02 -4.1140E-02 -1.7253E-02
      79-      1
      1            1.0864E-01  1.2557E-01 -2.1869E-01  1.4989E-03 -2.0013E-03 -4.2261E-03
      81-      1
      1            1.4845E-01  1.9109E-01 -3.2540E-01  1.1261E-02 -4.4149E-02 -3.1051E-03



 e l e m e n t   s t r e s s   c a l c u l a t i o n s   f o r   t i m e  s t e p      529   ( at time 1.00000E+02 )

 element  materl
     ipt  stress       sig-xx      sig-yy      sig-zz      sig-xy      sig-yz      sig-zx                       yield
           state                                                                                  effsg      function
      45-      1
       1          -1.2222E+08 -1.3391E+08 -2.5665E+08  3.2636E+06 -1.1046E+07 -2.3364E+07    1.3664E+08    2.1924E-01
      47-      1
       1          -8.9958E+07 -1.0129E+08 -1.6958E+08  2.2222E+06 -1.9367E+07 -2.8212E+07    9.5361E+07    1.9072E-01
      53-      1
       1          -7.4423E+07 -8.1044E+07 -2.0598E+08  4.1555E+06 -1.9620E+07 -2.0132E+07    1.3749E+08    2.2548E-01
      61-      1
       1          -4.4608E+07 -7.0162E+07 -2.3223E+08  3.4417E+05 -4.1346E+06 -3.6686E+07    1.8748E+08    2.7543E-01
      67-      1
       1          -5.6213E+07 -7.6190E+07 -1.3912E+08 -7.4645E+05 -2.9141E+07 -1.4041E+07    9.3580E+07    2.0037E-01
      79-      1
       1           0.0000E+00  0.0000E+00  0.0000E+00  0.0000E+00  0.0000E+00  0.0000E+00    0.0000E+00    1.8456E-01
      81-      1
       1          -1.4561E+07 -3.2117E+07 -1.8166E+08  1.3781E+07 -3.0518E+07 -7.6373E+06    1.6981E+08    2.5503E-01



 e l e m e n t   s t r a i n   c a l c u l a t i o n s   f o r   t i m e  s t e p      529   ( at time  1.00000E+02 )

 element  strain       eps-xx      eps-yy      eps-zz      eps-xy      eps-yz      eps-zx                            yield
 num/ipt   state
      45-      1
      1            2.1046E-01  1.4194E-01 -3.3535E-01  2.5234E-02 -1.2725E-02 -4.5140E-02
      47-      1
      1            1.7752E-01  1.8804E-01 -3.3242E-01  5.8689E-02 -3.8475E-02 -3.7485E-02
      53-      1
      1            1.6992E-01  1.7889E-01 -3.2864E-01  5.3438E-02 -4.0088E-02 -3.6434E-02
      61-      1
      1            2.2357E-01  1.4577E-01 -3.5754E-01  1.1290E-02 -9.6719E-03 -4.2127E-02
      67-      1
      1            1.6956E-01  1.8744E-01 -3.2490E-01  3.2968E-02 -4.1262E-02 -1.7202E-02
      79-      1
      1            1.1061E-01  1.3027E-01 -2.2343E-01  1.3038E-03 -1.9282E-03 -4.1507E-03
      81-      1
      1            1.5128E-01  1.9424E-01 -3.3051E-01  1.1649E-02 -4.4684E-02 -3.3959E-03
