 LS-DYNA keyword deck by LS-PrePost                                      
                    ls-dyna smp d R14 R14.1.1s_1_ef50e1 date 06/16/2024



 n o d a l  s t r e s s  c a l c u l a t i o n s   f o r   t i m e  s t e p        1   ( at time 0.00000E+00 )

 node (global)
          stress       sig-xx      sig-yy      sig-zz      sig-xy      sig-yz      sig-zx       plastic
                                                                                                 strain 
     229-
 mid.  surface    -2.7323E-05 -2.7323E-05 -2.7323E-05  0.0000E+00  0.0000E+00  0.0000E+00  0.0000E+00
     230-
 mid.  surface     4.6806E-05  4.6806E-05  4.6806E-05  0.0000E+00  0.0000E+00  0.0000E+00  0.0000E+00
     232-
 mid.  surface    -1.2041E-04 -1.2041E-04 -1.2041E-04  0.0000E+00  0.0000E+00  0.0000E+00  0.0000E+00
     233-
 mid.  surface    -4.6276E-05 -4.6276E-05 -4.6276E-05  0.0000E+00  0.0000E+00  0.0000E+00  0.0000E+00
     240-
 mid.  surface     0.0000E+00  0.0000E+00  0.0000E+00  0.0000E+00  0.0000E+00  0.0000E+00  0.0000E+00
     244-
 mid.  surface     0.0000E+00  0.0000E+00  0.0000E+00  0.0000E+00  0.0000E+00  0.0000E+00  0.0000E+00
     252-
 mid.  surface    -4.6276E-05 -4.6276E-05 -4.6276E-05  0.0000E+00  0.0000E+00  0.0000E+00  0.0000E+00
     253-
 mid.  surface    -1.0448E-04 -1.0448E-04 -1.0448E-04  0.0000E+00  0.0000E+00  0.0000E+00  0.0000E+00
     254-
 mid.  surface     0.0000E+00  0.0000E+00  0.0000E+00  0.0000E+00  0.0000E+00  0.0000E+00  0.0000E+00
     255-
 mid.  surface     0.0000E+00  0.0000E+00  0.0000E+00  0.0000E+00  0.0000E+00  0.0000E+00  0.0000E+00
     256-
 mid.  surface     5.1935E-05  5.1935E-05  5.1935E-05  0.0000E+00  0.0000E+00  0.0000E+00  0.0000E+00
     257-
 mid.  surface     7.2772E-05  7.2772E-05  7.2772E-05  0.0000E+00  0.0000E+00  0.0000E+00  0.0000E+00
     258-
 mid.  surface     5.2767E-05  5.2767E-05  5.2767E-05  0.0000E+00  0.0000E+00  0.0000E+00  0.0000E+00
     259-
 mid.  surface     4.7638E-05  4.7638E-05  4.7638E-05  0.0000E+00  0.0000E+00  0.0000E+00  0.0000E+00
     260-
 mid.  surface     7.2857E-06  7.2857E-06  7.2857E-06  0.0000E+00  0.0000E+00  0.0000E+00  0.0000E+00
     261-
 mid.  surface     2.5968E-05  2.5968E-05  2.5968E-05  0.0000E+00  0.0000E+00  0.0000E+00  0.0000E+00
     262-
 mid.  surface    -2.4607E-05 -2.4607E-05 -2.4607E-05  0.0000E+00  0.0000E+00  0.0000E+00  0.0000E+00
     263-
 mid.  surface    -4.5444E-05 -4.5444E-05 -4.5444E-05  0.0000E+00  0.0000E+00  0.0000E+00  0.0000E+00
     264-
 mid.  surface     7.7901E-05  7.7901E-05  7.7901E-05  0.0000E+00  0.0000E+00  0.0000E+00  0.0000E+00
     265-
 mid.  surface    -2.5439E-05 -2.5439E-05 -2.5439E-05  0.0000E+00  0.0000E+00  0.0000E+00  0.0000E+00
     266-
 mid.  surface     5.2722E-07  5.2722E-07  5.2722E-07  0.0000E+00  0.0000E+00  0.0000E+00  0.0000E+00
     267-
 mid.  surface    -8.5796E-05 -8.5796E-05 -8.5796E-05  0.0000E+00  0.0000E+00  0.0000E+00  0.0000E+00
     273-
 mid.  surface     0.0000E+00  0.0000E+00  0.0000E+00  0.0000E+00  0.0000E+00  0.0000E+00  0.0000E+00
     275-
 mid.  surface     0.0000E+00  0.0000E+00  0.0000E+00  0.0000E+00  0.0000E+00  0.0000E+00  0.0000E+00
     276-
 mid.  surface     7.5271E-05  7.5271E-05  7.5271E-05  0.0000E+00  0.0000E+00  0.0000E+00  0.0000E+00
     277-
 mid.  surface     7.5271E-05  7.5271E-05  7.5271E-05  0.0000E+00  0.0000E+00  0.0000E+00  0.0000E+00
     278-
 mid.  surface    -6.9218E-05 -6.9218E-05 -6.9218E-05  0.0000E+00  0.0000E+00  0.0000E+00  0.0000E+00
     279-
 mid.  surface    -6.9218E-05 -6.9218E-05 -6.9218E-05  0.0000E+00  0.0000E+00  0.0000E+00  0.0000E+00
     282-
 mid.  surface     1.7326E-05  1.7326E-05  1.7326E-05  0.0000E+00  0.0000E+00  0.0000E+00  0.0000E+00
     283-
 mid.  surface    -6.0048E-05 -6.0048E-05 -6.0048E-05  0.0000E+00  0.0000E+00  0.0000E+00  0.0000E+00
     286-
 mid.  surface     5.3602E-05  5.3602E-05  5.3602E-05  0.0000E+00  0.0000E+00  0.0000E+00  0.0000E+00
     287-
 mid.  surface     1.6236E-05  1.6236E-05  1.6236E-05  0.0000E+00  0.0000E+00  0.0000E+00  0.0000E+00
     290-
 mid.  surface     0.0000E+00  0.0000E+00  0.0000E+00  0.0000E+00  0.0000E+00  0.0000E+00  0.0000E+00
     291-
 mid.  surface     0.0000E+00  0.0000E+00  0.0000E+00  0.0000E+00  0.0000E+00  0.0000E+00  0.0000E+00
     292-
 mid.  surface     9.5276E-05  9.5276E-05  9.5276E-05  0.0000E+00  0.0000E+00  0.0000E+00  0.0000E+00
     293-
 mid.  surface     5.3601E-05  5.3601E-05  5.3601E-05  0.0000E+00  0.0000E+00  0.0000E+00  0.0000E+00



 n o d a l  s t r a i n  c a l c u l a t i o n s   f o r   t i m e  s t e p        1   ( at time 0.00000E+00 )

 node (global)
          strain       eps-xx      eps-yy      eps-zz      eps-xy      eps-yz      eps-zx       
     229-
 mid.  surface     0.0000E+00  0.0000E+00  0.0000E+00  0.0000E+00  0.0000E+00  0.0000E+00
     230-
 mid.  surface     0.0000E+00  0.0000E+00  0.0000E+00  0.0000E+00  0.0000E+00  0.0000E+00
     232-
 mid.  surface     0.0000E+00  0.0000E+00  0.0000E+00  0.0000E+00  0.0000E+00  0.0000E+00
     233-
 mid.  surface     0.0000E+00  0.0000E+00  0.0000E+00  0.0000E+00  0.0000E+00  0.0000E+00
     240-
 mid.  surface     0.0000E+00  0.0000E+00  0.0000E+00  0.0000E+00  0.0000E+00  0.0000E+00
     244-
 mid.  surface     0.0000E+00  0.0000E+00  0.0000E+00  0.0000E+00  0.0000E+00  0.0000E+00
     252-
 mid.  surface     0.0000E+00  0.0000E+00  0.0000E+00  0.0000E+00  0.0000E+00  0.0000E+00
     253-
 mid.  surface     0.0000E+00  0.0000E+00  0.0000E+00  0.0000E+00  0.0000E+00  0.0000E+00
     254-
 mid.  surface     0.0000E+00  0.0000E+00  0.0000E+00  0.0000E+00  0.0000E+00  0.0000E+00
     255-
 mid.  surface     0.0000E+00  0.0000E+00  0.0000E+00  0.0000E+00  0.0000E+00  0.0000E+00
     256-
 mid.  surface     0.0000E+00  0.0000E+00  0.0000E+00  0.0000E+00  0.0000E+00  0.0000E+00
     257-
 mid.  surface     0.0000E+00  0.0000E+00  0.0000E+00  0.0000E+00  0.0000E+00  0.0000E+00
     258-
 mid.  surface     0.0000E+00  0.0000E+00  0.0000E+00  0.0000E+00  0.0000E+00  0.0000E+00
     259-
 mid.  surface     0.0000E+00  0.0000E+00  0.0000E+00  0.0000E+00  0.0000E+00  0.0000E+00
     260-
 mid.  surface     0.0000E+00  0.0000E+00  0.0000E+00  0.0000E+00  0.0000E+00  0.0000E+00
     261-
 mid.  surface     0.0000E+00  0.0000E+00  0.0000E+00  0.0000E+00  0.0000E+00  0.0000E+00
     262-
 mid.  surface     0.0000E+00  0.0000E+00  0.0000E+00  0.0000E+00  0.0000E+00  0.0000E+00
     263-
 mid.  surface     0.0000E+00  0.0000E+00  0.0000E+00  0.0000E+00  0.0000E+00  0.0000E+00
     264-
 mid.  surface     0.0000E+00  0.0000E+00  0.0000E+00  0.0000E+00  0.0000E+00  0.0000E+00
     265-
 mid.  surface     0.0000E+00  0.0000E+00  0.0000E+00  0.0000E+00  0.0000E+00  0.0000E+00
     266-
 mid.  surface     0.0000E+00  0.0000E+00  0.0000E+00  0.0000E+00  0.0000E+00  0.0000E+00
     267-
 mid.  surface     0.0000E+00  0.0000E+00  0.0000E+00  0.0000E+00  0.0000E+00  0.0000E+00
     273-
 mid.  surface     0.0000E+00  0.0000E+00  0.0000E+00  0.0000E+00  0.0000E+00  0.0000E+00
     275-
 mid.  surface     0.0000E+00  0.0000E+00  0.0000E+00  0.0000E+00  0.0000E+00  0.0000E+00
     276-
 mid.  surface     0.0000E+00  0.0000E+00  0.0000E+00  0.0000E+00  0.0000E+00  0.0000E+00
     277-
 mid.  surface     0.0000E+00  0.0000E+00  0.0000E+00  0.0000E+00  0.0000E+00  0.0000E+00
     278-
 mid.  surface     0.0000E+00  0.0000E+00  0.0000E+00  0.0000E+00  0.0000E+00  0.0000E+00
     279-
 mid.  surface     0.0000E+00  0.0000E+00  0.0000E+00  0.0000E+00  0.0000E+00  0.0000E+00
     282-
 mid.  surface     0.0000E+00  0.0000E+00  0.0000E+00  0.0000E+00  0.0000E+00  0.0000E+00
     283-
 mid.  surface     0.0000E+00  0.0000E+00  0.0000E+00  0.0000E+00  0.0000E+00  0.0000E+00
     286-
 mid.  surface     0.0000E+00  0.0000E+00  0.0000E+00  0.0000E+00  0.0000E+00  0.0000E+00
     287-
 mid.  surface     0.0000E+00  0.0000E+00  0.0000E+00  0.0000E+00  0.0000E+00  0.0000E+00
     290-
 mid.  surface     0.0000E+00  0.0000E+00  0.0000E+00  0.0000E+00  0.0000E+00  0.0000E+00
     291-
 mid.  surface     0.0000E+00  0.0000E+00  0.0000E+00  0.0000E+00  0.0000E+00  0.0000E+00
     292-
 mid.  surface     0.0000E+00  0.0000E+00  0.0000E+00  0.0000E+00  0.0000E+00  0.0000E+00
     293-
 mid.  surface     0.0000E+00  0.0000E+00  0.0000E+00  0.0000E+00  0.0000E+00  0.0000E+00



 n o d a l  s t r e s s  c a l c u l a t i o n s   f o r   t i m e  s t e p        6   ( at time 2.50000E+00 )

 node (global)
          stress       sig-xx      sig-yy      sig-zz      sig-xy      sig-yz      sig-zx       plastic
                                                                                                 strain 
     229-
 mid.  surface    -3.8875E+07 -3.1521E+06 -1.0757E+08  8.6395E+06 -1.9844E+07  2.7854E+06  0.0000E+00
     230-
 mid.  surface    -3.9385E+07 -1.5077E+07 -1.3128E+08  1.5625E+07 -6.1704E+06  9.0911E+06  0.0000E+00
     232-
 mid.  surface    -1.9643E+07  2.2629E+07 -9.7625E+07  1.1393E+07  6.3843E+06 -5.9241E+06  0.0000E+00
     233-
 mid.  surface    -7.3261E+06  1.8999E+07 -9.8634E+07  1.9640E+07 -8.1605E+06 -1.6485E+07  0.0000E+00
     240-
 mid.  surface    -3.6394E+07 -3.7488E+07 -7.8047E+07 -8.5569E+05  4.0764E+05  8.2488E+05  0.0000E+00
     244-
 mid.  surface    -4.1520E+07 -4.1725E+07 -8.2122E+07 -7.7952E+05  1.6229E+06  1.1729E+06  0.0000E+00
     252-
 mid.  surface    -3.1552E+07 -3.4974E+07 -1.5776E+08  1.2429E+07 -4.5568E+06  8.9763E+06  0.0000E+00
     253-
 mid.  surface     5.6995E+06  4.3820E+05 -1.1883E+08  1.9137E+07 -9.5494E+06 -2.2576E+07  0.0000E+00
     254-
 mid.  surface    -3.4763E+07 -3.3178E+07 -7.8018E+07 -2.4030E+05  4.3364E+05 -1.2119E+06  0.0000E+00
     255-
 mid.  surface    -4.0045E+07 -3.7650E+07 -8.2222E+07  8.1822E+04  2.9400E+06 -8.4543E+05  0.0000E+00
     256-
 mid.  surface    -2.9933E+07 -2.9028E+07 -1.5390E+08  1.4259E+06 -7.0594E+06  1.0513E+06  0.0000E+00
     257-
 mid.  surface    -6.8614E+07 -8.0886E+07 -2.0349E+08  1.0121E+07  1.7689E+06 -3.7079E+07  0.0000E+00
     258-
 mid.  surface    -6.3655E+07 -8.4485E+07 -1.9026E+08  4.5078E+06  2.5330E+06 -3.8544E+07  0.0000E+00
     259-
 mid.  surface    -3.5251E+07 -2.8578E+07 -1.6498E+08 -1.5673E+06 -4.8332E+06 -4.4722E+06  0.0000E+00
     260-
 mid.  surface     9.1704E+06 -3.1246E+06 -1.2520E+08  1.1004E+07 -1.0370E+06 -1.1909E+07  0.0000E+00
     261-
 mid.  surface    -3.5388E+07 -3.6104E+07 -1.6963E+08  2.3998E+07 -4.3956E+07 -1.9434E+07  0.0000E+00
     262-
 mid.  surface    -1.5357E+07 -4.7825E+07 -1.5893E+08  1.6079E+07 -2.6557E+07 -3.0585E+07  0.0000E+00
     263-
 mid.  surface     1.1518E+07 -7.5303E+06 -1.3804E+08  5.4232E+06  7.2060E+05 -6.4858E+06  0.0000E+00
     264-
 mid.  surface    -5.3554E+07 -4.4417E+07 -2.0607E+08  1.4178E+07 -1.8113E+07 -2.7470E+07  0.0000E+00
     265-
 mid.  surface    -5.7199E+07 -6.9383E+07 -2.1525E+08  1.5201E+07 -1.3314E+06 -3.1602E+07  0.0000E+00
     266-
 mid.  surface    -3.3443E+07 -4.8068E+06 -1.7779E+08  1.1708E+07 -4.5321E+07 -1.4267E+06  0.0000E+00
     267-
 mid.  surface    -3.3310E+07 -1.9583E+07 -1.7629E+08  2.0370E+07 -5.2490E+07 -1.2492E+07  0.0000E+00
     273-
 mid.  surface    -3.3595E+07 -3.6024E+07 -7.7071E+07  7.1887E+05 -1.5367E+06  6.9264E+05  0.0000E+00
     275-
 mid.  surface    -3.8745E+07 -4.0300E+07 -8.1080E+07  5.4877E+05 -3.2435E+05  1.7947E+06  0.0000E+00
     276-
 mid.  surface    -6.2077E+07 -8.5362E+07 -1.8705E+08  1.4749E+07  1.2265E+07 -3.7944E+07  0.0000E+00
     277-
 mid.  surface    -3.8558E+07 -2.7678E+07 -1.7331E+08  1.1101E+07 -6.5973E+06 -6.9719E+06  0.0000E+00
     278-
 mid.  surface    -7.1016E+06 -5.2924E+07 -1.5672E+08  2.4007E+07 -5.9173E+06 -3.6074E+07  0.0000E+00
     279-
 mid.  surface     1.2195E+07 -8.0629E+06 -1.4610E+08  1.6911E+07 -4.7415E+06 -5.9759E+06  0.0000E+00
     282-
 mid.  surface    -5.5383E+07 -4.0969E+07 -2.0522E+08  8.7649E+06 -4.3089E+07 -1.9161E+07  0.0000E+00
     283-
 mid.  surface    -4.3145E+07 -1.6198E+07 -2.0062E+08  5.8518E+06 -2.4406E+07  5.0014E+06  0.0000E+00
     286-
 mid.  surface    -4.3079E+07 -3.4235E+06 -1.0531E+08 -7.7742E+05 -3.0380E+07  4.8480E+06  0.0000E+00
     287-
 mid.  surface    -3.1100E+07  1.8299E+07 -1.0914E+08 -3.9798E+06  1.5046E+07  3.5748E+06  0.0000E+00
     290-
 mid.  surface    -3.1848E+07 -3.1592E+07 -7.6998E+07  1.3664E+06 -2.9335E+06 -2.0548E+06  0.0000E+00
     291-
 mid.  surface    -3.7137E+07 -3.6100E+07 -8.0945E+07  1.4187E+06 -4.2742E+05 -9.5679E+05  0.0000E+00
     292-
 mid.  surface    -5.9681E+07 -4.2650E+07 -2.1037E+08  2.0359E+05 -5.7067E+07 -1.2715E+07  0.0000E+00
     293-
 mid.  surface    -5.2049E+07 -2.4636E+07 -2.1934E+08 -6.9463E+06 -1.2332E+07  3.8539E+06  0.0000E+00



 n o d a l  s t r a i n  c a l c u l a t i o n s   f o r   t i m e  s t e p        6   ( at time 2.50000E+00 )

 node (global)
          strain       eps-xx      eps-yy      eps-zz      eps-xy      eps-yz      eps-zx       
     229-
 mid.  surface    -2.6701E-05  6.5417E-04 -1.3371E-03  1.6491E-04 -3.7950E-04  5.3154E-05
     230-
 mid.  surface     1.3657E-04  5.9909E-04 -1.6166E-03  2.9829E-04 -1.1830E-04  1.7362E-04
     232-
 mid.  surface     7.8004E-05  8.8496E-04 -1.4108E-03  2.1758E-04  1.2206E-04 -1.1330E-04
     233-
 mid.  surface     2.7652E-04  7.7848E-04 -1.4666E-03  3.7512E-04 -1.5560E-04 -3.1501E-04
     240-
 mid.  surface     3.1751E-05  1.0865E-05 -7.6315E-04 -1.6326E-05  7.7578E-06  1.5725E-05
     244-
 mid.  surface    -1.8195E-06 -5.7104E-06 -7.7667E-04 -1.4874E-05  3.0988E-05  2.2404E-05
     252-
 mid.  surface     4.7026E-04  4.0334E-04 -1.9378E-03  2.3731E-04 -8.7397E-05  1.7151E-04
     253-
 mid.  surface     6.4801E-04  5.4669E-04 -1.7293E-03  3.6553E-04 -1.8202E-04 -4.3123E-04
     254-
 mid.  surface     3.4310E-05  6.4574E-05 -7.9115E-04 -4.5869E-06  8.2346E-06 -2.3119E-05
     255-
 mid.  surface     2.6269E-07  4.5985E-05 -8.0465E-04  1.5619E-06  5.6136E-05 -1.6128E-05
     256-
 mid.  surface     4.4625E-04  4.6229E-04 -1.9190E-03  2.7079E-05 -1.3531E-04  1.9968E-05
     257-
 mid.  surface     3.7723E-04  1.4357E-04 -2.1968E-03  1.9325E-04  3.4546E-05 -7.0673E-04
     258-
 mid.  surface     4.0229E-04  4.8474E-06 -2.0135E-03  8.6116E-05  4.8694E-05 -7.3496E-04
     259-
 mid.  surface     4.2064E-04  5.4748E-04 -2.0548E-03 -2.9992E-05 -9.2649E-05 -8.5639E-05
     260-
 mid.  surface     7.4503E-04  5.0940E-04 -1.8200E-03  2.1014E-04 -1.9302E-05 -2.2717E-04
     261-
 mid.  surface     4.7630E-04  4.6327E-04 -2.0856E-03  4.5784E-04 -8.3918E-04 -3.7080E-04
     262-
 mid.  surface     7.6815E-04  1.4871E-04 -1.9721E-03  3.0683E-04 -5.0692E-04 -5.8345E-04
     263-
 mid.  surface     8.6100E-04  4.9667E-04 -1.9947E-03  1.0363E-04  1.4123E-05 -1.2320E-04
     264-
 mid.  surface     4.3017E-04  6.0551E-04 -2.4808E-03  2.7063E-04 -3.4415E-04 -5.2343E-04
     265-
 mid.  surface     5.4145E-04  3.0998E-04 -2.4755E-03  2.9034E-04 -2.4100E-05 -6.0201E-04
     266-
 mid.  surface     3.9289E-04  9.4015E-04 -2.3619E-03  2.2330E-04 -8.6558E-04 -2.7231E-05
     267-
 mid.  surface     4.5828E-04  7.2124E-04 -2.2706E-03  3.8866E-04 -1.0024E-03 -2.3849E-04
     273-
 mid.  surface     6.0116E-05  1.3756E-05 -7.6957E-04  1.3718E-05 -2.9312E-05  1.3192E-05
     275-
 mid.  surface     2.6090E-05 -3.6001E-06 -7.8185E-04  1.0472E-05 -6.1842E-06  3.4276E-05
     276-
 mid.  surface     4.1377E-04 -3.0703E-05 -1.9708E-03  2.8127E-04  2.3363E-04 -7.2361E-04
     277-
 mid.  surface     4.0875E-04  6.1615E-04 -2.1628E-03  2.1188E-04 -1.2602E-04 -1.3335E-04
     278-
 mid.  surface     9.0015E-04  2.5633E-05 -1.9554E-03  4.5828E-04 -1.1275E-04 -6.8815E-04
     279-
 mid.  surface     9.1171E-04  5.2435E-04 -2.1110E-03  3.2284E-04 -9.0361E-05 -1.1327E-04
     282-
 mid.  surface     3.8353E-04  6.5887E-04 -2.4759E-03  1.6720E-04 -8.2085E-04 -3.6530E-04
     283-
 mid.  surface     4.1815E-04  9.3251E-04 -2.5869E-03  1.1155E-04 -4.6605E-04  9.5515E-05
     286-
 mid.  surface    -9.6438E-05  6.5994E-04 -1.2837E-03 -1.4850E-05 -5.8073E-04  9.2358E-05
     287-
 mid.  surface    -1.0195E-05  9.3323E-04 -1.5004E-03 -7.5869E-05  2.8739E-04  6.8130E-05
     290-
 mid.  surface     6.3545E-05  6.8434E-05 -7.9808E-04  2.6075E-05 -5.5957E-05 -3.9200E-05
     291-
 mid.  surface     2.8340E-05  4.8142E-05 -8.0769E-04  2.7070E-05 -8.1500E-06 -1.8252E-05
     292-
 mid.  surface     3.5477E-04  6.7983E-04 -2.5210E-03  3.9560E-06 -1.0877E-03 -2.4233E-04
     293-
 mid.  surface     4.2093E-04  9.4403E-04 -2.7716E-03 -1.3266E-04 -2.3542E-04  7.3542E-05



 n o d a l  s t r e s s  c a l c u l a t i o n s   f o r   t i m e  s t e p       10   ( at time 6.46223E+00 )

 node (global)
          stress       sig-xx      sig-yy      sig-zz      sig-xy      sig-yz      sig-zx       plastic
                                                                                                 strain 
     229-
 mid.  surface    -7.6911E+07 -6.4272E+06 -2.6149E+08  1.9004E+07 -3.6751E+07 -4.7037E+06  2.5976E-04
     230-
 mid.  surface    -8.3645E+07 -4.4170E+07 -3.2493E+08  4.0479E+07  1.5771E+07  4.7654E+06  2.7470E-04
     232-
 mid.  surface    -2.5244E+07  7.5704E+07 -2.2233E+08  2.3181E+07  2.2777E+07 -2.3338E+06  3.1622E-04
     233-
 mid.  surface     7.2653E+06  5.9437E+07 -1.9368E+08  4.5400E+07 -3.6798E+07 -2.6408E+07  3.9473E-04
     240-
 mid.  surface    -1.0255E+08 -1.0620E+08 -2.0003E+08 -5.6421E+06  2.6713E+06  4.2677E+06  0.0000E+00
     244-
 mid.  surface    -1.1742E+08 -1.1981E+08 -2.1363E+08 -5.0873E+06  6.0248E+06  2.6428E+06  0.0000E+00
     252-
 mid.  surface    -7.7870E+07 -1.1549E+08 -3.6091E+08  3.5391E+07  3.2405E+07  6.4111E+06  5.2000E-04
     253-
 mid.  surface     2.2028E+07 -5.0820E+06 -2.0598E+08  4.3375E+07 -4.4021E+07 -3.5870E+07  6.8386E-04
     254-
 mid.  surface    -9.5217E+07 -8.2921E+07 -2.0405E+08 -5.4681E+05  2.7192E+06 -2.9230E+06  0.0000E+00
     255-
 mid.  surface    -1.1132E+08 -9.8430E+07 -2.1899E+08  3.8397E+05  1.3417E+07 -4.3413E+06  0.0000E+00
     256-
 mid.  surface    -7.4850E+07 -1.2373E+08 -3.3316E+08 -8.1648E+05  2.5973E+07 -5.5203E+06  6.7681E-04
     257-
 mid.  surface    -2.2033E+08 -2.2738E+08 -4.5549E+08  2.9553E+07  1.8219E+07 -7.4833E+07  7.1414E-04
     258-
 mid.  surface    -1.9843E+08 -2.3134E+08 -4.2288E+08  1.6618E+07  1.3293E+07 -8.8036E+07  6.3195E-04
     259-
 mid.  surface    -1.0368E+08 -1.2095E+08 -3.5313E+08 -1.2153E+07  1.2182E+07 -2.2998E+07  6.9025E-04
     260-
 mid.  surface     2.3047E+07 -3.1327E+07 -2.1687E+08  1.9489E+07 -2.4705E+07 -6.6637E+06  8.2772E-04
     261-
 mid.  surface    -1.2630E+08 -9.5483E+07 -3.2240E+08  5.4499E+07 -1.1048E+08 -2.4193E+07  8.9526E-04
     262-
 mid.  surface    -7.3267E+07 -1.1734E+08 -3.1642E+08  4.1713E+07 -7.0954E+07 -5.2766E+07  7.5217E-04
     263-
 mid.  surface     1.2090E+07 -4.4712E+07 -2.6200E+08  6.6976E+06 -1.1020E+07  1.9988E+07  8.8222E-04
     264-
 mid.  surface    -1.9447E+08 -1.6495E+08 -4.2684E+08  2.9741E+07 -2.4048E+07 -5.2324E+07  9.4535E-04
     265-
 mid.  surface    -2.0612E+08 -2.0097E+08 -4.6723E+08  3.7667E+07  1.1147E+07 -5.9490E+07  8.0346E-04
     266-
 mid.  surface    -1.2202E+08 -5.7908E+07 -2.9544E+08  1.9557E+07 -9.2666E+07  1.2485E+07  1.2120E-03
     267-
 mid.  surface    -1.2813E+08 -6.9656E+07 -3.0535E+08  3.9522E+07 -1.1561E+08 -5.2430E+06  1.1128E-03
     273-
 mid.  surface    -8.6272E+07 -9.9465E+07 -1.9909E+08  2.8562E+06 -5.8834E+06  3.4980E+06  0.0000E+00
     275-
 mid.  surface    -1.0185E+08 -1.1364E+08 -2.1293E+08  2.8510E+06 -2.5143E+06  6.7299E+06  0.0000E+00
     276-
 mid.  surface    -1.8580E+08 -2.3098E+08 -4.1232E+08  3.5717E+07  4.1118E+07 -9.4981E+07  5.6686E-04
     277-
 mid.  surface    -1.1631E+08 -1.1329E+08 -3.7305E+08  1.5004E+07  1.3088E+07 -3.4725E+07  6.4701E-04
     278-
 mid.  surface    -5.1807E+07 -1.3388E+08 -3.1999E+08  5.6404E+07 -1.1125E+07 -6.5993E+07  6.9563E-04
     279-
 mid.  surface     6.6694E+06 -4.7630E+07 -2.9353E+08  3.2766E+07 -1.4445E+06  2.7832E+07  8.7173E-04
     282-
 mid.  surface    -2.0039E+08 -1.8215E+08 -3.7591E+08  1.9313E+07 -7.8856E+07 -3.8213E+07  1.2911E-03
     283-
 mid.  surface    -1.5327E+08 -1.0154E+08 -3.5668E+08  1.3183E+07 -4.0369E+07  1.8476E+07  1.2397E-03
     286-
 mid.  surface    -7.6586E+07  7.4224E+06 -2.6299E+08  1.7082E+06 -8.7037E+07 -3.8145E+06  2.2229E-05
     287-
 mid.  surface    -5.4641E+07  7.1663E+07 -2.9505E+08 -8.1829E+06  6.3168E+07  9.9396E+06  5.4741E-05
     290-
 mid.  surface    -7.8331E+07 -7.5536E+07 -2.0282E+08  8.1344E+06 -1.3941E+07 -8.3438E+06  0.0000E+00
     291-
 mid.  surface    -9.4881E+07 -9.1411E+07 -2.1675E+08  8.3683E+06 -3.1467E+06 -5.0485E+06  0.0000E+00
     292-
 mid.  surface    -2.0381E+08 -1.8188E+08 -3.7699E+08  6.5203E+06 -1.2061E+08 -2.8988E+07  1.2352E-03
     293-
 mid.  surface    -1.8102E+08 -1.1872E+08 -4.4443E+08 -5.7264E+06 -1.0180E+07  9.0730E+06  9.3384E-04



 n o d a l  s t r a i n  c a l c u l a t i o n s   f o r   t i m e  s t e p       10   ( at time 6.46223E+00 )

 node (global)
          strain       eps-xx      eps-yy      eps-zz      eps-xy      eps-yz      eps-zx       
     229-
 mid.  surface     2.3267E-05  2.0873E-03 -3.7497E-03  5.0039E-04 -1.2143E-03  1.2467E-04
     230-
 mid.  surface     4.2594E-04  1.9943E-03 -4.5688E-03  9.5853E-04 -1.5520E-04  5.3210E-04
     232-
 mid.  surface     3.0166E-04  2.8738E-03 -3.9911E-03  6.9664E-04  2.4412E-04 -3.5120E-04
     233-
 mid.  surface     8.6121E-04  2.4953E-03 -3.9573E-03  1.2000E-03 -8.7922E-04 -1.0256E-03
     240-
 mid.  surface    -2.6805E-06 -7.2253E-05 -1.8629E-03 -1.0765E-04  5.1159E-05  8.1553E-05
     244-
 mid.  surface    -8.4965E-05 -1.3063E-04 -1.9211E-03 -9.7067E-05  1.1509E-04  5.0503E-05
     252-
 mid.  surface     1.4309E-03  1.3790E-03 -5.4407E-03  9.7335E-04  5.7359E-07  5.5043E-04
     253-
 mid.  surface     1.9801E-03  1.7454E-03 -4.6227E-03  1.2708E-03 -9.8730E-04 -1.4180E-03
     254-
 mid.  surface     1.0028E-05  2.4473E-04 -2.0669E-03 -1.0446E-05  5.2028E-05 -5.5706E-05
     255-
 mid.  surface    -7.4574E-05  1.7157E-04 -2.1293E-03  7.3280E-06  2.5589E-04 -8.2923E-05
     256-
 mid.  surface     1.5402E-03  1.2773E-03 -5.3435E-03  3.2924E-04 -1.7138E-04  7.8800E-05
     257-
 mid.  surface     1.4053E-03  6.0094E-04 -6.2966E-03  6.9129E-04  2.7276E-04 -1.9069E-03
     258-
 mid.  surface     1.4164E-03  1.1861E-04 -5.5832E-03  2.8270E-04  1.9416E-04 -2.3230E-03
     259-
 mid.  surface     1.4719E-03  1.5137E-03 -5.7326E-03 -1.1398E-05 -1.8289E-04 -4.6870E-04
     260-
 mid.  surface     2.3969E-03  1.4554E-03 -4.9231E-03  7.9007E-04 -3.6438E-04 -7.9430E-04
     261-
 mid.  surface     1.6989E-03  1.5239E-03 -5.8148E-03  1.4023E-03 -2.6197E-03 -1.1725E-03
     262-
 mid.  surface     2.5484E-03  6.0054E-04 -5.5607E-03  9.3522E-04 -1.5876E-03 -1.5322E-03
     263-
 mid.  surface     2.8163E-03  1.4201E-03 -5.6409E-03  3.7838E-04 -6.8772E-05 -2.3007E-04
     264-
 mid.  surface     1.3186E-03  1.9504E-03 -7.0093E-03  9.0355E-04 -7.6686E-04 -1.2662E-03
     265-
 mid.  surface     1.7505E-03  1.2036E-03 -7.1115E-03  1.0320E-03  1.5958E-04 -1.4779E-03
     266-
 mid.  surface     1.3406E-03  2.8366E-03 -6.4497E-03  8.4441E-04 -2.6653E-03 -3.7223E-04
     267-
 mid.  surface     1.6099E-03  2.2566E-03 -6.2710E-03  1.2746E-03 -3.0915E-03 -9.3589E-04
     273-
 mid.  surface     1.9350E-04 -5.8341E-05 -1.9595E-03  5.4500E-05 -1.1215E-04  6.6840E-05
     275-
 mid.  surface     1.0484E-04 -1.2012E-04 -2.0151E-03  5.4413E-05 -4.8105E-05  1.2834E-04
     276-
 mid.  surface     1.3993E-03 -4.2128E-06 -5.3299E-03  8.3416E-04  7.8866E-04 -2.5523E-03
     277-
 mid.  surface     1.4060E-03  1.7792E-03 -6.0506E-03  6.3034E-04 -3.0858E-04 -8.3843E-04
     278-
 mid.  surface     2.9548E-03  2.2470E-04 -5.5828E-03  1.4229E-03 -3.4627E-04 -1.6397E-03
     279-
 mid.  surface     3.0031E-03  1.5503E-03 -6.1482E-03  1.0251E-03 -2.8617E-04  2.0770E-05
     282-
 mid.  surface     1.1481E-03  2.0305E-03 -6.7867E-03  5.6905E-04 -2.4125E-03 -9.5255E-04
     283-
 mid.  surface     1.3025E-03  2.9329E-03 -7.1468E-03  4.9738E-04 -1.2903E-03  1.1364E-04
     286-
 mid.  surface    -1.3984E-04  2.0025E-03 -3.4411E-03  8.8096E-05 -2.2365E-03  1.1990E-04
     287-
 mid.  surface     6.2665E-05  3.0082E-03 -4.3892E-03 -8.4420E-05  1.1860E-03  1.3842E-04
     290-
 mid.  surface     2.1032E-04  2.6363E-04 -2.1654E-03  1.5523E-04 -2.6619E-04 -1.5931E-04
     291-
 mid.  surface     1.1633E-04  1.8254E-04 -2.2093E-03  1.5968E-04 -6.0405E-05 -9.6557E-05
     292-
 mid.  surface     1.0523E-03  1.9973E-03 -6.6764E-03  2.0511E-04 -3.6344E-03 -6.6997E-04
     293-
 mid.  surface     1.2657E-03  2.9925E-03 -7.7922E-03 -1.6416E-04 -2.3148E-04  1.4941E-04



 n o d a l  s t r e s s  c a l c u l a t i o n s   f o r   t i m e  s t e p      163   ( at time 9.37702E+00 )

 node (global)
          stress       sig-xx      sig-yy      sig-zz      sig-xy      sig-yz      sig-zx       plastic
                                                                                                 strain 
     229-
 mid.  surface     6.0499E+07  7.5843E+07  2.5989E+07  2.5382E+07 -6.4308E+07  1.5468E+07  3.1799E-02
     230-
 mid.  surface    -2.4212E+08 -1.5864E+08 -2.8040E+08 -2.0365E+07  1.0013E+08  1.1648E+08  2.3243E-02
     232-
 mid.  surface     2.1524E+08  3.7542E+08  1.9343E+08 -2.2561E+07  2.2707E+08  8.1560E+05  3.7708E-02
     233-
 mid.  surface     1.5456E+08  2.4946E+08  1.4312E+08 -2.2063E+07 -2.5359E+07 -7.1959E+07  1.8692E-02
     240-
 mid.  surface    -1.0412E+09 -7.7715E+08 -5.5178E+07 -3.1337E+08  2.6512E+08  1.8581E+08  3.6635E-03
     244-
 mid.  surface    -8.0970E+08 -8.9772E+08 -1.3980E+08 -2.1014E+08  4.0622E+08  3.0171E+08  4.4621E-03
     252-
 mid.  surface    -3.8479E+07  5.3716E+07 -3.3403E+08  7.5568E+07  1.0427E+08  9.3825E+07  7.4118E-03
     253-
 mid.  surface     4.9943E+08  5.3606E+08  2.9021E+08  7.7158E+07 -2.3040E+08 -1.7787E+08  1.1962E-03
     254-
 mid.  surface    -7.2686E+08 -9.1702E+06 -1.3326E+08  1.0654E+08  1.0004E+08 -1.8221E+08  2.4216E-04
     255-
 mid.  surface    -7.5735E+08 -4.1676E+08 -2.7564E+08  1.1263E+08  3.6049E+08 -4.9102E+07  4.1056E-03
     256-
 mid.  surface    -4.1444E+08 -4.1595E+08 -5.2653E+08 -1.6648E+06  1.6072E+08  1.5291E+08  2.9989E-02
     257-
 mid.  surface    -4.4500E+08 -5.1932E+08 -5.8059E+08 -1.1079E+07  8.6612E+07  7.3590E+07  2.1665E-02
     258-
 mid.  surface     5.0854E+07  2.4293E+07  2.8815E+08 -4.1578E+07  3.5139E+07 -2.1323E+08  9.6904E-02
     259-
 mid.  surface     2.2905E+07 -5.5705E+07  1.1994E+08 -9.1759E+07  6.6632E+07 -1.1491E+08  9.3615E-02
     260-
 mid.  surface    -1.5538E+08 -1.2890E+08 -1.2539E+08 -3.0669E+07 -9.4553E+07 -1.5877E+07  3.1159E-02
     261-
 mid.  surface    -2.5546E+08 -2.6953E+08 -1.7221E+08 -2.5202E+07 -1.9310E+08 -4.5737E+07  2.6197E-02
     262-
 mid.  surface     7.2745E+08  7.3860E+08  7.2323E+08  4.9268E+07 -1.3512E+08  1.5051E+08  7.8366E-02
     263-
 mid.  surface     3.1238E+08  2.8300E+08  1.7634E+08  3.4241E+07 -8.6181E+07  2.3541E+08  7.5133E-02
     264-
 mid.  surface    -3.8809E+08 -4.0582E+08 -4.7416E+08 -7.4998E+06  5.3058E+07  3.9914E+06  2.3522E-02
     265-
 mid.  surface    -2.8707E+08 -2.5027E+08 -6.1367E+08  1.0544E+08  8.0594E+07  2.8792E+07  3.2975E-03
     266-
 mid.  surface    -6.1841E+07 -9.5439E+07 -8.6062E+07  1.1223E+06 -1.1335E+08 -4.3768E+07  2.1104E-02
     267-
 mid.  surface     3.2365E+08  3.0104E+08  1.0368E+08  1.0745E+08 -2.9548E+08 -1.7548E+08 -2.1615E-03
     273-
 mid.  surface     2.5262E+08 -1.2978E+08 -3.0912E+08 -4.8222E+07 -3.4875E+08  2.3522E+07 -1.6722E-03
     275-
 mid.  surface     2.8141E+08 -4.3931E+08 -4.9393E+08  4.9048E+07 -1.6471E+08  4.1523E+08  1.6226E-03
     276-
 mid.  surface    -4.7841E+08 -2.1359E+08 -3.2285E+08  1.1007E+08  2.2622E+07 -9.5081E+08 -3.8787E-02
     277-
 mid.  surface    -4.7909E+08 -4.3377E+08 -5.6018E+08 -2.8481E+07 -2.3341E+07 -8.2133E+08 -6.1299E-02
     278-
 mid.  surface    -1.5988E+09 -1.5174E+09 -2.6225E+09  4.1871E+08  1.7973E+08  6.1585E+08 -9.6689E-02
     279-
 mid.  surface    -1.1371E+09 -1.2905E+09 -2.3809E+09  3.0853E+08  1.5516E+08  7.6990E+08 -1.0574E-01
     282-
 mid.  surface    -1.1312E+08 -2.2040E+08 -5.0854E+07  5.0404E+07 -1.6634E+08 -5.4519E+07  4.2194E-02
     283-
 mid.  surface     5.3780E+07  9.3775E+07  5.6619E+07  5.8268E+05  8.3460E+07  3.6632E+06  4.4544E-02
     286-
 mid.  surface     3.7524E+07  8.4949E+07 -3.8450E+08  6.5803E+07 -3.2372E+08 -8.6984E+07 -3.1454E-02
     287-
 mid.  surface    -1.6655E+08  6.3225E+07 -6.7485E+08  9.8669E+06  2.1928E+08 -1.4623E+06 -2.2552E-02
     290-
 mid.  surface     5.4709E+08  5.8007E+08 -1.7939E+08  3.5684E+08 -5.0698E+08 -5.1080E+08  9.6072E-05
     291-
 mid.  surface     5.5829E+08  2.3925E+08 -6.2371E+08  4.2661E+08 -3.5922E+08 -2.1902E+08 -3.6889E-03
     292-
 mid.  surface    -1.5775E+08 -2.7420E+08 -4.4987E+08  1.1762E+08 -4.8504E+08 -1.1865E+08 -1.0939E-02
     293-
 mid.  surface    -4.3620E+08 -3.6931E+08 -8.8903E+08  5.1998E+07  2.3604E+07 -2.7863E+07 -1.6313E-02



 n o d a l  s t r a i n  c a l c u l a t i o n s   f o r   t i m e  s t e p      163   ( at time 9.37702E+00 )

 node (global)
          strain       eps-xx      eps-yy      eps-zz      eps-xy      eps-yz      eps-zx       
     229-
 mid.  surface     2.3845E-03  6.6498E-03 -8.4349E-03  2.8592E-03 -9.9668E-03  1.4363E-03
     230-
 mid.  surface     3.3841E-03  4.0218E-03 -1.0653E-02  1.5774E-03  7.8089E-04  3.3411E-03
     232-
 mid.  surface     2.1542E-03  1.3551E-02 -1.2135E-02  2.5173E-03  3.6429E-03 -3.8401E-03
     233-
 mid.  surface     2.6586E-03  7.2375E-03 -7.1820E-03  1.3498E-03 -4.5235E-03 -6.3465E-03
     240-
 mid.  surface    -1.3347E-02 -5.8676E-03  1.0171E-02 -7.8292E-03  4.5320E-03  2.6426E-03
     244-
 mid.  surface    -9.0590E-03 -9.4463E-03  9.8529E-03 -6.2745E-03 -2.6562E-03 -5.4344E-03
     252-
 mid.  surface     8.1245E-03  9.4001E-03 -1.9099E-02  4.7945E-03  9.2529E-03  7.9465E-03
     253-
 mid.  surface     6.3166E-03  7.4912E-03 -7.3540E-03  3.2773E-03 -1.6980E-02 -1.4482E-02
     254-
 mid.  surface    -1.2747E-02  8.4194E-03  1.8592E-04  4.2921E-03  4.3219E-03  5.5025E-03
     255-
 mid.  surface    -8.5644E-03  2.7331E-03 -9.0696E-04  3.5497E-03  3.2176E-03 -2.3337E-03
     256-
 mid.  surface     3.7268E-03  6.5562E-03 -1.6826E-02  2.0560E-03  8.3822E-03  6.0809E-03
     257-
 mid.  surface     3.5298E-03  3.2336E-03 -1.4421E-02  1.9427E-03  8.9067E-03  2.2915E-03
     258-
 mid.  surface     1.6404E-02  4.2334E-03 -1.9271E-02  1.0478E-02  1.1188E-02  8.9901E-03
     259-
 mid.  surface     1.7404E-02  6.7241E-03 -2.4713E-02  7.1115E-03  1.0539E-02  1.3205E-02
     260-
 mid.  surface     3.5451E-03  3.7694E-03 -9.1028E-03 -1.6369E-03 -1.0541E-02 -6.6908E-03
     261-
 mid.  surface     1.2819E-03  7.3231E-04 -5.5766E-03 -1.0329E-04 -1.5167E-02 -7.0725E-03
     262-
 mid.  surface     1.0766E-02  6.1054E-03 -5.5628E-03  5.4013E-03 -1.7988E-02 -1.7297E-02
     263-
 mid.  surface     1.0192E-02  7.1499E-03 -1.3336E-02  4.9739E-03 -1.4960E-02 -1.4518E-02
     264-
 mid.  surface     5.6168E-03  2.6149E-03 -1.4325E-02  1.8657E-03  7.5520E-04 -2.4108E-03
     265-
 mid.  surface     7.8144E-03  7.3173E-03 -2.0815E-02  6.6360E-03  1.2536E-02  4.7167E-03
     266-
 mid.  surface     4.8378E-03  4.9932E-03 -1.1002E-02  2.5556E-03 -8.5856E-03 -2.7808E-03
     267-
 mid.  surface     5.7762E-03  5.1834E-03 -7.7032E-03  5.3948E-03 -1.9529E-02 -1.0475E-02
     273-
 mid.  surface     8.5848E-03 -5.4323E-03 -4.0620E-03 -1.7382E-03  1.3805E-03  1.6016E-03
     275-
 mid.  surface     1.1283E-02 -9.0860E-03 -5.1903E-03  6.4238E-04 -5.9873E-03  3.5533E-03
     276-
 mid.  surface    -1.0696E-02  4.8309E-03  6.0955E-04  4.6296E-03  1.1240E-02 -6.8297E-02
     277-
 mid.  surface    -9.7940E-03  2.6920E-03 -1.0103E-03 -5.1620E-03  4.6548E-03 -5.7639E-02
     278-
 mid.  surface     5.9458E-03  1.0949E-02 -4.2905E-02  1.3571E-02 -2.9991E-03  4.8258E-02
     279-
 mid.  surface     9.0156E-03  8.1631E-03 -3.9953E-02  1.3203E-02 -2.6056E-03  6.0185E-02
     282-
 mid.  surface     6.5225E-03  6.5425E-03 -1.5064E-02  3.6135E-03 -1.2469E-02 -2.8586E-03
     283-
 mid.  surface     6.6835E-03  1.3767E-02 -1.9515E-02  2.6922E-03 -2.2079E-04 -1.7162E-03
     286-
 mid.  surface     4.6070E-04 -1.4131E-03 -3.3032E-04  2.1125E-03 -3.2880E-02 -2.5185E-03
     287-
 mid.  surface     1.5308E-03  1.4667E-02 -2.0024E-02  1.8008E-04  2.7149E-02 -6.1210E-04
     290-
 mid.  surface     9.2571E-03  8.8122E-03 -1.3718E-02  1.0502E-02 -5.9044E-03 -5.5845E-03
     291-
 mid.  surface     1.1974E-02  3.1748E-03 -1.4131E-02  1.0507E-02 -6.9315E-03 -3.5336E-03
     292-
 mid.  surface     6.5335E-03 -1.6385E-03 -9.1037E-03  4.7437E-03 -3.9820E-02 -5.1453E-03
     293-
 mid.  surface     8.4572E-03  1.4327E-02 -3.0798E-02  3.2007E-04  1.9821E-02 -9.7149E-04



 n o d a l  s t r e s s  c a l c u l a t i o n s   f o r   t i m e  s t e p      169   ( at time 1.08379E+01 )

 node (global)
          stress       sig-xx      sig-yy      sig-zz      sig-xy      sig-yz      sig-zx       plastic
                                                                                                 strain 
     229-
 mid.  surface     9.2083E+07  1.4166E+08 -3.5427E+07  1.4994E+07 -6.2816E+07  5.0749E+06  3.4209E-02
     230-
 mid.  surface    -1.7925E+08 -1.1837E+08 -3.1510E+08  1.1981E+07  6.4663E+07  7.1610E+07  2.6815E-02
     232-
 mid.  surface     3.3163E+08  4.7229E+08  2.1457E+08 -7.0422E+06  1.2284E+08 -1.1192E+07  4.0898E-02
     233-
 mid.  surface     2.9996E+08  3.8720E+08  1.9008E+08  9.5844E+06 -8.2070E+07 -7.0200E+07  2.1358E-02
     240-
 mid.  surface    -8.7290E+08 -7.0812E+08 -4.4309E+08 -2.2524E+08  1.8209E+08  1.4406E+08 -8.7706E-04
     244-
 mid.  surface    -7.0396E+08 -8.2909E+08 -4.2309E+08 -1.6581E+08  2.5952E+08  1.5256E+08  2.2280E-03
     252-
 mid.  surface     4.5616E+06  7.4740E+07 -2.2451E+08  6.6290E+07  1.1357E+08  7.7283E+07  1.2873E-02
     253-
 mid.  surface     5.0065E+08  5.3557E+08  3.1761E+08  3.9482E+07 -1.6867E+08 -1.1333E+08  4.4532E-03
     254-
 mid.  surface    -5.7145E+08 -7.3161E+06 -3.3430E+08  9.6851E+07  7.9317E+07 -5.5399E+07 -1.5408E-03
     255-
 mid.  surface    -6.7558E+08 -4.2908E+08 -4.2826E+08  7.5401E+07  2.6420E+08 -3.0306E+07  4.9977E-03
     256-
 mid.  surface    -3.9381E+08 -3.6705E+08 -5.5851E+08  2.6859E+07  9.4110E+07  9.5984E+07  3.4742E-02
     257-
 mid.  surface    -4.2532E+08 -4.8872E+08 -7.3231E+08  1.3898E+07  8.2798E+07 -3.3430E+06  2.2686E-02
     258-
 mid.  surface     3.8841E+07 -4.7520E+07 -3.5406E+07  2.8674E+07  8.4712E+07 -9.8885E+07  9.4404E-02
     259-
 mid.  surface     4.6706E+08  3.0426E+08  6.9134E+07 -5.8643E+07  1.2133E+08 -1.1869E+08  9.8928E-02
     260-
 mid.  surface    -7.9018E+07 -5.4664E+07 -1.3311E+08 -5.9500E+05 -1.5038E+08 -3.5337E+07  3.5617E-02
     261-
 mid.  surface    -2.0283E+08 -1.8453E+08 -3.1036E+08  1.4966E+07 -2.3941E+08 -4.3575E+07  2.7547E-02
     262-
 mid.  surface    -1.1104E+08 -3.2036E+06  4.0017E+07  8.2450E+07 -2.1741E+08  3.2977E+08  7.4438E-02
     263-
 mid.  surface    -1.1046E+08 -8.9724E+07 -2.6905E+08 -1.6941E+07 -1.1876E+08  2.7055E+08  7.8276E-02
     264-
 mid.  surface    -3.7126E+08 -3.9473E+08 -5.7049E+08  1.7681E+07  3.3728E+07 -3.0751E+07  2.7124E-02
     265-
 mid.  surface    -2.9750E+08 -2.7542E+08 -6.0101E+08  7.9198E+07  1.1417E+08 -4.2086E+06  7.1657E-03
     266-
 mid.  surface     4.1980E+06  9.0493E+06 -1.3478E+08  1.8460E+07 -1.4788E+08 -3.4747E+07  2.4033E-02
     267-
 mid.  surface     2.4251E+08  2.5500E+08  1.1977E+07  5.5155E+07 -2.2841E+08 -8.4527E+07 -3.0773E-04
     273-
 mid.  surface     1.5882E+08 -1.4097E+08 -3.2939E+08 -3.1013E+07 -2.4343E+08  4.3324E+06 -1.0009E-03
     275-
 mid.  surface     1.3608E+08 -4.4021E+08 -4.3614E+08  3.7461E+07 -1.2676E+08  2.4500E+08  4.1400E-03
     276-
 mid.  surface     1.5858E+08  2.4588E+08  1.3231E+08  4.0845E+07  1.7511E+08 -7.5507E+08 -3.0686E-02
     277-
 mid.  surface     2.3021E+08  1.8158E+08 -1.8898E+08 -1.2791E+08  1.4363E+08 -6.4951E+08 -4.9681E-02
     278-
 mid.  surface    -2.4347E+09 -2.2098E+09 -2.4656E+09  3.3444E+08 -6.1411E+06  3.9401E+08 -9.3637E-02
     279-
 mid.  surface    -1.0025E+09 -1.0534E+09 -1.7825E+09  1.2628E+08  8.6212E+07  3.7752E+08 -9.1361E-02
     282-
 mid.  surface    -1.3075E+08 -1.8419E+08 -2.2763E+08  3.6812E+07 -1.2715E+08 -5.8536E+07  4.5935E-02
     283-
 mid.  surface     1.0479E+08  1.4797E+08 -1.6557E+07  9.0719E+06  2.3588E+07  6.0233E+06  4.8989E-02
     286-
 mid.  surface    -1.7129E+07  3.6170E+07 -3.0020E+08  4.4850E+07 -2.6679E+08 -4.8397E+07 -2.8869E-02
     287-
 mid.  surface    -1.7470E+08 -1.2607E+07 -5.3602E+08 -2.5604E+07  1.6052E+08  7.1524E+06 -1.8601E-02
     290-
 mid.  surface     4.5285E+08  5.2547E+08 -4.8860E+07  2.8020E+08 -3.7490E+08 -3.2370E+08  3.7025E-03
     291-
 mid.  surface     3.9878E+08  1.5989E+08 -4.2857E+08  3.1505E+08 -2.5847E+08 -1.7636E+08  7.0054E-04
     292-
 mid.  surface    -2.5397E+08 -3.1874E+08 -4.7466E+08  8.9586E+07 -3.4387E+08 -8.6542E+07 -6.4239E-03
     293-
 mid.  surface    -4.9944E+08 -4.4856E+08 -8.5434E+08  9.4421E+06  3.0591E+07 -8.9673E+06 -1.1696E-02



 n o d a l  s t r a i n  c a l c u l a t i o n s   f o r   t i m e  s t e p      169   ( at time 1.08379E+01 )

 node (global)
          strain       eps-xx      eps-yy      eps-zz      eps-xy      eps-yz      eps-zx       
     229-
 mid.  surface     2.9065E-03  8.4119E-03 -1.0554E-02  3.1770E-03 -1.0942E-02  1.3993E-03
     230-
 mid.  surface     4.7179E-03  6.1251E-03 -1.3776E-02  2.6476E-03  9.8905E-04  3.7846E-03
     232-
 mid.  surface     2.7878E-03  1.6339E-02 -1.4451E-02  2.9833E-03  3.2723E-03 -4.2411E-03
     233-
 mid.  surface     3.8219E-03  9.6889E-03 -9.2361E-03  2.2015E-03 -6.4706E-03 -7.4866E-03
     240-
 mid.  surface    -1.3075E-02 -5.9484E-03  9.2662E-03 -8.1726E-03  4.6100E-03  2.7338E-03
     244-
 mid.  surface    -8.0720E-03 -1.0035E-02  8.9403E-03 -6.4925E-03 -2.3490E-03 -5.8438E-03
     252-
 mid.  surface     9.4196E-03  1.1891E-02 -2.2071E-02  5.9920E-03  1.0007E-02  8.1788E-03
     253-
 mid.  surface     7.0529E-03  8.6648E-03 -9.1194E-03  3.1683E-03 -1.8802E-02 -1.5766E-02
     254-
 mid.  surface    -1.2464E-02  9.7568E-03 -1.6456E-03  4.0395E-03  4.4819E-03  5.7727E-03
     255-
 mid.  surface    -7.5778E-03  3.2618E-03 -2.8178E-03  3.1735E-03  4.1467E-03 -2.5379E-03
     256-
 mid.  surface     5.3135E-03  8.9274E-03 -2.0622E-02  3.1912E-03  8.7299E-03  6.4272E-03
     257-
 mid.  surface     5.8610E-03  4.4818E-03 -1.8499E-02  2.4845E-03  1.0894E-02  1.3557E-03
     258-
 mid.  surface     2.0588E-02  4.9431E-03 -2.2352E-02  1.1128E-02  1.2041E-02  8.3485E-03
     259-
 mid.  surface     2.0429E-02  9.3697E-03 -3.0258E-02  7.6566E-03  1.0077E-02  1.3992E-02
     260-
 mid.  surface     5.4680E-03  5.5228E-03 -1.2117E-02 -1.0383E-03 -1.1947E-02 -7.5273E-03
     261-
 mid.  surface     2.6719E-03  2.4470E-03 -8.7073E-03  6.8434E-04 -1.8285E-02 -7.1529E-03
     262-
 mid.  surface     1.1846E-02  6.5873E-03 -7.6544E-03  5.5533E-03 -1.9867E-02 -1.7246E-02
     263-
 mid.  surface     1.0970E-02  8.8530E-03 -1.7937E-02  3.9185E-03 -1.5081E-02 -1.4095E-02
     264-
 mid.  surface     7.7140E-03  4.4963E-03 -1.8643E-02  2.7276E-03  1.3711E-03 -3.0741E-03
     265-
 mid.  surface     9.5941E-03  9.1826E-03 -2.4581E-02  7.5347E-03  1.4666E-02  4.0230E-03
     266-
 mid.  surface     6.2220E-03  7.4461E-03 -1.4278E-02  3.1338E-03 -1.1022E-02 -2.7368E-03
     267-
 mid.  surface     6.1816E-03  6.1301E-03 -1.0096E-02  5.0043E-03 -2.1899E-02 -1.0199E-02
     273-
 mid.  surface     8.7800E-03 -5.4158E-03 -4.8656E-03 -1.4803E-03  1.0628E-03  1.6475E-03
     275-
 mid.  surface     1.2170E-02 -9.5878E-03 -5.9895E-03  1.1200E-03 -6.0660E-03  3.0673E-03
     276-
 mid.  surface    -8.8548E-03  5.2597E-03 -1.2549E-03  3.8638E-03  1.4028E-02 -6.9340E-02
     277-
 mid.  surface    -7.9373E-03  5.5796E-03 -8.1757E-03 -7.3244E-03  5.4587E-03 -5.3984E-02
     278-
 mid.  surface     6.5873E-03  1.0704E-02 -4.2349E-02  1.6063E-02 -2.8724E-03  4.2918E-02
     279-
 mid.  surface     8.1041E-03  1.0855E-02 -4.4055E-02  1.4054E-02 -2.0730E-03  5.9051E-02
     282-
 mid.  surface     8.2051E-03  8.3128E-03 -1.9275E-02  3.9579E-03 -1.3868E-02 -3.8612E-03
     283-
 mid.  surface     8.3713E-03  1.6749E-02 -2.4040E-02  2.9389E-03 -1.2122E-03 -1.5728E-03
     286-
 mid.  surface     8.0194E-04 -2.1745E-04 -1.9613E-03  2.6156E-03 -3.5168E-02 -2.6026E-03
     287-
 mid.  surface     2.2841E-03  1.6794E-02 -2.2652E-02 -6.0826E-04  2.7774E-02 -5.1748E-04
     290-
 mid.  surface     9.4492E-03  1.0226E-02 -1.5413E-02  1.0844E-02 -6.8502E-03 -5.3298E-03
     291-
 mid.  surface     1.2864E-02  3.7883E-03 -1.5841E-02  1.0831E-02 -7.0625E-03 -3.7705E-03
     292-
 mid.  surface     8.0087E-03 -2.5979E-04 -1.2750E-02  5.4404E-03 -4.2794E-02 -6.1008E-03
     293-
 mid.  surface     1.0206E-02  1.6797E-02 -3.5529E-02 -5.8239E-04  1.9864E-02 -9.2985E-04



 n o d a l  s t r e s s  c a l c u l a t i o n s   f o r   t i m e  s t e p      177   ( at time 1.31532E+01 )

 node (global)
          stress       sig-xx      sig-yy      sig-zz      sig-xy      sig-yz      sig-zx       plastic
                                                                                                 strain 
     229-
 mid.  surface     1.7329E+08  2.3632E+08  1.9427E+07  2.0655E+07 -5.3319E+07  7.4283E+06  4.2036E-02
     230-
 mid.  surface    -1.2254E+08 -8.5589E+07 -2.8544E+08  2.3362E+07  2.6713E+07  4.3267E+07  3.5584E-02
     232-
 mid.  surface     5.2136E+08  6.3553E+08  3.9099E+08 -6.2485E+05  3.6384E+07 -1.7427E+07  5.0421E-02
     233-
 mid.  surface     4.5636E+08  5.1433E+08  3.1612E+08  1.9201E+07 -8.1587E+07 -6.2639E+07  2.9505E-02
     240-
 mid.  surface    -9.5412E+08 -8.3463E+08 -8.4686E+08 -1.7442E+08  1.3731E+08  1.0245E+08 -5.9650E-03
     244-
 mid.  surface    -7.5917E+08 -8.7999E+08 -6.8046E+08 -1.2440E+08  1.5754E+08  5.0772E+07  2.5247E-03
     252-
 mid.  surface     5.7169E+07  9.4405E+07 -1.9445E+08  4.9474E+07  1.2248E+08  9.5997E+07  2.0866E-02
     253-
 mid.  surface     5.1782E+08  5.5106E+08  3.1584E+08  1.1936E+07 -1.3511E+08 -7.7875E+07  8.8633E-03
     254-
 mid.  surface    -5.4348E+08 -6.6882E+07 -5.1469E+08  7.4727E+07  5.6394E+07  7.9970E+06 -2.6181E-03
     255-
 mid.  surface    -7.1261E+08 -5.1396E+08 -5.8004E+08  4.8037E+07  1.9359E+08 -2.9693E+07  1.1412E-02
     256-
 mid.  surface    -3.8620E+08 -3.3131E+08 -5.9529E+08  5.0075E+07  6.8671E+07  7.9640E+07  4.4380E-02
     257-
 mid.  surface    -4.0976E+08 -4.7050E+08 -7.5479E+08  2.4154E+07  8.2729E+07  1.2989E+06  2.8327E-02
     258-
 mid.  surface     1.2047E+08  3.8637E+07  2.5612E+07  2.8957E+07  8.0164E+07 -1.5255E+07  9.8581E-02
     259-
 mid.  surface     4.4469E+08  3.2590E+08  2.3059E+07 -1.2054E+07  1.1662E+08 -6.4649E+07  1.1795E-01
     260-
 mid.  surface    -2.9545E+07  3.9278E+07 -1.1917E+08  1.0882E+07 -1.6769E+08 -6.4958E+07  4.4539E-02
     261-
 mid.  surface    -1.5649E+08 -1.5350E+08 -3.1752E+08  8.5144E+06 -2.2730E+08 -6.5672E+07  3.3048E-02
     262-
 mid.  surface    -1.5166E+08 -2.6576E+07  9.3846E+07  7.3786E+07 -2.1489E+08  2.4570E+08  6.8103E-02
     263-
 mid.  surface    -3.0575E+08 -2.2854E+08 -3.6967E+08  1.8789E+07 -1.3091E+08  1.7251E+08  8.5477E-02
     264-
 mid.  surface    -3.8918E+08 -4.0393E+08 -6.0219E+08  2.1958E+07  1.9564E+07 -4.8896E+07  3.6230E-02
     265-
 mid.  surface    -2.8127E+08 -2.9427E+08 -6.1608E+08  5.5247E+07  1.2585E+08  4.3961E+05  1.2278E-02
     266-
 mid.  surface     5.0862E+07  6.8859E+07 -1.2510E+08  2.0756E+07 -1.2833E+08 -2.9023E+07  3.2337E-02
     267-
 mid.  surface     1.8405E+08  1.7500E+08 -6.5490E+07  2.1128E+07 -1.9016E+08 -6.6311E+07  2.2200E-03
     273-
 mid.  surface     1.0607E+08 -1.4636E+08 -3.8306E+08 -1.7698E+07 -1.5194E+08  3.8666E+06 -1.5220E-03
     275-
 mid.  surface    -1.4349E+07 -4.7141E+08 -4.3143E+08  4.4634E+07 -9.7928E+07  1.4996E+08  1.0669E-02
     276-
 mid.  surface     3.8857E+08  3.6920E+08  1.4012E+08 -4.0228E+07  1.8526E+08 -5.5912E+08 -1.3799E-02
     277-
 mid.  surface     1.6384E+08  7.0984E+07 -4.3468E+08 -1.3459E+08  1.7924E+08 -4.6659E+08 -2.7113E-02
     278-
 mid.  surface    -2.5512E+09 -2.3875E+09 -2.5266E+09  2.1073E+08 -5.1992E+07  2.7054E+08 -1.0308E-01
     279-
 mid.  surface    -1.2980E+09 -1.3429E+09 -2.0284E+09  7.5673E+07  5.5986E+07  2.0728E+08 -7.4122E-02
     282-
 mid.  surface    -1.3820E+08 -1.5830E+08 -3.1778E+08  3.4893E+07 -7.4937E+07 -4.6531E+07  5.6019E-02
     283-
 mid.  surface     1.8881E+08  2.2787E+08  3.0040E+07  7.8330E+06 -2.9561E+06  4.4839E+06  6.0941E-02
     286-
 mid.  surface     9.3590E+06  5.1466E+07 -2.7431E+08  4.4522E+07 -2.5841E+08 -3.3318E+07 -2.8253E-02
     287-
 mid.  surface    -1.6272E+08 -3.0728E+07 -4.9206E+08 -4.3580E+07  1.2666E+08  1.1246E+07 -1.4434E-02
     290-
 mid.  surface     5.2790E+08  6.1326E+08  1.6389E+08  2.2452E+08 -2.9039E+08 -2.1441E+08  1.1033E-02
     291-
 mid.  surface     3.5475E+08  1.8872E+08 -2.6819E+08  2.4242E+08 -2.0204E+08 -1.3680E+08  6.7999E-03
     292-
 mid.  surface    -3.0642E+08 -3.6042E+08 -5.8961E+08  8.3406E+07 -2.9015E+08 -7.2718E+07 -2.0199E-03
     293-
 mid.  surface    -5.7873E+08 -5.3740E+08 -9.4823E+08 -1.2039E+07  5.2860E+07 -4.6833E+06 -5.5881E-03



 n o d a l  s t r a i n  c a l c u l a t i o n s   f o r   t i m e  s t e p      177   ( at time 1.31532E+01 )

 node (global)
          strain       eps-xx      eps-yy      eps-zz      eps-xy      eps-yz      eps-zx       
     229-
 mid.  surface     4.4217E-03  1.3350E-02 -1.5954E-02  4.0119E-03 -1.2644E-02  1.9159E-03
     230-
 mid.  surface     7.5858E-03  1.0253E-02 -2.0223E-02  4.1794E-03  5.2060E-04  4.3098E-03
     232-
 mid.  surface     4.5347E-03  2.2470E-02 -1.9843E-02  3.7884E-03  1.1165E-03 -5.2085E-03
     233-
 mid.  surface     6.7050E-03  1.3983E-02 -1.4465E-02  3.7609E-03 -8.4357E-03 -9.5557E-03
     240-
 mid.  surface    -1.5981E-02 -7.2035E-03  1.0524E-02 -1.0830E-02  5.8451E-03  3.5379E-03
     244-
 mid.  surface    -8.7546E-03 -1.2555E-02  1.0445E-02 -8.2162E-03 -2.9980E-03 -7.9174E-03
     252-
 mid.  surface     1.2732E-02  1.5681E-02 -2.8737E-02  7.3486E-03  1.2747E-02  1.0522E-02
     253-
 mid.  surface     8.4961E-03  1.0932E-02 -1.2635E-02  2.6119E-03 -2.2378E-02 -1.8404E-02
     254-
 mid.  surface    -1.5042E-02  1.4183E-02 -4.5187E-03  4.8067E-03  5.5515E-03  7.5898E-03
     255-
 mid.  surface    -7.9859E-03  5.3713E-03 -5.8120E-03  3.5833E-03  5.8361E-03 -3.4968E-03
     256-
 mid.  surface     8.7975E-03  1.4249E-02 -2.9454E-02  5.6757E-03  1.0985E-02  8.3010E-03
     257-
 mid.  surface     1.0374E-02  7.0872E-03 -2.5655E-02  4.0255E-03  1.4779E-02  1.9959E-03
     258-
 mid.  surface     2.8969E-02  6.9707E-03 -3.1167E-02  1.2640E-02  1.3949E-02  8.6184E-03
     259-
 mid.  surface     2.7564E-02  1.3612E-02 -4.2438E-02  9.3142E-03  1.1336E-02  1.5337E-02
     260-
 mid.  surface     7.8098E-03  9.9436E-03 -1.8112E-02 -3.9241E-04 -1.6082E-02 -1.0590E-02
     261-
 mid.  surface     5.0226E-03  4.2812E-03 -1.2596E-02  1.1382E-03 -2.3961E-02 -9.1986E-03
     262-
 mid.  surface     1.6615E-02  9.1323E-03 -1.3522E-02  6.3213E-03 -2.4114E-02 -1.9415E-02
     263-
 mid.  surface     1.5029E-02  1.2838E-02 -2.7513E-02  4.2225E-03 -1.7743E-02 -1.6001E-02
     264-
 mid.  surface     1.1260E-02  8.3111E-03 -2.6332E-02  3.9389E-03  1.6355E-03 -4.3425E-03
     265-
 mid.  surface     1.3060E-02  1.1510E-02 -3.0522E-02  8.6579E-03  1.8484E-02  4.3493E-03
     266-
 mid.  surface     9.1861E-03  1.1581E-02 -2.0865E-02  4.3985E-03 -1.3676E-02 -2.8915E-03
     267-
 mid.  surface     7.1600E-03  6.4990E-03 -1.2502E-02  4.2718E-03 -2.6579E-02 -1.1296E-02
     273-
 mid.  surface     1.1680E-02 -6.2464E-03 -7.4691E-03 -1.6116E-03  1.3654E-03  2.2076E-03
     275-
 mid.  surface     1.6121E-02 -1.1715E-02 -8.6270E-03  2.1538E-03 -7.6931E-03  3.4826E-03
     276-
 mid.  surface    -7.4080E-03  7.2157E-03 -3.9852E-03  2.2150E-03  1.7905E-02 -7.6721E-02
     277-
 mid.  surface    -7.0476E-03  9.0105E-03 -1.6023E-02 -1.0428E-02  8.2065E-03 -5.6798E-02
     278-
 mid.  surface     7.1070E-03  1.3194E-02 -4.5905E-02  1.8525E-02 -2.7686E-03  4.3790E-02
     279-
 mid.  surface     7.7762E-03  1.4691E-02 -5.2570E-02  1.5449E-02 -1.4475E-03  6.4301E-02
     282-
 mid.  surface     1.1870E-02  1.3132E-02 -2.8152E-02  4.9161E-03 -1.5403E-02 -4.8414E-03
     283-
 mid.  surface     1.2021E-02  2.3054E-02 -3.3035E-02  3.5905E-03 -3.5015E-03 -1.5024E-03
     286-
 mid.  surface     2.2377E-03  7.4514E-04 -4.0530E-03  3.8926E-03 -4.1725E-02 -3.2934E-03
     287-
 mid.  surface     3.9164E-03  2.1029E-02 -2.8370E-02 -1.9353E-03  3.1223E-02 -4.8079E-04
     290-
 mid.  surface     1.2602E-02  1.4938E-02 -2.1540E-02  1.4072E-02 -9.6633E-03 -6.6810E-03
     291-
 mid.  surface     1.7108E-02  6.2824E-03 -2.1884E-02  1.4019E-02 -9.0662E-03 -5.1235E-03
     292-
 mid.  surface     1.1840E-02  7.8734E-04 -1.8666E-02  7.4575E-03 -5.0475E-02 -8.2671E-03
     293-
 mid.  surface     1.4225E-02  2.1178E-02 -4.5190E-02 -1.7378E-03  2.2347E-02 -1.1146E-03



 n o d a l  s t r e s s  c a l c u l a t i o n s   f o r   t i m e  s t e p      185   ( at time 1.54685E+01 )

 node (global)
          stress       sig-xx      sig-yy      sig-zz      sig-xy      sig-yz      sig-zx       plastic
                                                                                                 strain 
     229-
 mid.  surface     2.1766E+08  2.6848E+08  1.5442E+07  2.3694E+07 -3.5816E+07  9.1276E+06  4.8383E-02
     230-
 mid.  surface    -6.4298E+07 -4.1607E+07 -2.8066E+08  3.2629E+07  5.8844E+06  2.3968E+07  4.2492E-02
     232-
 mid.  surface     6.5637E+08  7.5285E+08  4.8246E+08  5.5492E+06  2.5067E+06 -2.2714E+07  5.7636E-02
     233-
 mid.  surface     5.5827E+08  6.1682E+08  3.7639E+08  1.9034E+07 -7.2071E+07 -4.9397E+07  3.6054E-02
     240-
 mid.  surface    -1.0806E+09 -9.8114E+08 -1.0630E+09 -1.4219E+08  1.0361E+08  7.1213E+07 -5.6128E-03
     244-
 mid.  surface    -8.1296E+08 -9.1521E+08 -8.2181E+08 -9.9872E+07  8.3085E+07 -1.7144E+07  4.4488E-03
     252-
 mid.  surface     1.2217E+08  1.3995E+08 -1.8183E+08  4.8543E+07  9.4423E+07  7.9096E+07  2.7015E-02
     253-
 mid.  surface     5.6921E+08  6.0927E+08  3.3024E+08  8.3841E+06 -1.1846E+08 -7.1236E+07  1.3238E-02
     254-
 mid.  surface    -5.5101E+08 -1.5574E+08 -6.0808E+08  6.0918E+07  5.2842E+07  4.9171E+07 -1.1699E-03
     255-
 mid.  surface    -7.2114E+08 -5.6783E+08 -7.1211E+08  3.6267E+07  1.3828E+08 -2.9653E+07  1.5461E-02
     256-
 mid.  surface    -3.8758E+08 -3.5076E+08 -6.3057E+08  3.7879E+07  5.8691E+07  5.3316E+07  5.2019E-02
     257-
 mid.  surface    -4.5357E+08 -4.9583E+08 -7.5545E+08  2.0646E+07  7.1814E+07 -9.8303E+06  3.4797E-02
     258-
 mid.  surface    -7.6896E+08 -7.1208E+08 -3.1512E+08  2.7009E+07  8.8599E+06  2.6953E+08  8.4126E-02
     259-
 mid.  surface    -3.4410E+08 -3.4751E+08 -2.2549E+08  2.6169E+06  3.0001E+07  1.4610E+08  1.1632E-01
     260-
 mid.  surface    -1.4795E+07  5.1097E+07 -1.6924E+08  2.2347E+06 -1.3313E+08 -6.1615E+07  5.1185E-02
     261-
 mid.  surface    -1.9709E+08 -1.9663E+08 -3.7665E+08 -5.1358E+05 -1.7335E+08 -6.3799E+07  3.8821E-02
     262-
 mid.  surface     6.9920E+08  7.0948E+08  2.9196E+08  6.7610E+07 -8.7053E+07 -5.4027E+06  7.7966E-02
     263-
 mid.  surface     5.8415E+08  5.4159E+08 -1.2164E+08  3.9248E+07 -3.9868E+07 -1.3714E+08  1.0727E-01
     264-
 mid.  surface    -4.2606E+08 -4.2500E+08 -6.5642E+08  2.0491E+07  6.2365E+06 -4.8329E+07  4.4091E-02
     265-
 mid.  surface    -3.0189E+08 -2.9995E+08 -6.3224E+08  5.3932E+07  1.0934E+08 -5.5515E+05  1.7919E-02
     266-
 mid.  surface     6.1998E+07  7.4024E+07 -1.4636E+08  2.2228E+07 -1.0353E+08 -2.0271E+07  3.9808E-02
     267-
 mid.  surface     1.5156E+08  1.4528E+08 -1.1109E+08  1.9671E+07 -1.5241E+08 -5.8381E+07  6.2278E-03
     273-
 mid.  surface     5.1307E+07 -1.6106E+08 -3.8743E+08 -1.5399E+07 -8.9763E+07  8.0695E+06  7.0263E-04
     275-
 mid.  surface    -8.3658E+07 -4.5357E+08 -4.6340E+08  4.1240E+07 -8.5941E+07  8.5283E+07  1.4938E-02
     276-
 mid.  surface    -1.1050E+09 -9.5895E+08 -3.4931E+08 -5.1200E+07 -4.2642E+06 -3.4990E+07 -2.9672E-02
     277-
 mid.  surface    -1.3823E+09 -1.3172E+09 -8.8121E+08 -1.1505E+08 -6.0306E+06 -5.3707E+07 -3.7536E-02
     278-
 mid.  surface    -8.6259E+08 -9.9082E+08 -2.1209E+09  1.4864E+08  7.9477E+07 -2.0018E+08 -7.1769E-02
     279-
 mid.  surface     6.2570E+08  2.6821E+08 -1.3603E+09  6.5724E+07  1.5063E+08 -4.2307E+08 -1.8799E-02
     282-
 mid.  surface    -1.7639E+08 -1.8200E+08 -3.9814E+08  2.4808E+07 -5.6801E+07 -3.5812E+07  6.4380E-02
     283-
 mid.  surface     2.5373E+08  2.8845E+08  5.6675E+07  1.2281E+07 -2.7705E+07 -2.5458E+06  7.0218E-02
     286-
 mid.  surface    -2.2319E+07  6.1639E+06 -2.9248E+08  3.5719E+07 -2.1340E+08 -1.9773E+07 -2.5208E-02
     287-
 mid.  surface    -1.4745E+08 -2.0644E+07 -4.5472E+08 -3.3241E+07  1.0624E+08  4.4040E+06 -9.4690E-03
     290-
 mid.  surface     6.1266E+08  6.8306E+08  2.7097E+08  1.8418E+08 -2.1666E+08 -1.3763E+08  1.6384E-02
     291-
 mid.  surface     3.5919E+08  2.2495E+08 -1.8632E+08  1.9040E+08 -1.5630E+08 -1.0354E+08  1.1005E-02
     292-
 mid.  surface    -4.0840E+08 -4.5382E+08 -6.8353E+08  5.9525E+07 -2.4114E+08 -5.3563E+07  4.2258E-03
     293-
 mid.  surface    -6.4658E+08 -5.8829E+08 -9.8622E+08 -1.2365E+07  4.5518E+07 -7.8308E+06  1.4115E-03



 n o d a l  s t r a i n  c a l c u l a t i o n s   f o r   t i m e  s t e p      185   ( at time 1.54685E+01 )

 node (global)
          strain       eps-xx      eps-yy      eps-zz      eps-xy      eps-yz      eps-zx       
     229-
 mid.  surface     6.3186E-03  1.7227E-02 -2.1417E-02  4.9045E-03 -1.3347E-02  2.4160E-03
     230-
 mid.  surface     1.0462E-02  1.4077E-02 -2.6442E-02  5.6367E-03  7.3070E-05  4.6055E-03
     232-
 mid.  surface     6.1788E-03  2.7678E-02 -2.5091E-02  4.4308E-03 -2.2904E-04 -6.0366E-03
     233-
 mid.  surface     8.8542E-03  1.8320E-02 -1.9705E-02  4.5988E-03 -1.0044E-02 -1.0951E-02
     240-
 mid.  surface    -1.8120E-02 -7.8898E-03  1.1031E-02 -1.3044E-02  6.9594E-03  4.1290E-03
     244-
 mid.  surface    -8.9460E-03 -1.4260E-02  1.1268E-02 -9.6744E-03 -3.5033E-03 -9.8009E-03
     252-
 mid.  surface     1.6105E-02  1.9556E-02 -3.5446E-02  8.7545E-03  1.3995E-02  1.1849E-02
     253-
 mid.  surface     1.0384E-02  1.4133E-02 -1.7137E-02  2.6463E-03 -2.4924E-02 -2.0650E-02
     254-
 mid.  surface    -1.6882E-02  1.7963E-02 -7.3711E-03  5.5544E-03  6.6198E-03  9.2431E-03
     255-
 mid.  surface    -7.9200E-03  7.2555E-03 -8.6849E-03  4.0113E-03  7.1175E-03 -4.2659E-03
     256-
 mid.  surface     1.1714E-02  1.8290E-02 -3.6711E-02  6.9778E-03  1.1989E-02  8.8664E-03
     257-
 mid.  surface     1.3554E-02  9.3514E-03 -3.1472E-02  4.9111E-03  1.6243E-02  1.4128E-03
     258-
 mid.  surface     3.6041E-02  9.4255E-03 -3.9652E-02  1.4325E-02  1.5556E-02  8.7823E-03
     259-
 mid.  surface     3.4224E-02  1.7301E-02 -5.2499E-02  1.1332E-02  1.2636E-02  1.6028E-02
     260-
 mid.  surface     9.8220E-03  1.3585E-02 -2.3870E-02 -2.0363E-04 -1.7938E-02 -1.2189E-02
     261-
 mid.  surface     7.1094E-03  5.7192E-03 -1.6815E-02  1.1067E-03 -2.6841E-02 -1.0547E-02
     262-
 mid.  surface     2.1316E-02  1.1856E-02 -1.9860E-02  6.5341E-03 -2.6921E-02 -2.1920E-02
     263-
 mid.  surface     1.9294E-02  1.6691E-02 -3.5778E-02  4.9416E-03 -1.9964E-02 -1.8561E-02
     264-
 mid.  surface     1.4370E-02  1.1864E-02 -3.3566E-02  4.8811E-03  1.4221E-03 -5.5189E-03
     265-
 mid.  surface     1.6123E-02  1.4579E-02 -3.6897E-02  1.0079E-02  2.0644E-02  4.3037E-03
     266-
 mid.  surface     1.2193E-02  1.4880E-02 -2.7223E-02  5.4180E-03 -1.5910E-02 -3.1386E-03
     267-
 mid.  surface     9.1712E-03  7.8072E-03 -1.6358E-02  4.4117E-03 -2.9528E-02 -1.2458E-02
     273-
 mid.  surface     1.4569E-02 -6.4804E-03 -1.0477E-02 -1.8230E-03  1.5937E-03  2.7258E-03
     275-
 mid.  surface     1.9957E-02 -1.2997E-02 -1.1563E-02  2.8700E-03 -9.1128E-03  3.7392E-03
     276-
 mid.  surface    -3.7044E-03  9.4153E-03 -8.7622E-03  1.5483E-03  2.0280E-02 -8.4456E-02
     277-
 mid.  surface    -3.7263E-03  1.1242E-02 -2.1751E-02 -1.1513E-02  9.9472E-03 -6.3231E-02
     278-
 mid.  surface     9.5321E-03  1.6143E-02 -5.3158E-02  1.8956E-02 -3.0977E-03  4.6123E-02
     279-
 mid.  surface     1.0325E-02  1.7748E-02 -6.0755E-02  1.6308E-02 -1.6736E-03  6.8094E-02
     282-
 mid.  surface     1.5024E-02  1.7071E-02 -3.5958E-02  5.4825E-03 -1.6873E-02 -5.5584E-03
     283-
 mid.  surface     1.5190E-02  2.8312E-02 -4.0774E-02  4.2773E-03 -5.6687E-03 -1.7194E-03
     286-
 mid.  surface     3.9389E-03  1.9809E-03 -7.4550E-03  4.7577E-03 -4.6330E-02 -3.5597E-03
     287-
 mid.  surface     5.5123E-03  2.5550E-02 -3.4222E-02 -2.5328E-03  3.3735E-02 -7.2068E-04
     290-
 mid.  surface     1.5703E-02  1.9011E-02 -2.7508E-02  1.6739E-02 -1.1901E-02 -7.7200E-03
     291-
 mid.  surface     2.1209E-02  8.5787E-03 -2.7702E-02  1.6639E-02 -1.0819E-02 -6.2215E-03
     292-
 mid.  surface     1.5205E-02  2.3389E-03 -2.4984E-02  8.4250E-03 -5.6704E-02 -9.6261E-03
     293-
 mid.  surface     1.7418E-02  2.6042E-02 -5.4011E-02 -2.4586E-03  2.3441E-02 -1.5419E-03



 n o d a l  s t r e s s  c a l c u l a t i o n s   f o r   t i m e  s t e p      193   ( at time 1.77838E+01 )

 node (global)
          stress       sig-xx      sig-yy      sig-zz      sig-xy      sig-yz      sig-zx       plastic
                                                                                                 strain 
     229-
 mid.  surface     2.6956E+08  3.2885E+08  3.5768E+07  2.2113E+07 -2.3041E+07  1.0532E+07  5.4467E-02
     230-
 mid.  surface    -2.6413E+07 -9.2083E+06 -2.7785E+08  3.3634E+07  1.2303E+07  2.2207E+07  4.8939E-02
     232-
 mid.  surface     7.8809E+08  8.7372E+08  5.8034E+08  1.0606E+07 -2.7083E+07 -2.2055E+07  6.4123E-02
     233-
 mid.  surface     6.4958E+08  6.9885E+08  4.3259E+08  1.6919E+07 -7.1222E+07 -4.0631E+07  4.1852E-02
     240-
 mid.  surface    -1.1892E+09 -1.1086E+09 -1.2733E+09 -1.0756E+08  6.7288E+07  3.8767E+07 -4.7332E-03
     244-
 mid.  surface    -8.1305E+08 -9.0016E+08 -9.3347E+08 -7.0523E+07  2.3287E+07 -6.0823E+07  6.2991E-03
     252-
 mid.  surface     1.6224E+08  1.7196E+08 -1.2542E+08  4.3125E+07  6.5288E+07  5.4115E+07  3.4531E-02
     253-
 mid.  surface     5.9116E+08  6.3211E+08  3.5469E+08  3.7881E+06 -9.1813E+07 -5.2451E+07  1.9120E-02
     254-
 mid.  surface    -5.6534E+08 -2.5272E+08 -6.8955E+08  4.1372E+07  4.6897E+07  6.5228E+07  1.6111E-03
     255-
 mid.  surface    -6.9522E+08 -5.9133E+08 -8.0982E+08  2.0220E+07  9.1698E+07 -2.9705E+07  1.9512E-02
     256-
 mid.  surface    -4.4616E+08 -4.0060E+08 -6.8934E+08  2.7000E+07  3.4666E+07  3.6087E+07  6.0455E-02
     257-
 mid.  surface    -4.8576E+08 -5.1125E+08 -7.8548E+08  1.4634E+07  6.0251E+07 -2.7878E+07  4.0912E-02
     258-
 mid.  surface    -7.5448E+08 -7.2177E+08 -3.0254E+08  3.4971E+07 -9.5308E+03  1.7609E+08  6.9609E-02
     259-
 mid.  surface    -4.3473E+08 -4.4283E+08 -3.6548E+08  9.4770E+05  2.9622E+07  1.0850E+08  1.1325E-01
     260-
 mid.  surface    -2.7493E+07  3.6743E+07 -2.0682E+08  1.6636E+06 -1.0067E+08 -5.0184E+07  5.9289E-02
     261-
 mid.  surface    -2.0430E+08 -2.0779E+08 -4.2248E+08 -4.7418E+05 -1.3994E+08 -5.4849E+07  4.4730E-02
     262-
 mid.  surface     9.2148E+08  9.1360E+08  4.5231E+08  6.7024E+07 -8.6002E+07 -4.3619E+07  8.4912E-02
     263-
 mid.  surface     6.5694E+08  6.3398E+08 -1.2558E+08  4.4996E+07 -3.4464E+07 -1.2584E+08  1.2552E-01
     264-
 mid.  surface    -4.3442E+08 -4.2950E+08 -7.0443E+08  1.7602E+07  1.0691E+07 -4.6966E+07  5.1033E-02
     265-
 mid.  surface    -3.0325E+08 -2.9849E+08 -6.1924E+08  4.3959E+07  9.3806E+07 -1.7555E+07  2.4399E-02
     266-
 mid.  surface     7.8463E+07  8.9412E+07 -1.6457E+08  1.6102E+07 -1.0440E+08 -1.0274E+07  4.6314E-02
     267-
 mid.  surface     1.1078E+08  1.1106E+08 -1.6255E+08  1.1218E+07 -1.2289E+08 -2.8997E+07  1.1097E-02
     273-
 mid.  surface    -3.3362E+07 -1.8746E+08 -4.1327E+08 -1.0666E+07 -4.2665E+07  1.1969E+07  3.7736E-03
     275-
 mid.  surface    -1.4066E+08 -4.1525E+08 -4.9738E+08  4.1369E+07 -7.1493E+07  3.2198E+07  1.8917E-02
     276-
 mid.  surface    -1.3244E+09 -1.2109E+09 -5.5915E+08 -6.1851E+07  7.2703E+06 -3.3457E+06 -4.2661E-02
     277-
 mid.  surface    -1.8350E+09 -1.7651E+09 -1.2855E+09 -1.1576E+08  2.3795E+07 -2.2152E+06 -4.3677E-02
     278-
 mid.  surface    -5.9221E+08 -7.3662E+08 -1.8224E+09  9.0219E+07  4.9023E+07 -1.5831E+08 -4.0093E-02
     279-
 mid.  surface     6.5452E+08  3.4261E+08 -1.3915E+09  2.6008E+07  1.4240E+08 -2.8340E+08  3.3921E-02
     282-
 mid.  surface    -1.9450E+08 -1.8499E+08 -4.6279E+08  2.1680E+07 -3.9695E+07 -3.3615E+07  7.2162E-02
     283-
 mid.  surface     3.0527E+08  3.4027E+08  6.6871E+07  1.4029E+07 -4.9420E+07 -1.5760E+05  7.8483E-02
     286-
 mid.  surface    -3.5626E+07 -1.9007E+06 -2.7406E+08  2.6238E+07 -1.5385E+08 -9.9311E+06 -2.0534E-02
     287-
 mid.  surface    -1.1214E+08 -8.9157E+06 -3.6795E+08 -3.8576E+07  6.6550E+07  6.7668E+06 -3.2306E-03
     290-
 mid.  surface     6.4786E+08  7.1754E+08  3.4252E+08  1.3703E+08 -1.4984E+08 -7.1695E+07  2.2226E-02
     291-
 mid.  surface     3.4251E+08  2.4805E+08 -1.0591E+08  1.3653E+08 -1.0894E+08 -6.9638E+07  1.6317E-02
     292-
 mid.  surface    -4.9671E+08 -5.3436E+08 -7.6143E+08  4.8523E+07 -1.7786E+08 -4.8237E+07  1.1674E-02
     293-
 mid.  surface    -6.9152E+08 -6.5040E+08 -9.9150E+08 -2.0714E+07  1.8681E+07 -3.2127E+06  9.3965E-03



 n o d a l  s t r a i n  c a l c u l a t i o n s   f o r   t i m e  s t e p      193   ( at time 1.77838E+01 )

 node (global)
          strain       eps-xx      eps-yy      eps-zz      eps-xy      eps-yz      eps-zx       
     229-
 mid.  surface     8.2546E-03  2.1425E-02 -2.6961E-02  5.5943E-03 -1.3836E-02  2.8881E-03
     230-
 mid.  surface     1.3237E-02  1.7783E-02 -3.2610E-02  6.8102E-03  3.4270E-04  5.1435E-03
     232-
 mid.  surface     8.0578E-03  3.2580E-02 -3.0233E-02  5.0391E-03 -1.6969E-03 -6.6479E-03
     233-
 mid.  surface     1.0982E-02  2.2198E-02 -2.4634E-02  5.1686E-03 -1.1712E-02 -1.2135E-02
     240-
 mid.  surface    -1.9293E-02 -7.8428E-03  1.0053E-02 -1.4816E-02  7.7277E-03  4.4254E-03
     244-
 mid.  surface    -7.9958E-03 -1.5007E-02  1.0608E-02 -1.0670E-02 -3.9357E-03 -1.1600E-02
     252-
 mid.  surface     1.9538E-02  2.3701E-02 -4.2457E-02  1.0117E-02  1.4734E-02  1.2537E-02
     253-
 mid.  surface     1.2451E-02  1.7789E-02 -2.2541E-02  2.6925E-03 -2.6822E-02 -2.2206E-02
     254-
 mid.  surface    -1.7842E-02  2.1811E-02 -1.1181E-02  5.9898E-03  7.4554E-03  1.0688E-02
     255-
 mid.  surface    -6.7955E-03  9.4452E-03 -1.2467E-02  4.1133E-03  8.2125E-03 -4.8915E-03
     256-
 mid.  surface     1.4593E-02  2.2750E-02 -4.4878E-02  7.8897E-03  1.2536E-02  9.3266E-03
     257-
 mid.  surface     1.6775E-02  1.1825E-02 -3.7573E-02  5.3815E-03  1.7498E-02  3.3284E-04
     258-
 mid.  surface     4.1573E-02  1.1719E-02 -4.6403E-02  1.5521E-02  1.6901E-02  9.9087E-03
     259-
 mid.  surface     3.9399E-02  2.1184E-02 -6.1463E-02  1.2440E-02  1.3522E-02  1.7687E-02
     260-
 mid.  surface     1.2620E-02  1.7564E-02 -3.0966E-02  1.6032E-04 -1.9049E-02 -1.3606E-02
     261-
 mid.  surface     1.0025E-02  7.4642E-03 -2.1803E-02  1.2065E-03 -2.9464E-02 -1.1745E-02
     262-
 mid.  surface     2.3868E-02  1.4408E-02 -2.4630E-02  6.5908E-03 -2.9173E-02 -2.3936E-02
     263-
 mid.  surface     2.1293E-02  2.0969E-02 -4.3148E-02  5.6257E-03 -2.1644E-02 -2.0897E-02
     264-
 mid.  surface     1.7662E-02  1.5289E-02 -4.0612E-02  5.5712E-03  1.5588E-03 -6.7157E-03
     265-
 mid.  surface     1.9578E-02  1.7728E-02 -4.3483E-02  1.1261E-02  2.2508E-02  3.4113E-03
     266-
 mid.  surface     1.5035E-02  1.8005E-02 -3.3158E-02  5.9652E-03 -1.8525E-02 -3.0445E-03
     267-
 mid.  surface     1.1459E-02  9.6880E-03 -2.1150E-02  4.3618E-03 -3.2159E-02 -1.2584E-02
     273-
 mid.  surface     1.6998E-02 -6.0249E-03 -1.4009E-02 -1.9254E-03  1.7231E-03  3.1207E-03
     275-
 mid.  surface     2.3460E-02 -1.3365E-02 -1.4948E-02  3.7222E-03 -1.0196E-02  3.5303E-03
     276-
 mid.  surface     1.1094E-03  1.1299E-02 -1.5346E-02  1.1853E-03  2.2687E-02 -8.6735E-02
     277-
 mid.  surface     9.0520E-04  1.3588E-02 -3.1234E-02 -1.2658E-02  1.2051E-02 -6.4249E-02
     278-
 mid.  surface     1.3586E-02  1.8466E-02 -5.9336E-02  1.8426E-02 -3.1841E-03  4.3982E-02
     279-
 mid.  surface     1.3899E-02  2.1167E-02 -6.9818E-02  1.6656E-02 -1.8026E-03  6.6951E-02
     282-
 mid.  surface     1.8421E-02  2.1357E-02 -4.4090E-02  6.1064E-03 -1.7997E-02 -6.3741E-03
     283-
 mid.  surface     1.8433E-02  3.3476E-02 -4.8675E-02  4.8714E-03 -7.7554E-03 -1.5509E-03
     286-
 mid.  surface     5.5956E-03  4.1339E-03 -1.1293E-02  5.4308E-03 -4.9313E-02 -3.7067E-03
     287-
 mid.  surface     7.2471E-03  2.9632E-02 -3.9429E-02 -3.6047E-03  3.4711E-02 -6.2882E-04
     290-
 mid.  surface     1.8268E-02  2.3109E-02 -3.3528E-02  1.8768E-02 -1.3871E-02 -8.2334E-03
     291-
 mid.  surface     2.4893E-02  1.1143E-02 -3.3556E-02  1.8603E-02 -1.2178E-02 -7.0995E-03
     292-
 mid.  surface     1.8759E-02  4.5754E-03 -3.1981E-02  9.5220E-03 -6.1318E-02 -1.1183E-02
     293-
 mid.  surface     2.0839E-02  3.0628E-02 -6.2571E-02 -3.4430E-03  2.3236E-02 -1.6256E-03



 n o d a l  s t r e s s  c a l c u l a t i o n s   f o r   t i m e  s t e p      201   ( at time 2.00991E+01 )

 node (global)
          stress       sig-xx      sig-yy      sig-zz      sig-xy      sig-yz      sig-zx       plastic
                                                                                                 strain 
     229-
 mid.  surface     3.1323E+08  3.7944E+08  5.1736E+07  2.5531E+07 -1.2978E+07  1.0046E+07  6.0349E-02
     230-
 mid.  surface     7.5250E+06  3.0340E+07 -2.5818E+08  3.8396E+07  3.8468E+06  1.3421E+07  5.5310E-02
     232-
 mid.  surface     9.0963E+08  9.9468E+08  6.7397E+08  1.7132E+07 -5.0314E+07 -2.1167E+07  7.0180E-02
     233-
 mid.  surface     7.1637E+08  7.6232E+08  4.8264E+08  1.8899E+07 -5.3561E+07 -3.2890E+07  4.8012E-02
     240-
 mid.  surface    -1.2711E+09 -1.2055E+09 -1.4240E+09 -7.8793E+07  4.3193E+07  1.8642E+07 -3.1257E-03
     244-
 mid.  surface    -7.9107E+08 -8.6352E+08 -9.8795E+08 -4.7443E+07 -1.6592E+06 -6.9811E+07  8.5999E-03
     252-
 mid.  surface     1.9963E+08  2.0344E+08 -9.1722E+07  4.4303E+07  4.1390E+07  3.2492E+07  4.1303E-02
     253-
 mid.  surface     6.1075E+08  6.5232E+08  3.6841E+08  4.8637E+06 -6.3497E+07 -4.1339E+07  2.4881E-02
     254-
 mid.  surface    -5.8141E+08 -3.4138E+08 -7.4736E+08  2.4981E+07  3.9770E+07  6.0199E+07  5.0522E-03
     255-
 mid.  surface    -6.6668E+08 -6.0144E+08 -8.5875E+08  6.5231E+06  6.4561E+07 -2.6527E+07  2.3740E-02
     256-
 mid.  surface    -4.3852E+08 -4.3085E+08 -7.1673E+08  2.5203E+07  9.5590E+06  2.6169E+07  6.9607E-02
     257-
 mid.  surface    -4.8179E+08 -5.1487E+08 -7.9353E+08  2.1846E+07  4.3371E+07 -3.5983E+07  4.8700E-02
     258-
 mid.  surface    -7.9739E+08 -7.2111E+08 -2.8709E+08  1.6838E+07  2.5457E+06  1.0559E+08  5.3647E-02
     259-
 mid.  surface    -5.8859E+08 -5.5974E+08 -4.9392E+08 -1.1376E+07  2.7157E+07  9.6416E+07  1.0893E-01
     260-
 mid.  surface     2.8740E+07  6.2815E+07 -1.9005E+08  1.3680E+07 -7.4737E+07 -5.0112E+07  6.8302E-02
     261-
 mid.  surface    -1.6665E+08 -1.7936E+08 -4.1572E+08  1.6772E+07 -1.1615E+08 -5.2185E+07  5.2298E-02
     262-
 mid.  surface     1.0849E+09  1.0819E+09  6.1728E+08  5.0993E+07 -7.4389E+07 -6.3633E+07  9.1093E-02
     263-
 mid.  surface     7.0107E+08  6.8470E+08 -1.1847E+08  4.2188E+07 -1.7961E+07 -9.5810E+07  1.4234E-01
     264-
 mid.  surface    -4.5778E+08 -4.3647E+08 -7.3160E+08  1.4695E+07  4.2145E+05 -4.4844E+07  5.8474E-02
     265-
 mid.  surface    -3.2070E+08 -3.1647E+08 -6.3285E+08  3.7297E+07  6.9732E+07 -3.0535E+07  3.0938E-02
     266-
 mid.  surface     6.8721E+07  7.8197E+07 -1.8614E+08  1.3885E+07 -8.4156E+07 -5.3438E+06  5.3692E-02
     267-
 mid.  surface     5.7184E+07  5.3958E+07 -2.2080E+08  3.9601E+06 -9.6684E+07 -1.4791E+07  1.6793E-02
     273-
 mid.  surface    -1.1563E+08 -2.1515E+08 -4.5330E+08 -5.3137E+06 -1.9867E+07  1.2483E+07  6.9887E-03
     275-
 mid.  surface    -1.8256E+08 -3.7611E+08 -5.2452E+08  3.9532E+07 -5.6020E+07  4.1305E+06  2.2650E-02
     276-
 mid.  surface    -1.5069E+09 -1.4338E+09 -7.7467E+08 -6.3251E+07  1.9655E+07  2.6890E+06 -5.5627E-02
     277-
 mid.  surface    -2.2430E+09 -2.1638E+09 -1.6990E+09 -8.3900E+07  2.5468E+07  8.3728E+06 -4.8732E-02
     278-
 mid.  surface    -1.7506E+08 -4.1801E+08 -1.4677E+09  6.4498E+07  2.5869E+07 -1.3731E+08 -6.6230E-03
     279-
 mid.  surface     8.1529E+08  4.5942E+08 -1.3247E+09  4.8691E+07  9.2394E+07 -2.1821E+08  8.9296E-02
     282-
 mid.  surface    -2.3588E+08 -2.1036E+08 -5.3085E+08  1.5961E+07 -2.4589E+07 -2.4123E+07  7.9859E-02
     283-
 mid.  surface     3.4463E+08  3.8328E+08  7.7556E+07  1.6617E+07 -6.2828E+07 -1.3396E+06  8.6382E-02
     286-
 mid.  surface    -6.1181E+07 -2.6900E+07 -2.8475E+08  1.7202E+07 -9.4562E+07 -5.0833E+06 -1.4796E-02
     287-
 mid.  surface    -4.3155E+07  6.2252E+07 -2.6321E+08 -3.1843E+07  2.3738E+07  2.9074E+06  3.4993E-03
     290-
 mid.  surface     6.5146E+08  7.2111E+08  3.6799E+08  9.8162E+07 -1.0615E+08 -3.4789E+07  2.7612E-02
     291-
 mid.  surface     3.2388E+08  2.6285E+08 -5.9295E+07  9.4694E+07 -7.3951E+07 -4.6273E+07  2.1483E-02
     292-
 mid.  surface    -6.0829E+08 -6.3829E+08 -8.6919E+08  3.0455E+07 -1.2054E+08 -3.7456E+07  1.9715E-02
     293-
 mid.  surface    -7.0837E+08 -6.6233E+08 -9.6681E+08 -1.9216E+07 -1.3033E+07 -3.6463E+06  1.8230E-02



 n o d a l  s t r a i n  c a l c u l a t i o n s   f o r   t i m e  s t e p      201   ( at time 2.00991E+01 )

 node (global)
          strain       eps-xx      eps-yy      eps-zz      eps-xy      eps-yz      eps-zx       
     229-
 mid.  surface     1.0300E-02  2.5678E-02 -3.2775E-02  6.4439E-03 -1.4091E-02  3.2708E-03
     230-
 mid.  surface     1.5886E-02  2.1696E-02 -3.8765E-02  8.1622E-03  1.1351E-04  5.3301E-03
     232-
 mid.  surface     9.9701E-03  3.7472E-02 -3.5473E-02  5.7240E-03 -3.3811E-03 -7.2014E-03
     233-
 mid.  surface     1.3177E-02  2.6269E-02 -3.0060E-02  5.8748E-03 -1.2693E-02 -1.3107E-02
     240-
 mid.  surface    -1.9622E-02 -7.2064E-03  8.1957E-03 -1.6061E-02  8.3145E-03  4.5845E-03
     244-
 mid.  surface    -6.4248E-03 -1.4963E-02  9.0028E-03 -1.1304E-02 -4.1100E-03 -1.2987E-02
     252-
 mid.  surface     2.2768E-02  2.7553E-02 -4.9094E-02  1.1589E-02  1.5238E-02  1.2990E-02
     253-
 mid.  surface     1.4355E-02  2.1665E-02 -2.8076E-02  2.8710E-03 -2.8062E-02 -2.3398E-02
     254-
 mid.  surface    -1.8022E-02  2.5287E-02 -1.5249E-02  6.2119E-03  8.1389E-03  1.1754E-02
     255-
 mid.  surface    -5.1082E-03  1.1641E-02 -1.6516E-02  4.0118E-03  9.1557E-03 -5.3608E-03
     256-
 mid.  surface     1.9326E-02  2.6927E-02 -5.4068E-02  9.0318E-03  1.2094E-02  9.4293E-03
     257-
 mid.  surface     2.1472E-02  1.4620E-02 -4.5160E-02  6.2680E-03  1.8060E-02 -8.1615E-04
     258-
 mid.  surface     4.4506E-02  1.4003E-02 -5.0934E-02  1.6014E-02  1.7888E-02  1.0243E-02
     259-
 mid.  surface     4.2828E-02  2.5026E-02 -6.9002E-02  1.3051E-02  1.4526E-02  2.0305E-02
     260-
 mid.  surface     1.7078E-02  2.1697E-02 -3.9109E-02  1.3070E-03 -1.9863E-02 -1.5580E-02
     261-
 mid.  surface     1.4380E-02  9.8991E-03 -2.8285E-02  2.2203E-03 -3.1765E-02 -1.3136E-02
     262-
 mid.  surface     2.4284E-02  1.6723E-02 -2.7563E-02  5.6396E-03 -3.1152E-02 -2.6176E-02
     263-
 mid.  surface     2.1895E-02  2.5086E-02 -4.9192E-02  5.6791E-03 -2.2426E-02 -2.2638E-02
     264-
 mid.  surface     2.0746E-02  1.9140E-02 -4.7861E-02  6.1918E-03  9.9620E-04 -8.0371E-03
     265-
 mid.  surface     2.3023E-02  2.0719E-02 -5.0195E-02  1.2288E-02  2.3777E-02  2.1389E-03
     266-
 mid.  surface     1.8161E-02  2.1325E-02 -3.9835E-02  6.5964E-03 -2.0381E-02 -3.0794E-03
     267-
 mid.  surface     1.4108E-02  1.1760E-02 -2.6693E-02  4.1895E-03 -3.4301E-02 -1.2614E-02
     273-
 mid.  surface     1.8942E-02 -5.0252E-03 -1.7659E-02 -1.9436E-03  1.7064E-03  3.4190E-03
     275-
 mid.  surface     2.6432E-02 -1.2983E-02 -1.8454E-02  4.4984E-03 -1.0961E-02  3.1721E-03
     276-
 mid.  surface     8.3294E-03  1.2339E-02 -2.3283E-02  1.6584E-03  2.5315E-02 -8.7742E-02
     277-
 mid.  surface     7.9985E-03  1.6575E-02 -4.3415E-02 -1.1631E-02  1.3721E-02 -6.4795E-02
     278-
 mid.  surface     2.0641E-02  2.0121E-02 -6.6541E-02  1.7377E-02 -4.4266E-03  4.0483E-02
     279-
 mid.  surface     2.0760E-02  2.5452E-02 -8.1363E-02  1.8020E-02 -3.3453E-03  6.3860E-02
     282-
 mid.  surface     2.1666E-02  2.5682E-02 -5.2344E-02  6.5721E-03 -1.8836E-02 -6.9082E-03
     283-
 mid.  surface     2.1661E-02  3.8441E-02 -5.6469E-02  5.5562E-03 -9.8844E-03 -1.5370E-03
     286-
 mid.  surface     7.4712E-03  6.8367E-03 -1.6176E-02  5.8893E-03 -5.1139E-02 -3.8064E-03
     287-
 mid.  surface     8.8484E-03  3.4632E-02 -4.4897E-02 -4.3148E-03  3.4616E-02 -6.3426E-04
     290-
 mid.  surface     2.0296E-02  2.6807E-02 -3.9114E-02  2.0156E-02 -1.5521E-02 -8.4784E-03
     291-
 mid.  surface     2.7989E-02  1.3678E-02 -3.9006E-02  1.9921E-02 -1.3161E-02 -7.7503E-03
     292-
 mid.  surface     2.2228E-02  7.2797E-03 -3.9716E-02  1.0146E-02 -6.4673E-02 -1.2311E-02
     293-
 mid.  surface     2.3964E-02  3.5963E-02 -7.1083E-02 -4.0567E-03  2.2042E-02 -1.7579E-03



 n o d a l  s t r e s s  c a l c u l a t i o n s   f o r   t i m e  s t e p      219   ( at time 2.47297E+01 )

 node (global)
          stress       sig-xx      sig-yy      sig-zz      sig-xy      sig-yz      sig-zx       plastic
                                                                                                 strain 
     229-
 mid.  surface     3.7499E+08  4.3759E+08  8.7381E+07  2.6026E+07  1.0621E+07  1.8531E+07  7.2346E-02
     230-
 mid.  surface     8.9466E+07  1.2373E+08 -1.8845E+08  4.1254E+07  5.1867E+06  1.6979E+07  6.9708E-02
     232-
 mid.  surface     1.1001E+09  1.1742E+09  8.3969E+08  1.5027E+07 -6.0412E+07 -1.8660E+07  8.2016E-02
     233-
 mid.  surface     8.2706E+08  8.6939E+08  5.7366E+08  1.4265E+07 -4.8072E+07 -3.2290E+07  6.1365E-02
     240-
 mid.  surface    -1.4580E+09 -1.4207E+09 -1.6776E+09 -5.0341E+07  1.8329E+07  1.2549E+06  1.3738E-03
     244-
 mid.  surface    -7.3001E+08 -8.0256E+08 -9.9335E+08 -2.3896E+07 -1.2630E+07 -6.9727E+07  1.4859E-02
     252-
 mid.  surface     1.9898E+08  2.0925E+08 -9.8174E+07  3.7999E+07  1.6883E+07  2.0495E+07  5.4882E-02
     253-
 mid.  surface     5.7493E+08  6.2784E+08  3.1696E+08 -7.8530E+06 -4.0445E+07 -3.7031E+07  3.6035E-02
     254-
 mid.  surface    -6.5466E+08 -4.9531E+08 -8.7115E+08  7.8162E+06  2.7654E+07  5.0261E+07  1.2983E-02
     255-
 mid.  surface    -6.2514E+08 -6.0694E+08 -8.8689E+08 -7.3697E+06  4.6132E+07 -2.1738E+07  3.3731E-02
     256-
 mid.  surface    -5.2610E+08 -5.1577E+08 -8.2169E+08  2.0463E+07 -1.2472E+07  1.6920E+07  8.8415E-02
     257-
 mid.  surface    -5.2711E+08 -5.4816E+08 -8.2725E+08  3.2135E+07  2.0873E+07 -4.5491E+07  6.5734E-02
     258-
 mid.  surface    -8.8140E+08 -7.9818E+08 -2.9434E+08 -1.4947E+07 -4.6957E+06  4.6718E+06  2.1912E-02
     259-
 mid.  surface    -8.8318E+08 -8.5573E+08 -7.5190E+08 -4.7640E+07  7.8024E+06  7.5518E+07  1.0054E-01
     260-
 mid.  surface     1.0819E+08  1.1624E+08 -1.5127E+08  2.7117E+07 -2.5811E+07 -4.8815E+07  8.7210E-02
     261-
 mid.  surface    -5.5537E+07 -8.8296E+07 -3.2632E+08  3.9339E+07 -7.0810E+07 -5.6037E+07  6.9154E-02
     262-
 mid.  surface     1.4290E+09  1.4396E+09  9.7696E+08  4.5646E+07 -5.3315E+07 -7.7974E+07  1.0691E-01
     263-
 mid.  surface     7.9805E+08  8.0318E+08 -3.4468E+07  5.0435E+07 -5.8208E+06 -3.6302E+07  1.7982E-01
     264-
 mid.  surface    -4.5412E+08 -4.1711E+08 -7.3240E+08  1.3434E+07  3.9634E+06 -3.6079E+07  7.4833E-02
     265-
 mid.  surface    -3.5328E+08 -3.5867E+08 -6.6048E+08  2.3965E+07  4.6280E+07 -3.7560E+07  4.4356E-02
     266-
 mid.  surface     5.7387E+07  5.8199E+07 -2.1130E+08  8.9826E+06 -7.6644E+07 -3.8256E+06  6.9302E-02
     267-
 mid.  surface    -9.1468E+07 -9.7235E+07 -3.7455E+08 -1.4055E+07 -7.6933E+07 -6.9827E+06  2.8170E-02
     273-
 mid.  surface    -2.4106E+08 -2.9292E+08 -5.4697E+08  4.8130E+04 -1.1303E+07  1.0473E+07  1.4062E-02
     275-
 mid.  surface    -1.9432E+08 -3.1755E+08 -5.2060E+08  3.8423E+07 -3.8462E+07 -2.1492E+07  3.1082E-02
     276-
 mid.  surface    -1.8886E+09 -1.8639E+09 -1.2172E+09 -5.5350E+07  3.9248E+07 -1.2752E+07 -8.6344E-02
     277-
 mid.  surface    -2.9645E+09 -2.9256E+09 -2.4627E+09 -6.7848E+07  3.7821E+07 -9.5318E+06 -6.3643E-02
     278-
 mid.  surface     5.6197E+08  3.0341E+08 -8.2253E+08  3.8215E+07  1.8849E+07 -9.8899E+07  6.0946E-02
     279-
 mid.  surface     1.1181E+09  8.0800E+08 -1.1303E+09  7.4506E+07  4.7245E+07 -9.4595E+07  2.0196E-01
     282-
 mid.  surface    -2.9264E+08 -2.6785E+08 -6.1106E+08  9.3188E+06 -3.1817E+06 -1.4726E+07  9.5109E-02
     283-
 mid.  surface     4.1729E+08  4.4143E+08  1.2972E+08  1.3760E+07 -7.3044E+07 -1.3365E+06  1.0166E-01
     286-
 mid.  surface    -1.0182E+08 -6.7627E+07 -3.3215E+08  1.5512E+07 -5.2734E+07  2.0133E+06 -2.0186E-03
     287-
 mid.  surface     6.9220E+07  1.7258E+08 -1.3619E+08 -2.2205E+07 -5.4853E+06 -2.7961E+06  1.8239E-02
     290-
 mid.  surface     6.5715E+08  7.2388E+08  3.8508E+08  5.8414E+07 -7.5854E+07 -2.4504E+06  3.8973E-02
     291-
 mid.  surface     3.4881E+08  3.1568E+08  1.4672E+07  5.4194E+07 -4.1728E+07 -2.6749E+07  3.2572E-02
     292-
 mid.  surface    -7.7574E+08 -8.0207E+08 -1.0446E+09  1.7879E+07 -8.4879E+07 -2.9223E+07  3.6617E-02
     293-
 mid.  surface    -7.2197E+08 -6.7321E+08 -9.5829E+08 -1.7354E+07 -3.6023E+07 -8.1676E+06  3.6635E-02



 n o d a l  s t r a i n  c a l c u l a t i o n s   f o r   t i m e  s t e p      219   ( at time 2.47297E+01 )

 node (global)
          strain       eps-xx      eps-yy      eps-zz      eps-xy      eps-yz      eps-zx       
     229-
 mid.  surface     1.4989E-02  3.4046E-02 -4.5177E-02  7.9743E-03 -1.3119E-02  4.4927E-03
     230-
 mid.  surface     2.1890E-02  3.0797E-02 -5.2792E-02  1.1053E-02 -1.1248E-04  5.9991E-03
     232-
 mid.  surface     1.4036E-02  4.6497E-02 -4.6065E-02  6.5844E-03 -6.5468E-03 -8.1421E-03
     233-
 mid.  surface     1.8133E-02  3.4959E-02 -4.2275E-02  6.9479E-03 -1.4947E-02 -1.5232E-02
     240-
 mid.  surface    -1.9356E-02 -5.7463E-03  3.3869E-03 -1.8440E-02  9.2888E-03  4.8002E-03
     244-
 mid.  surface    -2.1279E-03 -1.4531E-02  4.7805E-03 -1.2491E-02 -4.3573E-03 -1.5997E-02
     252-
 mid.  surface     2.8954E-02  3.5297E-02 -6.3113E-02  1.3901E-02  1.6094E-02  1.4389E-02
     253-
 mid.  surface     1.7744E-02  2.9642E-02 -3.9992E-02  2.1575E-03 -2.9813E-02 -2.5513E-02
     254-
 mid.  surface    -1.7511E-02  3.2514E-02 -2.4652E-02  6.5242E-03  9.4150E-03  1.4017E-02
     255-
 mid.  surface    -6.3252E-04  1.6450E-02 -2.5835E-02  3.5958E-03  1.1105E-02 -6.3721E-03
     256-
 mid.  surface     2.8060E-02  3.6308E-02 -7.3583E-02  1.1088E-02  1.1002E-02  9.0806E-03
     257-
 mid.  surface     3.0313E-02  2.1039E-02 -6.1076E-02  8.0799E-03  1.8410E-02 -3.4229E-03
     258-
 mid.  surface     5.0262E-02  1.8714E-02 -6.0455E-02  1.6399E-02  1.8956E-02  1.1221E-02
     259-
 mid.  surface     4.9940E-02  3.1890E-02 -8.3637E-02  1.2731E-02  1.5815E-02  2.5737E-02
     260-
[...]
     229-
 mid.  surface     1.2551E-01  1.7957E-01 -2.4269E-01  1.8423E-02  1.9146E-02  3.5008E-02
     230-
 mid.  surface     1.1662E-01  1.8299E-01 -2.4899E-01  4.3409E-02  5.7028E-02  4.2960E-02
     232-
 mid.  surface     7.9752E-02  2.7968E-01 -2.0697E-01  7.0696E-03  3.1591E-02  1.6514E-03
     233-
 mid.  surface     1.0603E-01  2.2369E-01 -2.1589E-01  1.3458E-02 -2.2388E-03  3.5409E-02
     240-
 mid.  surface     6.5183E-02  6.0340E-02 -1.3822E-01 -3.7528E-02  1.1161E-01  4.9280E-02
     244-
 mid.  surface     6.7836E-02  3.0887E-02 -7.5537E-02 -3.6325E-02  3.7668E-02 -9.6443E-03
     252-
 mid.  surface     2.1095E-01  2.2338E-01 -4.0413E-01  9.0588E-02 -7.2316E-02 -8.4540E-02
     253-
 mid.  surface     1.9383E-01  2.6247E-01 -4.0672E-01  6.9521E-02 -8.7394E-03 -2.0979E-02
     254-
 mid.  surface     7.5484E-02  1.3978E-01 -2.2237E-01  5.3225E-03  1.0292E-01  7.0010E-03
     255-
 mid.  surface     7.8744E-02  9.8892E-02 -1.8381E-01  4.2802E-03  1.8207E-02 -3.5135E-02
     256-
 mid.  surface     1.2146E-01  1.5411E-01 -2.5481E-01  1.9118E-02  6.7567E-02  7.5029E-02
     257-
 mid.  surface     1.0809E-01  9.4526E-02 -1.6306E-01 -2.5173E-03 -3.0968E-02 -1.2670E-01
     258-
 mid.  surface     3.0705E-01  1.0121E-01 -4.5217E-01  4.8774E-02  5.3426E-02  1.3293E-02
     259-
 mid.  surface     2.5604E-01  1.7053E-01 -4.5675E-01  5.3215E-02  2.4871E-02 -1.4452E-01
     260-
 mid.  surface     7.3963E-02  1.7059E-01 -2.1179E-01 -1.7311E-02 -1.7906E-02  5.0927E-03
     261-
 mid.  surface     8.5220E-02  1.2742E-01 -1.4293E-01 -2.4896E-02 -1.2002E-01 -4.6739E-02
     262-
 mid.  surface     2.9210E-01  1.4841E-01 -4.5655E-01  4.8754E-02 -9.7530E-02 -9.5448E-02
     263-
 mid.  surface     2.8344E-01  1.9239E-01 -4.5627E-01  4.9257E-02 -3.5455E-02 -6.7139E-02
     264-
 mid.  surface     1.6804E-01  1.2611E-01 -3.0217E-01  2.8115E-02 -1.1176E-01 -1.2065E-01
     265-
 mid.  surface     2.3589E-01  1.8619E-01 -4.4685E-01  1.1396E-01 -1.3104E-02 -6.9970E-02
     266-
 mid.  surface     2.2116E-01  1.3256E-01 -2.9117E-01  5.8049E-02 -9.0456E-02  9.9236E-03
     267-
 mid.  surface     2.1132E-01  1.9973E-01 -4.3534E-01  8.6254E-02 -8.7272E-02 -3.4077E-02
     273-
 mid.  surface     1.2716E-01  1.0492E-01 -2.1081E-01  1.1137E-02 -4.2019E-02  4.0853E-02
     275-
 mid.  surface     1.2474E-01  8.4905E-02 -1.4831E-01  1.9323E-03 -5.0203E-02 -2.7744E-03
     276-
 mid.  surface     1.1078E-01  1.2425E-01 -1.9506E-01  3.3674E-02 -6.4927E-02 -6.9331E-02
     277-
 mid.  surface     1.1880E-01  1.4673E-01 -2.6272E-01 -9.0226E-03 -5.1537E-02 -6.0983E-02
     278-
 mid.  surface     1.4316E-01  1.4842E-01 -2.2356E-01  2.2591E-02 -7.3021E-03  9.7069E-03
     279-
 mid.  surface     1.6408E-01  1.3995E-01 -2.9542E-01 -2.0904E-02  2.4504E-02  2.5118E-02
     282-
 mid.  surface     1.8689E-01  1.6194E-01 -4.3099E-01  7.0855E-03 -1.6537E-01 -4.9070E-02
     283-
 mid.  surface     1.9750E-01  2.4842E-01 -4.1385E-01  6.4062E-02 -6.8568E-02 -1.5221E-02
     286-
 mid.  surface     1.4464E-01  1.0682E-01 -2.0923E-01 -3.2233E-03 -2.6300E-02 -4.8099E-03
     287-
 mid.  surface     6.6432E-02  2.2762E-01 -2.0853E-01 -1.0536E-02  6.4302E-02 -1.6180E-02
     290-
 mid.  surface     1.3211E-01  1.7587E-01 -2.8677E-01  4.1901E-02 -1.4469E-01 -5.8615E-02
     291-
 mid.  surface     1.3592E-01  1.4885E-01 -2.2759E-01  4.3325E-02 -9.9100E-02 -5.3514E-02
     292-
 mid.  surface     2.1962E-01  8.7391E-02 -4.3435E-01 -1.5702E-02 -2.3737E-01 -1.2216E-01
     293-
 mid.  surface     1.6736E-01  2.3101E-01 -4.3674E-01  3.9824E-02 -3.1829E-02 -2.3944E-02



 n o d a l  s t r e s s  c a l c u l a t i o n s   f o r   t i m e  s t e p      520   ( at time 9.88192E+01 )

 node (global)
          stress       sig-xx      sig-yy      sig-zz      sig-xy      sig-yz      sig-zx       plastic
                                                                                                 strain 
     229-
 mid.  surface     1.6968E+09  1.7524E+09  3.3225E+09 -6.2651E+07  4.9056E+08  1.1206E+08  1.9831E-02
     230-
 mid.  surface     2.0372E+09  2.3329E+09  3.8416E+09 -8.6889E+07  3.0734E+08  1.1432E+08 -5.1314E-01
     232-
 mid.  surface     1.5098E+09  1.4111E+09  2.3913E+09  4.3893E+07 -7.9666E+07 -9.3177E+07 -2.3121E-01
     233-
 mid.  surface     6.7605E+08  7.4651E+08  7.5580E+08 -3.8878E+07 -1.1711E+08 -2.5840E+08  1.5601E-01
     240-
 mid.  surface    -8.0370E+07 -1.3387E+08  1.3723E+07 -2.8038E+07 -1.3904E+08 -7.3181E+07  1.3127E-01
     244-
 mid.  surface     1.0079E+09  1.0012E+09  1.1532E+09  2.9177E+07  1.2983E+08  6.9107E+07  2.4938E-01
     252-
 mid.  surface     1.0252E+09  1.1254E+09  2.0915E+09 -7.8454E+07  1.8651E+08  1.2647E+08 -5.6980E-01
     253-
 mid.  surface    -3.4967E+08 -3.9535E+08 -5.7742E+08 -3.2734E+07 -9.1699E+07 -3.1689E+08 -6.8679E-03
     254-
 mid.  surface    -8.0370E+07 -1.3387E+08  1.3723E+07 -2.8038E+07 -1.3904E+08 -7.3181E+07  2.0474E-01
     255-
 mid.  surface     1.0079E+09  1.0012E+09  1.1532E+09  2.9177E+07  1.2983E+08  6.9107E+07  4.3090E-01
     256-
 mid.  surface     3.7883E+08  4.1787E+08  1.1644E+09 -4.0797E+07  8.3077E+07  1.9044E+08  4.7863E-01
     257-
 mid.  surface    -2.3884E+08 -3.4150E+08 -8.4078E+08 -6.8405E+06 -3.5292E+07  1.1974E+08  6.4375E-01
     258-
 mid.  surface     4.5877E+08  2.4392E+08 -9.4781E+08  2.2765E+07 -2.1454E+07  3.8780E+07 -1.0236E-01
     259-
 mid.  surface    -8.2377E+08 -7.5171E+08 -3.6017E+08  3.0550E+06  9.6140E+07  2.4865E+08 -2.3863E-01
     260-
 mid.  surface    -3.4496E+08 -3.5723E+08 -3.2597E+08 -5.2793E+06 -4.4513E+07 -2.9661E+08  4.9941E-01
     261-
 mid.  surface    -2.9069E+08 -4.2326E+08 -1.3665E+09  2.9899E+06 -1.3933E+08 -2.3776E+08  6.8568E-01
     262-
 mid.  surface     9.1797E+08  7.3105E+08 -4.9923E+08  3.8028E+07 -5.5737E+07 -2.3797E+08  2.9848E-01
     263-
 mid.  surface    -3.9784E+08 -3.0848E+08 -1.0035E+08  6.2830E+06  4.1181E+07 -2.7756E+08  2.6346E-01
     264-
 mid.  surface    -9.7495E+08 -1.0215E+09 -1.5471E+09  3.6790E+07 -2.6817E+07  1.2707E+08  5.0041E-01
     265-
 mid.  surface    -6.6754E+08 -6.9715E+08 -1.4902E+09  6.0312E+07 -2.9700E+07  1.5406E+08  2.6866E-01
     266-
 mid.  surface    -1.8252E+09 -1.9553E+09 -3.5129E+09  5.8262E+07 -3.1011E+08 -1.1606E+08  9.6045E-01
     267-
 mid.  surface    -1.9474E+09 -2.0774E+09 -3.4158E+09  9.0003E+07 -1.6903E+08 -1.4659E+08  4.5313E-01
     273-
 mid.  surface    -8.0370E+07 -1.3387E+08  1.3723E+07 -2.8038E+07 -1.3904E+08 -7.3181E+07  5.1549E-02
     275-
 mid.  surface     1.0079E+09  1.0012E+09  1.1532E+09  2.9177E+07  1.2983E+08  6.9107E+07  1.5318E-01
     276-
 mid.  surface     7.2184E+08  6.8127E+08  9.5032E+07  4.9720E+07 -3.1628E+07  1.0313E+08  9.8990E-02
     277-
 mid.  surface    -6.8247E+08 -4.4022E+08  1.1450E+09 -4.0955E+07  2.3654E+07  2.4416E+08 -1.5595E-01
     278-
 mid.  surface     1.3465E+09  1.3446E+09  9.5256E+08  8.0702E+06 -8.6274E+07 -2.2827E+08  8.2711E-01
     279-
 mid.  surface     7.4274E+08  8.9720E+08  2.1638E+09 -4.8200E+07 -1.8458E+07 -2.5919E+08  1.1975E+00
     282-
 mid.  surface    -3.4813E+09 -3.4232E+09 -4.0646E+09 -4.9089E+07  2.0826E+08  1.0744E+08  2.4672E-01
     283-
 mid.  surface    -3.7545E+09 -3.8598E+09 -4.5143E+09  3.0977E+07 -1.8505E+08 -3.4599E+07 -2.7592E-02
     286-
 mid.  surface     5.0547E+09  4.9335E+09  4.9749E+09 -4.0034E+07  1.8436E+07  3.8850E+06  1.0786E+00
     287-
 mid.  surface     5.1449E+09  4.9573E+09  4.7485E+09  9.7187E+07 -5.8135E+08 -1.4894E+08  4.1190E-01
     290-
 mid.  surface    -8.0370E+07 -1.3387E+08  1.3723E+07 -2.8038E+07 -1.3904E+08 -7.3181E+07  1.2202E-01
     291-
 mid.  surface     1.0079E+09  1.0012E+09  1.1532E+09  2.9177E+07  1.2983E+08  6.9107E+07  2.2383E-01
     292-
 mid.  surface    -2.0015E+09 -2.0410E+09 -4.1760E+09  3.8641E+07 -1.5748E+08 -4.3346E+07  9.2222E-01
     293-
 mid.  surface    -1.2880E+09 -1.3496E+09 -3.3693E+09  2.0084E+08 -5.9138E+08 -1.0705E+08  4.1169E-02



 n o d a l  s t r a i n  c a l c u l a t i o n s   f o r   t i m e  s t e p      520   ( at time 9.88192E+01 )

 node (global)
          strain       eps-xx      eps-yy      eps-zz      eps-xy      eps-yz      eps-zx       
     229-
 mid.  surface     1.2763E-01  1.8721E-01 -2.4870E-01  1.7813E-02  2.1452E-02  3.6968E-02
     230-
 mid.  surface     1.2077E-01  1.8681E-01 -2.5526E-01  4.2671E-02  6.3227E-02  4.5715E-02
     232-
 mid.  surface     8.2048E-02  2.8707E-01 -2.1041E-01  7.3309E-03  3.2204E-02  9.7545E-04
     233-
 mid.  surface     1.1025E-01  2.2564E-01 -2.1981E-01  1.2626E-02 -1.7413E-03  3.7753E-02
     240-
 mid.  surface     6.6568E-02  6.5987E-02 -1.4236E-01 -3.8722E-02  1.1787E-01  5.0729E-02
     244-
 mid.  surface     6.9616E-02  3.2554E-02 -7.6021E-02 -3.6642E-02  3.8207E-02 -9.8658E-03
     252-
 mid.  surface     2.1403E-01  2.2897E-01 -4.1609E-01  9.0913E-02 -7.5184E-02 -8.9112E-02
     253-
 mid.  surface     1.9884E-01  2.6839E-01 -4.2007E-01  7.0939E-02 -7.3650E-03 -1.8310E-02
     254-
 mid.  surface     7.7186E-02  1.4607E-01 -2.2860E-01  6.0211E-03  1.1037E-01  6.8628E-03
     255-
 mid.  surface     8.0894E-02  1.0223E-01 -1.8803E-01  4.1252E-03  1.7169E-02 -3.6038E-02
     256-
 mid.  surface     1.2621E-01  1.5783E-01 -2.6058E-01  1.7847E-02  6.9772E-02  7.5539E-02
     257-
 mid.  surface     1.1320E-01  9.8166E-02 -1.6944E-01 -2.3148E-03 -3.4011E-02 -1.2767E-01
     258-
 mid.  surface     3.1289E-01  1.0394E-01 -4.6071E-01  4.9716E-02  5.3723E-02  1.9654E-02
     259-
 mid.  surface     2.6264E-01  1.7350E-01 -4.7096E-01  5.2729E-02  2.4506E-02 -1.4020E-01
     260-
 mid.  surface     7.9182E-02  1.7429E-01 -2.1715E-01 -1.8236E-02 -1.7322E-02  4.8288E-03
     261-
 mid.  surface     9.0993E-02  1.3081E-01 -1.4818E-01 -2.4494E-02 -1.2224E-01 -4.8662E-02
     262-
 mid.  surface     2.9622E-01  1.5250E-01 -4.6762E-01  4.9965E-02 -9.8642E-02 -9.9231E-02
     263-
 mid.  surface     2.8568E-01  1.9795E-01 -4.6843E-01  5.0179E-02 -3.5909E-02 -6.5823E-02
     264-
 mid.  surface     1.7301E-01  1.2788E-01 -3.0749E-01  2.8662E-02 -1.1444E-01 -1.2361E-01
     265-
 mid.  surface     2.4122E-01  1.9129E-01 -4.6094E-01  1.1597E-01 -1.0055E-02 -6.8328E-02
     266-
 mid.  surface     2.2547E-01  1.3440E-01 -2.9408E-01  5.8015E-02 -9.3825E-02  8.9786E-03
     267-
 mid.  surface     2.1653E-01  2.0525E-01 -4.5011E-01  8.7837E-02 -8.8480E-02 -3.4656E-02
     273-
 mid.  surface     1.3052E-01  1.1211E-01 -2.1694E-01  1.0476E-02 -4.2479E-02  4.3825E-02
     275-
 mid.  surface     1.2663E-01  8.8232E-02 -1.5068E-01  2.6299E-03 -5.3096E-02 -3.0751E-03
     276-
 mid.  surface     1.1794E-01  1.2710E-01 -2.0179E-01  3.3849E-02 -6.5443E-02 -7.5063E-02
     277-
 mid.  surface     1.2642E-01  1.4854E-01 -2.6698E-01 -8.2726E-03 -5.1795E-02 -5.8077E-02
     278-
 mid.  surface     1.4366E-01  1.5355E-01 -2.2850E-01  2.1207E-02 -5.1757E-03  1.3354E-04
     279-
 mid.  surface     1.6433E-01  1.4354E-01 -2.9781E-01 -2.1381E-02  2.6405E-02  2.1856E-02
     282-
 mid.  surface     1.9196E-01  1.6719E-01 -4.4318E-01  8.1414E-03 -1.7139E-01 -4.9911E-02
     283-
 mid.  surface     2.0241E-01  2.5513E-01 -4.2410E-01  6.5139E-02 -7.1203E-02 -1.7776E-02
     286-
 mid.  surface     1.4809E-01  1.1021E-01 -2.1268E-01 -2.5934E-03 -2.6289E-02 -5.0831E-03
     287-
 mid.  surface     6.9864E-02  2.2953E-01 -2.1133E-01 -1.0993E-02  6.4871E-02 -1.7694E-02
     290-
 mid.  surface     1.3571E-01  1.8399E-01 -2.9710E-01  4.2471E-02 -1.4751E-01 -5.9869E-02
     291-
 mid.  surface     1.3800E-01  1.5374E-01 -2.3389E-01  4.4217E-02 -1.0346E-01 -5.5089E-02
     292-
 mid.  surface     2.2531E-01  8.9519E-02 -4.4771E-01 -1.4104E-02 -2.4117E-01 -1.2698E-01
     293-
 mid.  surface     1.7384E-01  2.3055E-01 -4.4745E-01  4.0365E-02 -3.2830E-02 -2.6289E-02



 n o d a l  s t r e s s  c a l c u l a t i o n s   f o r   t i m e  s t e p      529   ( at time 1.00000E+02 )

 node (global)
          stress       sig-xx      sig-yy      sig-zz      sig-xy      sig-yz      sig-zx       plastic
                                                                                                 strain 
     229-
 mid.  surface     1.5998E+09  1.7230E+09  3.2226E+09 -6.9591E+07  5.3004E+08  9.1282E+07 -1.1288E-02
     230-
 mid.  surface     2.0411E+09  2.4115E+09  3.8636E+09 -8.0169E+07  3.1379E+08  1.1603E+08 -5.4316E-01
     232-
 mid.  surface     1.5033E+09  1.3562E+09  2.4230E+09  3.4500E+07 -1.0760E+08 -1.1505E+08 -2.4041E-01
     233-
 mid.  surface     5.5631E+08  5.9886E+08  7.2915E+08 -6.3585E+07 -1.7578E+08 -3.1237E+08  1.5838E-01
     240-
 mid.  surface    -1.2954E+08 -9.6982E+07  2.0934E+07  2.6604E+07 -2.8280E+08 -3.9167E+07  1.2732E-01
     244-
 mid.  surface     1.0436E+09  9.4466E+08  1.1275E+09 -2.3271E+07  2.7721E+08  3.8495E+07  2.4821E-01
     252-
 mid.  surface     1.0830E+09  1.1359E+09  2.1189E+09 -8.5668E+07  1.9119E+08  1.5805E+08 -5.8753E-01
     253-
 mid.  surface    -4.9489E+08 -5.7079E+08 -6.5312E+08 -6.4122E+07 -1.3593E+08 -3.7302E+08 -1.0805E-03
     254-
 mid.  surface    -1.2954E+08 -9.6982E+07  2.0934E+07  2.6604E+07 -2.8280E+08 -3.9167E+07  2.0079E-01
     255-
 mid.  surface     1.0436E+09  9.4466E+08  1.1275E+09 -2.3271E+07  2.7721E+08  3.8495E+07  4.2973E-01
     256-
 mid.  surface     3.9834E+08  3.8524E+08  1.1794E+09 -8.1114E+07  9.0481E+07  1.7600E+08  4.6508E-01
     257-
 mid.  surface    -1.6052E+08 -2.8358E+08 -7.9856E+08  1.0160E+07 -1.1927E+07  1.4183E+08  6.5223E-01
     258-
 mid.  surface     3.9636E+08  1.7027E+08 -1.0233E+09  2.5787E+07 -1.6708E+07  3.6893E+07 -8.4892E-02
     259-
 mid.  surface    -9.4589E+08 -8.6650E+08 -4.7086E+08 -2.8047E+06  9.9772E+07  2.2805E+08 -2.4552E-01
     260-
 mid.  surface    -5.5181E+08 -5.3027E+08 -4.5901E+08 -4.5949E+07 -8.5695E+07 -3.5938E+08  4.9917E-01
     261-
 mid.  surface    -3.2906E+08 -4.1521E+08 -1.3746E+09  2.3134E+07 -1.4755E+08 -2.5188E+08  7.0319E-01
     262-
 mid.  surface     9.7363E+08  8.0392E+08 -4.4055E+08  6.0345E+07 -6.7134E+07 -2.3166E+08  3.1823E-01
     263-
 mid.  surface    -4.1047E+08 -2.6807E+08 -7.6848E+07  1.9500E+07  1.9573E+07 -2.9292E+08  2.6153E-01
     264-
 mid.  surface    -9.1518E+08 -9.3970E+08 -1.5376E+09  4.6046E+07 -5.2048E+06  1.6211E+08  5.0912E-01
     265-
 mid.  surface    -5.5897E+08 -5.9987E+08 -1.4538E+09  1.0133E+08  1.6808E+07  2.1566E+08  2.8182E-01
     266-
 mid.  surface    -1.8563E+09 -2.0113E+09 -3.5355E+09  4.3929E+07 -3.4069E+08 -1.1590E+08  9.9124E-01
     267-
 mid.  surface    -1.9665E+09 -2.1090E+09 -3.4587E+09  1.1099E+08 -1.5226E+08 -1.3839E+08  4.7762E-01
     273-
 mid.  surface    -1.2954E+08 -9.6982E+07  2.0934E+07  2.6604E+07 -2.8280E+08 -3.9167E+07  4.7598E-02
     275-
 mid.  surface     1.0436E+09  9.4466E+08  1.1275E+09 -2.3271E+07  2.7721E+08  3.8495E+07  1.5201E-01
     276-
 mid.  surface     5.2676E+08  4.6206E+08 -1.1551E+08  3.2247E+07 -2.3826E+07  1.1563E+08  1.0580E-01
     277-
 mid.  surface    -8.1074E+08 -5.5076E+08  1.0338E+09 -4.2248E+07  2.8031E+07  2.2980E+08 -1.7989E-01
     278-
 mid.  surface     1.5420E+09  1.5031E+09  1.1223E+09 -6.8291E+06 -8.3828E+07 -2.0084E+08  8.3277E-01
     279-
 mid.  surface     9.8782E+08  1.1696E+09  2.4208E+09 -3.6764E+07 -2.8114E+07 -2.5256E+08  1.1812E+00
     282-
 mid.  surface    -3.6201E+09 -3.5168E+09 -4.2316E+09 -7.1048E+07  2.4317E+08  1.3741E+08  2.5775E-01
     283-
 mid.  surface    -3.8376E+09 -3.9816E+09 -4.6067E+09  1.7252E+07 -1.7569E+08 -1.6078E+07 -7.4817E-03
     286-
 mid.  surface     5.1722E+09  5.0268E+09  5.1077E+09 -4.6025E+07 -4.1241E+07 -2.8334E+07  1.0666E+00
     287-
 mid.  surface     5.5011E+09  5.2007E+09  5.1420E+09  1.1432E+08 -6.6038E+08 -1.6707E+08  4.1860E-01
     290-
 mid.  surface    -1.2954E+08 -9.6982E+07  2.0934E+07  2.6604E+07 -2.8280E+08 -3.9167E+07  1.1806E-01
     291-
 mid.  surface     1.0436E+09  9.4466E+08  1.1275E+09 -2.3271E+07  2.7721E+08  3.8495E+07  2.2265E-01
     292-
 mid.  surface    -2.0255E+09 -2.0922E+09 -4.2258E+09  6.8364E+07 -1.3295E+08 -4.1700E+07  9.4982E-01
     293-
 mid.  surface    -1.0663E+09 -1.2193E+09 -3.1567E+09  2.5075E+08 -6.2366E+08 -8.1700E+07  7.6447E-02



 n o d a l  s t r a i n  c a l c u l a t i o n s   f o r   t i m e  s t e p      529   ( at time 1.00000E+02 )

 node (global)
          strain       eps-xx      eps-yy      eps-zz      eps-xy      eps-yz      eps-zx       
     229-
 mid.  surface     1.2787E-01  1.9239E-01 -2.5120E-01  1.6171E-02  2.2301E-02  3.6838E-02
     230-
 mid.  surface     1.2507E-01  1.8584E-01 -2.5877E-01  4.0862E-02  6.6798E-02  4.5683E-02
     232-
 mid.  surface     8.3549E-02  2.9376E-01 -2.1285E-01  8.7372E-03  3.3091E-02  1.9712E-03
     233-
 mid.  surface     1.1554E-01  2.2641E-01 -2.2400E-01  1.3937E-02 -1.2077E-03  3.8552E-02
     240-
 mid.  surface     6.8473E-02  6.9734E-02 -1.4703E-01 -3.9350E-02  1.2673E-01  5.2480E-02
     244-
 mid.  surface     7.0444E-02  3.1845E-02 -7.3951E-02 -3.8205E-02  4.0771E-02 -9.6280E-03
     252-
 mid.  surface     2.1723E-01  2.3174E-01 -4.2475E-01  9.0666E-02 -7.7285E-02 -9.2921E-02
     253-
 mid.  surface     2.0326E-01  2.7236E-01 -4.3178E-01  7.2205E-02 -6.9475E-03 -1.5828E-02
     254-
 mid.  surface     7.9167E-02  1.5081E-01 -2.3501E-01  5.9441E-03  1.1946E-01  6.3033E-03
     255-
 mid.  surface     8.1888E-02  1.0344E-01 -1.8998E-01  4.1197E-03  1.6234E-02 -3.7569E-02
     256-
 mid.  surface     1.2804E-01  1.5949E-01 -2.6164E-01  1.6741E-02  6.6774E-02  7.2322E-02
     257-
 mid.  surface     1.1507E-01  1.0119E-01 -1.7354E-01 -1.6679E-03 -3.5270E-02 -1.2612E-01
     258-
 mid.  surface     3.1652E-01  1.0546E-01 -4.6745E-01  5.0230E-02  5.3985E-02  2.4107E-02
     259-
 mid.  surface     2.6708E-01  1.7383E-01 -4.7806E-01  5.1672E-02  2.3487E-02 -1.4271E-01
     260-
 mid.  surface     8.2378E-02  1.7716E-01 -2.2056E-01 -1.6947E-02 -1.7521E-02  5.0023E-03
     261-
 mid.  surface     9.4279E-02  1.3365E-01 -1.5206E-01 -2.3498E-02 -1.2308E-01 -4.8775E-02
     262-
 mid.  surface     2.9999E-01  1.5506E-01 -4.7708E-01  4.9872E-02 -9.7291E-02 -9.9368E-02
     263-
 mid.  surface     2.8883E-01  2.0037E-01 -4.7586E-01  5.0457E-02 -3.4704E-02 -6.5314E-02
     264-
 mid.  surface     1.7690E-01  1.2805E-01 -3.1100E-01  2.8363E-02 -1.1373E-01 -1.2418E-01
     265-
 mid.  surface     2.4388E-01  1.9442E-01 -4.6829E-01  1.1715E-01 -4.4898E-03 -6.4071E-02
     266-
 mid.  surface     2.2856E-01  1.3716E-01 -2.9501E-01  5.8178E-02 -9.6065E-02  7.6336E-03
     267-
 mid.  surface     2.1866E-01  2.0881E-01 -4.5956E-01  8.9055E-02 -9.0145E-02 -3.5701E-02
     273-
 mid.  surface     1.3235E-01  1.1873E-01 -2.2207E-01  1.1271E-02 -4.6413E-02  4.6164E-02
     275-
 mid.  surface     1.2923E-01  9.1385E-02 -1.4863E-01  1.7445E-03 -5.6674E-02 -3.3293E-03
     276-
 mid.  surface     1.2224E-01  1.2807E-01 -2.0514E-01  3.4633E-02 -6.7255E-02 -7.6259E-02
     277-
 mid.  surface     1.3081E-01  1.4896E-01 -2.6833E-01 -8.0660E-03 -5.2731E-02 -5.7860E-02
     278-
 mid.  surface     1.4208E-01  1.5684E-01 -2.3010E-01  2.0369E-02 -4.0764E-03 -1.6209E-03
     279-
 mid.  surface     1.6304E-01  1.4637E-01 -2.9760E-01 -2.2304E-02  2.7926E-02  2.1545E-02
     282-
 mid.  surface     1.9574E-01  1.7103E-01 -4.5218E-01  8.6553E-03 -1.7530E-01 -5.1178E-02
     283-
 mid.  surface     2.0654E-01  2.6179E-01 -4.3241E-01  6.6345E-02 -7.2919E-02 -1.7532E-02
     286-
 mid.  surface     1.4923E-01  1.1401E-01 -2.1317E-01 -2.1803E-03 -2.4302E-02 -6.5263E-03
     287-
 mid.  surface     7.2577E-02  2.2846E-01 -2.1116E-01 -1.2716E-02  6.5516E-02 -1.7458E-02
     290-
 mid.  surface     1.3754E-01  1.9205E-01 -3.0648E-01  4.2847E-02 -1.5508E-01 -6.0628E-02
     291-
 mid.  surface     1.4083E-01  1.5848E-01 -2.3606E-01  4.4991E-02 -1.1037E-01 -5.6731E-02
     292-
 mid.  surface     2.2895E-01  9.0273E-02 -4.5563E-01 -1.2059E-02 -2.4722E-01 -1.3282E-01
     293-
 mid.  surface     1.7941E-01  2.2718E-01 -4.5432E-01  4.0194E-02 -3.3421E-02 -2.6445E-02
