 LS-DYNA keyword deck by LS-PrePost                                      
                    ls-dyna smp d R14 R14.1.1s_1_ef50e1 date 06/16/2024

{BEGIN LEGEND}
 Entity #        Title
      224                                                                                     
      225                                                                                     
      226                                                                                     
      227                                                                                     
      231                                                                                     
      232                                                                                     
      233                                                                                     
      236                                                                                     
      237                                                                                     
      242                                                                                     
      243                                                                                     
      244                                                                                     
      245                                                                                     
      249                                                                                     
      250                                                                                     
      251                                                                                     
      253                                                                                     
      255                                                                                     
      260                                                                                     
      261                                                                                     
      262                                                                                     
      263                                                                                     
      266                                                                                     
      267                                                                                     
      269                                                                                     
      271                                                                                     
      274                                                                                     
      275                                                                                     
      278                                                                                     
      279                                                                                     
      281                                                                                     
      283                                                                                     
      285                                                                                     
      287                                                                                     
      289                                                                                     
      291                                                                                     
      293                                                                                     
      354                                                                                     
      355                                                                                     
      356                                                                                     
      357                                                                                     
      403                                                                                     
      404                                                                                     
      405                                                                                     
      466                                                                                     
      467                                                                                     
      468                                                                                     
      469                                                                                     
      530                                                                                     
      531                                                                                     
      532                                                                                     
      533                                                                                     
      549                                                                                     
      610                                                                                     
      611                                                                                     
      612                                                                                     
      613                                                                                     
      629                                                                                     
      660                                                                                     
      661                                                                                     
      692                                                                                     
      693                                                                                     
      724                                                                                     
      725                                                                                     
      771                                                                                     
      772                                                                                     
      773                                                                                     
      804                                                                                     
      805                                                                                     
      821                                                                                     
      852                                                                                     
      853                                                                                     
      869                                                                                     
      885                                                                                     
     1082                                                                                     
     1083                                                                                     
     1084                                                                                     
     1085                                                                                     
     1086                                                                                     
     1087                                                                                     
     1649                                                                                     
     1651                                                                                     
     1653                                                                                     
     1655                                                                                     
     1657                                                                                     
     1659                                                                                     
     1733                                                                                     
     1734                                                                                     
     1735                                                                                     
     1736                                                                                     
     1737                                                                                     
     1738                                                                                     
     1739                                                                                     
     1740                                                                                     
     1741                                                                                     
     1742                                                                                     
     1743                                                                                     
     1744                                                                                     
     1751                                                                                     
     1752                                                                                     
     1753                                                                                     
     1754                                                                                     
     1755                                                                                     
     1756                                                                                     
     1757                                                                                     
     1758                                                                                     
     1759                                                                                     
     1760                                                                                     
     1761                                                                                     
     1762                                                                                     
     1769                                                                                     
     1770                                                                                     
     1771                                                                                     
     1772                                                                                     
     1773                                                                                     
     1774                                                                                     
{END LEGEND}




 n o d a l   p r i n t   o u t   f o r   t i m e  s t e p       1                              ( at time 0.0000000E+00 )

 nodal point  x-disp     y-disp      z-disp      x-vel       y-vel       z-vel      x-accl      y-accl      z-accl      x-coor      y-coor      z-coor
      224  0.00000E+00 0.00000E+00 0.00000E+00 0.00000E+00 0.00000E+00 0.00000E+00 0.00000E+00 0.00000E+00 0.00000E+00 1.88330E-03 1.81150E-03-5.69000E-23
      225  0.00000E+00 0.00000E+00 0.00000E+00 0.00000E+00 0.00000E+00 0.00000E+00 0.00000E+00 0.00000E+00 0.00000E+00 1.28580E-03 1.97620E-03-3.67000E-23
      226  0.00000E+00 0.00000E+00 0.00000E+00 0.00000E+00 0.00000E+00 0.00000E+00 0.00000E+00 0.00000E+00 0.00000E+00 1.57600E-03 2.53450E-03 6.40400E-25
      227  0.00000E+00 0.00000E+00 0.00000E+00 0.00000E+00 0.00000E+00 0.00000E+00 0.00000E+00 0.00000E+00 0.00000E+00 2.25020E-03 2.18950E-03 3.20100E-23
      231  0.00000E+00 0.00000E+00 0.00000E+00 0.00000E+00 0.00000E+00 0.00000E+00 0.00000E+00 0.00000E+00 0.00000E+00 8.14201E-04 2.76640E-03-2.38000E-25
      232  0.00000E+00 0.00000E+00 0.00000E+00 0.00000E+00 0.00000E+00 0.00000E+00 0.00000E+00 0.00000E+00 0.00000E+00 9.70776E-04 3.46180E-03-1.17000E-24
      233  0.00000E+00 0.00000E+00 0.00000E+00 0.00000E+00 0.00000E+00 0.00000E+00 0.00000E+00 0.00000E+00 0.00000E+00 1.86090E-03 3.11290E-03-5.42000E-23
      236  0.00000E+00 0.00000E+00 0.00000E+00 0.00000E+00 0.00000E+00 0.00000E+00 0.00000E+00 0.00000E+00 0.00000E+00 2.57360E-03 1.50500E-03-4.04000E-23
      237  0.00000E+00 0.00000E+00 0.00000E+00 0.00000E+00 0.00000E+00 0.00000E+00 0.00000E+00 0.00000E+00 0.00000E+00 2.02790E-03 1.22060E-03 3.14300E-23
      242  0.00000E+00 0.00000E+00 0.00000E+00 0.00000E+00 0.00000E+00 0.00000E+00 0.00000E+00 0.00000E+00 0.00000E+00 1.38580E-03 1.33080E-03-3.93000E-23
      243  0.00000E+00 0.00000E+00 0.00000E+00 0.00000E+00 0.00000E+00 0.00000E+00 0.00000E+00 0.00000E+00 0.00000E+00 1.44150E-03 6.69147E-04-2.93000E-24
      244  0.00000E+00 0.00000E+00 0.00000E+00 0.00000E+00 0.00000E+00 0.00000E+00 0.00000E+00 0.00000E+00 0.00000E+00 7.33477E-04 7.06270E-04-5.16000E-23
      245  0.00000E+00 0.00000E+00 0.00000E+00 0.00000E+00 0.00000E+00 0.00000E+00 0.00000E+00 0.00000E+00 0.00000E+00 7.11341E-04 1.40890E-03-4.76000E-23
      249  0.00000E+00 0.00000E+00 0.00000E+00 0.00000E+00 0.00000E+00 0.00000E+00 0.00000E+00 0.00000E+00 0.00000E+00 6.61195E-04 2.10150E-03 3.89200E-23
      250  0.00000E+00 0.00000E+00 0.00000E+00 0.00000E+00 0.00000E+00 0.00000E+00 0.00000E+00 0.00000E+00 0.00000E+00 8.87500E-20 1.44940E-03 0.00000E+00
      251  0.00000E+00 0.00000E+00 0.00000E+00 0.00000E+00 0.00000E+00 0.00000E+00 0.00000E+00 0.00000E+00 0.00000E+00 1.33100E-19 2.17410E-03 0.00000E+00
      253  0.00000E+00 0.00000E+00 0.00000E+00 0.00000E+00 0.00000E+00 0.00000E+00 0.00000E+00 0.00000E+00 0.00000E+00 2.64450E-03 2.60660E-03 5.88000E-25
      255  0.00000E+00 0.00000E+00 0.00000E+00 0.00000E+00 0.00000E+00 0.00000E+00 0.00000E+00 0.00000E+00 0.00000E+00 4.43800E-20 7.24704E-04 0.00000E+00
      260  0.00000E+00 0.00000E+00 0.00000E+00 0.00000E+00 0.00000E+00 0.00000E+00 0.00000E+00 0.00000E+00 0.00000E+00 3.15150E-03 1.82130E-03-5.54000E-23
      261  0.00000E+00 0.00000E+00 0.00000E+00 0.00000E+00 0.00000E+00 0.00000E+00 0.00000E+00 0.00000E+00 0.00000E+00 3.76570E-03 2.17410E-03 0.00000E+00
      262  0.00000E+00 0.00000E+00 0.00000E+00 0.00000E+00 0.00000E+00 0.00000E+00 0.00000E+00 0.00000E+00 0.00000E+00 4.20010E-03 1.12540E-03 0.00000E+00
      263  0.00000E+00 0.00000E+00 0.00000E+00 0.00000E+00 0.00000E+00 0.00000E+00 0.00000E+00 0.00000E+00 0.00000E+00 3.48390E-03 9.38648E-04-1.24000E-24
      266  0.00000E+00 0.00000E+00 0.00000E+00 0.00000E+00 0.00000E+00 0.00000E+00 0.00000E+00 0.00000E+00 0.00000E+00 2.17410E-03 3.76570E-03 0.00000E+00
      267  0.00000E+00 0.00000E+00 0.00000E+00 0.00000E+00 0.00000E+00 0.00000E+00 0.00000E+00 0.00000E+00 0.00000E+00 3.07470E-03 3.07470E-03 0.00000E+00
      269  0.00000E+00 0.00000E+00 0.00000E+00 0.00000E+00 0.00000E+00 0.00000E+00 0.00000E+00 0.00000E+00 0.00000E+00 2.12510E-03 6.16811E-04 1.05700E-24
      271  0.00000E+00 0.00000E+00 0.00000E+00 0.00000E+00 0.00000E+00 0.00000E+00 0.00000E+00 0.00000E+00 0.00000E+00 1.77500E-19 2.89880E-03 0.00000E+00
      274  0.00000E+00 0.00000E+00 0.00000E+00 0.00000E+00 0.00000E+00 0.00000E+00 0.00000E+00 0.00000E+00 0.00000E+00 1.44940E-03 0.00000E+00 0.00000E+00
      275  0.00000E+00 0.00000E+00 0.00000E+00 0.00000E+00 0.00000E+00 0.00000E+00 0.00000E+00 0.00000E+00 0.00000E+00 7.24704E-04 0.00000E+00 0.00000E+00
      278  0.00000E+00 0.00000E+00 0.00000E+00 0.00000E+00 0.00000E+00 0.00000E+00 0.00000E+00 0.00000E+00 0.00000E+00 4.34820E-03 0.00000E+00 0.00000E+00
      279  0.00000E+00 0.00000E+00 0.00000E+00 0.00000E+00 0.00000E+00 0.00000E+00 0.00000E+00 0.00000E+00 0.00000E+00 3.62350E-03 0.00000E+00 0.00000E+00
      281  0.00000E+00 0.00000E+00 0.00000E+00 0.00000E+00 0.00000E+00 0.00000E+00 0.00000E+00 0.00000E+00 0.00000E+00 2.79280E-03 7.69472E-04 4.81700E-23
      283  0.00000E+00 0.00000E+00 0.00000E+00 0.00000E+00 0.00000E+00 0.00000E+00 0.00000E+00 0.00000E+00 0.00000E+00 1.12540E-03 4.20010E-03 0.00000E+00
      285  0.00000E+00 0.00000E+00 0.00000E+00 0.00000E+00 0.00000E+00 0.00000E+00 0.00000E+00 0.00000E+00 0.00000E+00 2.89880E-03 0.00000E+00 0.00000E+00
      287  0.00000E+00 0.00000E+00 0.00000E+00 0.00000E+00 0.00000E+00 0.00000E+00 0.00000E+00 0.00000E+00 0.00000E+00 2.21900E-19 3.62350E-03 0.00000E+00
      289  0.00000E+00 0.00000E+00 0.00000E+00 0.00000E+00 0.00000E+00 0.00000E+00 0.00000E+00 0.00000E+00 0.00000E+00 2.17410E-03 0.00000E+00 0.00000E+00
      291  0.00000E+00 0.00000E+00 0.00000E+00 0.00000E+00 0.00000E+00 0.00000E+00 0.00000E+00 0.00000E+00 0.00000E+00 0.00000E+00 0.00000E+00 0.00000E+00
      293  0.00000E+00 0.00000E+00 0.00000E+00 0.00000E+00 0.00000E+00 0.00000E+00 0.00000E+00 0.00000E+00 0.00000E+00 2.66300E-19 4.34820E-03 0.00000E+00
      354  0.00000E+00 0.00000E+00 0.00000E+00 0.00000E+00 0.00000E+00 0.00000E+00 0.00000E+00 0.00000E+00 0.00000E+00 1.11600E-03 3.97980E-03 2.54000E-02
      355  0.00000E+00 0.00000E+00 0.00000E+00 0.00000E+00 0.00000E+00 0.00000E+00 0.00000E+00 0.00000E+00 0.00000E+00 1.29410E-03 4.82960E-03 2.54000E-02
      356  0.00000E+00 0.00000E+00 0.00000E+00 0.00000E+00 0.00000E+00 0.00000E+00 0.00000E+00 0.00000E+00 0.00000E+00 3.06200E-19 5.00000E-03 2.54000E-02
      357  0.00000E+00 0.00000E+00 0.00000E+00 0.00000E+00 0.00000E+00 0.00000E+00 0.00000E+00 0.00000E+00 0.00000E+00 2.55100E-19 4.16670E-03 2.54000E-02
      403  0.00000E+00 0.00000E+00 0.00000E+00 0.00000E+00 0.00000E+00 0.00000E+00 0.00000E+00 0.00000E+00 0.00000E+00 1.81190E-03 2.91390E-03 2.54000E-02
      404  0.00000E+00 0.00000E+00 0.00000E+00 0.00000E+00 0.00000E+00 0.00000E+00 0.00000E+00 0.00000E+00 0.00000E+00 2.13930E-03 3.57880E-03 2.54000E-02
      405  0.00000E+00 0.00000E+00 0.00000E+00 0.00000E+00 0.00000E+00 0.00000E+00 0.00000E+00 0.00000E+00 0.00000E+00 9.35960E-04 3.18030E-03 2.54000E-02
      466  0.00000E+00 0.00000E+00 0.00000E+00 0.00000E+00 0.00000E+00 0.00000E+00 0.00000E+00 0.00000E+00 0.00000E+00 2.16540E-03 2.08280E-03 2.54000E-02
      467  0.00000E+00 0.00000E+00 0.00000E+00 0.00000E+00 0.00000E+00 0.00000E+00 0.00000E+00 0.00000E+00 0.00000E+00 2.33160E-03 1.40340E-03 2.54000E-02
      468  0.00000E+00 0.00000E+00 0.00000E+00 0.00000E+00 0.00000E+00 0.00000E+00 0.00000E+00 0.00000E+00 0.00000E+00 2.95890E-03 1.73030E-03 2.54000E-02
      469  0.00000E+00 0.00000E+00 0.00000E+00 0.00000E+00 0.00000E+00 0.00000E+00 0.00000E+00 0.00000E+00 0.00000E+00 2.58720E-03 2.51740E-03 2.54000E-02
      530  0.00000E+00 0.00000E+00 0.00000E+00 0.00000E+00 0.00000E+00 0.00000E+00 0.00000E+00 0.00000E+00 0.00000E+00 1.59320E-03 1.53000E-03 2.54000E-02
      531  0.00000E+00 0.00000E+00 0.00000E+00 0.00000E+00 0.00000E+00 0.00000E+00 0.00000E+00 0.00000E+00 0.00000E+00 8.17758E-04 1.61980E-03 2.54000E-02
      532  0.00000E+00 0.00000E+00 0.00000E+00 0.00000E+00 0.00000E+00 0.00000E+00 0.00000E+00 0.00000E+00 0.00000E+00 8.43256E-04 8.11923E-04 2.54000E-02
      533  0.00000E+00 0.00000E+00 0.00000E+00 0.00000E+00 0.00000E+00 0.00000E+00 0.00000E+00 0.00000E+00 0.00000E+00 1.65730E-03 7.69232E-04 2.54000E-02
      549  0.00000E+00 0.00000E+00 0.00000E+00 0.00000E+00 0.00000E+00 0.00000E+00 0.00000E+00 0.00000E+00 0.00000E+00 1.47820E-03 2.27200E-03 2.54000E-02
      610  0.00000E+00 0.00000E+00 0.00000E+00 0.00000E+00 0.00000E+00 0.00000E+00 0.00000E+00 0.00000E+00 0.00000E+00 3.62300E-03 2.09380E-03 2.54000E-02
      611  0.00000E+00 0.00000E+00 0.00000E+00 0.00000E+00 0.00000E+00 0.00000E+00 0.00000E+00 0.00000E+00 0.00000E+00 4.00530E-03 1.07910E-03 2.54000E-02
      612  0.00000E+00 0.00000E+00 0.00000E+00 0.00000E+00 0.00000E+00 0.00000E+00 0.00000E+00 0.00000E+00 0.00000E+00 4.82960E-03 1.29410E-03 2.54000E-02
      613  0.00000E+00 0.00000E+00 0.00000E+00 0.00000E+00 0.00000E+00 0.00000E+00 0.00000E+00 0.00000E+00 0.00000E+00 4.33010E-03 2.50000E-03 2.54000E-02
      629  0.00000E+00 0.00000E+00 0.00000E+00 0.00000E+00 0.00000E+00 0.00000E+00 0.00000E+00 0.00000E+00 0.00000E+00 3.04030E-03 2.99670E-03 2.54000E-02
      660  0.00000E+00 0.00000E+00 0.00000E+00 0.00000E+00 0.00000E+00 0.00000E+00 0.00000E+00 0.00000E+00 0.00000E+00 1.02100E-19 1.66670E-03 2.54000E-02
      661  0.00000E+00 0.00000E+00 0.00000E+00 0.00000E+00 0.00000E+00 0.00000E+00 0.00000E+00 0.00000E+00 0.00000E+00 5.10300E-20 8.33333E-04 2.54000E-02
      692  0.00000E+00 0.00000E+00 0.00000E+00 0.00000E+00 0.00000E+00 0.00000E+00 0.00000E+00 0.00000E+00 0.00000E+00 3.53550E-03 3.53550E-03 2.54000E-02
      693  0.00000E+00 0.00000E+00 0.00000E+00 0.00000E+00 0.00000E+00 0.00000E+00 0.00000E+00 0.00000E+00 0.00000E+00 2.50000E-03 4.33010E-03 2.54000E-02
      724  0.00000E+00 0.00000E+00 0.00000E+00 0.00000E+00 0.00000E+00 0.00000E+00 0.00000E+00 0.00000E+00 0.00000E+00 0.00000E+00 0.00000E+00 2.54000E-02
      725  0.00000E+00 0.00000E+00 0.00000E+00 0.00000E+00 0.00000E+00 0.00000E+00 0.00000E+00 0.00000E+00 0.00000E+00 8.33333E-04 0.00000E+00 2.54000E-02
      771  0.00000E+00 0.00000E+00 0.00000E+00 0.00000E+00 0.00000E+00 0.00000E+00 0.00000E+00 0.00000E+00 0.00000E+00 7.60076E-04 2.41590E-03 2.54000E-02
      772  0.00000E+00 0.00000E+00 0.00000E+00 0.00000E+00 0.00000E+00 0.00000E+00 0.00000E+00 0.00000E+00 0.00000E+00 2.04100E-19 3.33330E-03 2.54000E-02
      773  0.00000E+00 0.00000E+00 0.00000E+00 0.00000E+00 0.00000E+00 0.00000E+00 0.00000E+00 0.00000E+00 0.00000E+00 1.53100E-19 2.50000E-03 2.54000E-02
      804  0.00000E+00 0.00000E+00 0.00000E+00 0.00000E+00 0.00000E+00 0.00000E+00 0.00000E+00 0.00000E+00 0.00000E+00 4.16670E-03 0.00000E+00 2.54000E-02
      805  0.00000E+00 0.00000E+00 0.00000E+00 0.00000E+00 0.00000E+00 0.00000E+00 0.00000E+00 0.00000E+00 0.00000E+00 5.00000E-03 0.00000E+00 2.54000E-02
      821  0.00000E+00 0.00000E+00 0.00000E+00 0.00000E+00 0.00000E+00 0.00000E+00 0.00000E+00 0.00000E+00 0.00000E+00 1.66670E-03 0.00000E+00 2.54000E-02
      852  0.00000E+00 0.00000E+00 0.00000E+00 0.00000E+00 0.00000E+00 0.00000E+00 0.00000E+00 0.00000E+00 0.00000E+00 2.44320E-03 7.09106E-04 2.54000E-02
      853  0.00000E+00 0.00000E+00 0.00000E+00 0.00000E+00 0.00000E+00 0.00000E+00 0.00000E+00 0.00000E+00 0.00000E+00 3.21050E-03 8.84511E-04 2.54000E-02
      869  0.00000E+00 0.00000E+00 0.00000E+00 0.00000E+00 0.00000E+00 0.00000E+00 0.00000E+00 0.00000E+00 0.00000E+00 3.33330E-03 0.00000E+00 2.54000E-02
      885  0.00000E+00 0.00000E+00 0.00000E+00 0.00000E+00 0.00000E+00 0.00000E+00 0.00000E+00 0.00000E+00 0.00000E+00 2.50000E-03 0.00000E+00 2.54000E-02
     1082  0.00000E+00 0.00000E+00 0.00000E+00 0.00000E+00 0.00000E+00 0.00000E+00 0.00000E+00 0.00000E+00 0.00000E+00 1.27000E-02 0.00000E+00 2.54000E-02
     1083  0.00000E+00 0.00000E+00 0.00000E+00 0.00000E+00 0.00000E+00 0.00000E+00 0.00000E+00 0.00000E+00 0.00000E+00 1.14167E-02 0.00000E+00 2.54000E-02
     1084  0.00000E+00 0.00000E+00 0.00000E+00 0.00000E+00 0.00000E+00 0.00000E+00 0.00000E+00 0.00000E+00 0.00000E+00 1.01333E-02 0.00000E+00 2.54000E-02
     1085  0.00000E+00 0.00000E+00 0.00000E+00 0.00000E+00 0.00000E+00 0.00000E+00 0.00000E+00 0.00000E+00 0.00000E+00 8.85000E-03 0.00000E+00 2.54000E-02
     1086  0.00000E+00 0.00000E+00 0.00000E+00 0.00000E+00 0.00000E+00 0.00000E+00 0.00000E+00 0.00000E+00 0.00000E+00 7.56670E-03 0.00000E+00 2.54000E-02
     1087  0.00000E+00 0.00000E+00 0.00000E+00 0.00000E+00 0.00000E+00 0.00000E+00 0.00000E+00 0.00000E+00 0.00000E+00 6.28330E-03 0.00000E+00 2.54000E-02
     1649  0.00000E+00 0.00000E+00 0.00000E+00 0.00000E+00 0.00000E+00 0.00000E+00 0.00000E+00 0.00000E+00 0.00000E+00 6.07040E-03 1.62190E-03 2.54000E-02
     1651  0.00000E+00 0.00000E+00 0.00000E+00 0.00000E+00 0.00000E+00 0.00000E+00 0.00000E+00 0.00000E+00 0.00000E+00 5.44330E-03 3.13850E-03 2.54000E-02
     1653  0.00000E+00 0.00000E+00 0.00000E+00 0.00000E+00 0.00000E+00 0.00000E+00 0.00000E+00 0.00000E+00 0.00000E+00 4.44320E-03 4.44270E-03 2.54000E-02
     1655  0.00000E+00 0.00000E+00 0.00000E+00 0.00000E+00 0.00000E+00 0.00000E+00 0.00000E+00 0.00000E+00 0.00000E+00 3.13850E-03 5.44330E-03 2.54000E-02
     1657  0.00000E+00 0.00000E+00 0.00000E+00 0.00000E+00 0.00000E+00 0.00000E+00 0.00000E+00 0.00000E+00 0.00000E+00 1.62150E-03 6.07050E-03 2.54000E-02
     1659  0.00000E+00 0.00000E+00 0.00000E+00 0.00000E+00 0.00000E+00 0.00000E+00 0.00000E+00 0.00000E+00 0.00000E+00 3.84700E-19 6.28330E-03 2.54000E-02
     1733  0.00000E+00 0.00000E+00 0.00000E+00 0.00000E+00 0.00000E+00 0.00000E+00 0.00000E+00 0.00000E+00 0.00000E+00 9.79280E-03 2.60500E-03 2.54000E-02
     1734  0.00000E+00 0.00000E+00 0.00000E+00 0.00000E+00 0.00000E+00 0.00000E+00 0.00000E+00 0.00000E+00 0.00000E+00 1.10336E-02 2.93270E-03 2.54000E-02
     1735  0.00000E+00 0.00000E+00 0.00000E+00 0.00000E+00 0.00000E+00 0.00000E+00 0.00000E+00 0.00000E+00 0.00000E+00 8.78310E-03 5.05390E-03 2.54000E-02
     1736  0.00000E+00 0.00000E+00 0.00000E+00 0.00000E+00 0.00000E+00 0.00000E+00 0.00000E+00 0.00000E+00 0.00000E+00 9.89640E-03 5.69230E-03 2.54000E-02
     1737  0.00000E+00 0.00000E+00 0.00000E+00 0.00000E+00 0.00000E+00 0.00000E+00 0.00000E+00 0.00000E+00 0.00000E+00 7.16650E-03 7.16420E-03 2.54000E-02
     1738  0.00000E+00 0.00000E+00 0.00000E+00 0.00000E+00 0.00000E+00 0.00000E+00 0.00000E+00 0.00000E+00 0.00000E+00 8.07430E-03 8.07130E-03 2.54000E-02
     1739  0.00000E+00 0.00000E+00 0.00000E+00 0.00000E+00 0.00000E+00 0.00000E+00 0.00000E+00 0.00000E+00 0.00000E+00 5.05450E-03 8.78270E-03 2.54000E-02
     1740  0.00000E+00 0.00000E+00 0.00000E+00 0.00000E+00 0.00000E+00 0.00000E+00 0.00000E+00 0.00000E+00 0.00000E+00 5.69340E-03 9.89580E-03 2.54000E-02
     1741  0.00000E+00 0.00000E+00 0.00000E+00 0.00000E+00 0.00000E+00 0.00000E+00 0.00000E+00 0.00000E+00 0.00000E+00 2.60420E-03 9.79300E-03 2.54000E-02
     1742  0.00000E+00 0.00000E+00 0.00000E+00 0.00000E+00 0.00000E+00 0.00000E+00 0.00000E+00 0.00000E+00 0.00000E+00 2.93200E-03 1.10338E-02 2.54000E-02
     1743  0.00000E+00 0.00000E+00 0.00000E+00 0.00000E+00 0.00000E+00 0.00000E+00 0.00000E+00 0.00000E+00 0.00000E+00 6.20500E-19 1.01333E-02 2.54000E-02
     1744  0.00000E+00 0.00000E+00 0.00000E+00 0.00000E+00 0.00000E+00 0.00000E+00 0.00000E+00 0.00000E+00 0.00000E+00 6.99100E-19 1.14167E-02 2.54000E-02
     1751  0.00000E+00 0.00000E+00 0.00000E+00 0.00000E+00 0.00000E+00 0.00000E+00 0.00000E+00 0.00000E+00 0.00000E+00 7.31120E-03 1.94960E-03 2.54000E-02
     1752  0.00000E+00 0.00000E+00 0.00000E+00 0.00000E+00 0.00000E+00 0.00000E+00 0.00000E+00 0.00000E+00 0.00000E+00 8.55200E-03 2.27730E-03 2.54000E-02
     1753  0.00000E+00 0.00000E+00 0.00000E+00 0.00000E+00 0.00000E+00 0.00000E+00 0.00000E+00 0.00000E+00 0.00000E+00 6.55660E-03 3.77700E-03 2.54000E-02
     1754  0.00000E+00 0.00000E+00 0.00000E+00 0.00000E+00 0.00000E+00 0.00000E+00 0.00000E+00 0.00000E+00 0.00000E+00 7.66980E-03 4.41550E-03 2.54000E-02
     1755  0.00000E+00 0.00000E+00 0.00000E+00 0.00000E+00 0.00000E+00 0.00000E+00 0.00000E+00 0.00000E+00 0.00000E+00 5.35100E-03 5.34990E-03 2.54000E-02
     1756  0.00000E+00 0.00000E+00 0.00000E+00 0.00000E+00 0.00000E+00 0.00000E+00 0.00000E+00 0.00000E+00 0.00000E+00 6.25870E-03 6.25710E-03 2.54000E-02
     1757  0.00000E+00 0.00000E+00 0.00000E+00 0.00000E+00 0.00000E+00 0.00000E+00 0.00000E+00 0.00000E+00 0.00000E+00 3.77710E-03 6.55650E-03 2.54000E-02
     1758  0.00000E+00 0.00000E+00 0.00000E+00 0.00000E+00 0.00000E+00 0.00000E+00 0.00000E+00 0.00000E+00 0.00000E+00 4.41580E-03 7.66960E-03 2.54000E-02
     1759  0.00000E+00 0.00000E+00 0.00000E+00 0.00000E+00 0.00000E+00 0.00000E+00 0.00000E+00 0.00000E+00 0.00000E+00 1.94900E-03 7.31130E-03 2.54000E-02
     1760  0.00000E+00 0.00000E+00 0.00000E+00 0.00000E+00 0.00000E+00 0.00000E+00 0.00000E+00 0.00000E+00 0.00000E+00 2.27660E-03 8.55220E-03 2.54000E-02
     1761  0.00000E+00 0.00000E+00 0.00000E+00 0.00000E+00 0.00000E+00 0.00000E+00 0.00000E+00 0.00000E+00 0.00000E+00 4.63300E-19 7.56670E-03 2.54000E-02
     1762  0.00000E+00 0.00000E+00 0.00000E+00 0.00000E+00 0.00000E+00 0.00000E+00 0.00000E+00 0.00000E+00 0.00000E+00 5.41900E-19 8.85000E-03 2.54000E-02
     1769  0.00000E+00 0.00000E+00 0.00000E+00 0.00000E+00 0.00000E+00 0.00000E+00 0.00000E+00 0.00000E+00 0.00000E+00 1.22744E-02 3.26030E-03 2.54000E-02
     1770  0.00000E+00 0.00000E+00 0.00000E+00 0.00000E+00 0.00000E+00 0.00000E+00 0.00000E+00 0.00000E+00 0.00000E+00 1.10097E-02 6.33060E-03 2.54000E-02
     1771  0.00000E+00 0.00000E+00 0.00000E+00 0.00000E+00 0.00000E+00 0.00000E+00 0.00000E+00 0.00000E+00 0.00000E+00 8.98220E-03 8.97830E-03 2.54000E-02
     1772  0.00000E+00 0.00000E+00 0.00000E+00 0.00000E+00 0.00000E+00 0.00000E+00 0.00000E+00 0.00000E+00 0.00000E+00 6.33220E-03 1.10088E-02 2.54000E-02
     1773  0.00000E+00 0.00000E+00 0.00000E+00 0.00000E+00 0.00000E+00 0.00000E+00 0.00000E+00 0.00000E+00 0.00000E+00 3.25980E-03 1.22745E-02 2.54000E-02
     1774  0.00000E+00 0.00000E+00 0.00000E+00 0.00000E+00 0.00000E+00 0.00000E+00 0.00000E+00 0.00000E+00 0.00000E+00 7.77700E-19 1.27000E-02 2.54000E-02



 n o d a l   p r i n t   o u t   f o r   t i m e  s t e p       6                              ( at time 2.5000000E+00 )

 nodal point  x-disp     y-disp      z-disp      x-vel       y-vel       z-vel      x-accl      y-accl      z-accl      x-coor      y-coor      z-coor
      224  1.63922E-07 1.29510E-07 0.00000E+00 0.00000E+00 0.00000E+00 0.00000E+00 0.00000E+00 0.00000E+00 0.00000E+00 1.88346E-03 1.81163E-03-5.69000E-23
      225  1.03945E-07 1.34287E-07 0.00000E+00 0.00000E+00 0.00000E+00 0.00000E+00 0.00000E+00 0.00000E+00 0.00000E+00 1.28590E-03 1.97633E-03-3.67000E-23
      226  1.66984E-07 2.33466E-07 0.00000E+00 0.00000E+00 0.00000E+00 0.00000E+00 0.00000E+00 0.00000E+00 0.00000E+00 1.57617E-03 2.53473E-03 6.40400E-25
      227  2.52334E-07 2.39479E-07 0.00000E+00 0.00000E+00 0.00000E+00 0.00000E+00 0.00000E+00 0.00000E+00 0.00000E+00 2.25045E-03 2.18974E-03 3.20100E-23
      231  7.39795E-08 1.65396E-07 0.00000E+00 0.00000E+00 0.00000E+00 0.00000E+00 0.00000E+00 0.00000E+00 0.00000E+00 8.14275E-04 2.76657E-03-2.38000E-25
      232  1.81163E-07 4.30188E-07 0.00000E+00 0.00000E+00 0.00000E+00 0.00000E+00 0.00000E+00 0.00000E+00 0.00000E+00 9.70958E-04 3.46223E-03-1.17000E-24
      233  3.49377E-07 4.46894E-07 0.00000E+00 0.00000E+00 0.00000E+00 0.00000E+00 0.00000E+00 0.00000E+00 0.00000E+00 1.86125E-03 3.11335E-03-5.42000E-23
      236  1.94447E-07 1.35016E-07 0.00000E+00 0.00000E+00 0.00000E+00 0.00000E+00 0.00000E+00 0.00000E+00 0.00000E+00 2.57379E-03 1.50514E-03-4.04000E-23
      237  1.08276E-07 5.73496E-08 0.00000E+00 0.00000E+00 0.00000E+00 0.00000E+00 0.00000E+00 0.00000E+00 0.00000E+00 2.02801E-03 1.22066E-03 3.14300E-23
      242  6.84559E-08 7.90185E-08 0.00000E+00 0.00000E+00 0.00000E+00 0.00000E+00 0.00000E+00 0.00000E+00 0.00000E+00 1.38587E-03 1.33088E-03-3.93000E-23
      243  3.83705E-08 3.76362E-08 0.00000E+00 0.00000E+00 0.00000E+00 0.00000E+00 0.00000E+00 0.00000E+00 0.00000E+00 1.44154E-03 6.69184E-04-2.93000E-24
      244  1.63949E-08 1.59868E-08 0.00000E+00 0.00000E+00 0.00000E+00 0.00000E+00 0.00000E+00 0.00000E+00 0.00000E+00 7.33493E-04 7.06286E-04-5.16000E-23
      245  3.26667E-08 3.74263E-08 0.00000E+00 0.00000E+00 0.00000E+00 0.00000E+00 0.00000E+00 0.00000E+00 0.00000E+00 7.11374E-04 1.40894E-03-4.76000E-23
      249  4.29710E-08 7.40031E-08 0.00000E+00 0.00000E+00 0.00000E+00 0.00000E+00 0.00000E+00 0.00000E+00 0.00000E+00 6.61238E-04 2.10157E-03 3.89200E-23
      250  0.00000E+00 1.72506E-08 0.00000E+00 0.00000E+00 0.00000E+00 0.00000E+00 0.00000E+00 0.00000E+00 0.00000E+00 8.87500E-20 1.44942E-03 0.00000E+00
      251  0.00000E+00 4.55929E-08 0.00000E+00 0.00000E+00 0.00000E+00 0.00000E+00 0.00000E+00 0.00000E+00 0.00000E+00 1.33100E-19 2.17415E-03 0.00000E+00
      253  4.84581E-07 3.97240E-07 0.00000E+00 0.00000E+00 0.00000E+00 0.00000E+00 0.00000E+00 0.00000E+00 0.00000E+00 2.64498E-03 2.60700E-03 5.88000E-25
      255  0.00000E+00 6.49256E-09 0.00000E+00 0.00000E+00 0.00000E+00 0.00000E+00 0.00000E+00 0.00000E+00 0.00000E+00 4.43800E-20 7.24710E-04 0.00000E+00
      260  4.47742E-07 2.23853E-07 0.00000E+00 0.00000E+00 0.00000E+00 0.00000E+00 0.00000E+00 0.00000E+00 0.00000E+00 3.15195E-03 1.82152E-03-5.54000E-23
      261  9.11927E-07 7.37678E-07 0.00000E+00 0.00000E+00 0.00000E+00 0.00000E+00 0.00000E+00 0.00000E+00 0.00000E+00 3.76661E-03 2.17484E-03 0.00000E+00
      262  1.03344E-06 3.93251E-07 0.00000E+00 0.00000E+00 0.00000E+00 0.00000E+00 0.00000E+00 0.00000E+00 0.00000E+00 4.20113E-03 1.12579E-03 0.00000E+00
      263  4.22234E-07 1.00792E-07 0.00000E+00 0.00000E+00 0.00000E+00 0.00000E+00 0.00000E+00 0.00000E+00 0.00000E+00 3.48432E-03 9.38749E-04-1.24000E-24
      266  5.39570E-07 1.13237E-06 0.00000E+00 0.00000E+00 0.00000E+00 0.00000E+00 0.00000E+00 0.00000E+00 0.00000E+00 2.17464E-03 3.76683E-03 0.00000E+00
      267  7.63382E-07 9.98111E-07 0.00000E+00 0.00000E+00 0.00000E+00 0.00000E+00 0.00000E+00 0.00000E+00 0.00000E+00 3.07546E-03 3.07570E-03 0.00000E+00
      269  7.39812E-08 1.72593E-08 0.00000E+00 0.00000E+00 0.00000E+00 0.00000E+00 0.00000E+00 0.00000E+00 0.00000E+00 2.12517E-03 6.16829E-04 1.05700E-24
      271  0.00000E+00 1.41472E-07 0.00000E+00 0.00000E+00 0.00000E+00 0.00000E+00 0.00000E+00 0.00000E+00 0.00000E+00 1.77500E-19 2.89894E-03 0.00000E+00
      274  2.68768E-08 0.00000E+00 0.00000E+00 0.00000E+00 0.00000E+00 0.00000E+00 0.00000E+00 0.00000E+00 0.00000E+00 1.44943E-03 0.00000E+00 0.00000E+00
      275  9.81569E-09 0.00000E+00 0.00000E+00 0.00000E+00 0.00000E+00 0.00000E+00 0.00000E+00 0.00000E+00 0.00000E+00 7.24714E-04 0.00000E+00 0.00000E+00
      278  1.08018E-06 0.00000E+00 0.00000E+00 0.00000E+00 0.00000E+00 0.00000E+00 0.00000E+00 0.00000E+00 0.00000E+00 4.34928E-03 0.00000E+00 0.00000E+00
      279  4.28972E-07 0.00000E+00 0.00000E+00 0.00000E+00 0.00000E+00 0.00000E+00 0.00000E+00 0.00000E+00 0.00000E+00 3.62393E-03 0.00000E+00 0.00000E+00
      281  1.66570E-07 6.29096E-08 0.00000E+00 0.00000E+00 0.00000E+00 0.00000E+00 0.00000E+00 0.00000E+00 0.00000E+00 2.79297E-03 7.69535E-04 4.81700E-23
      283  2.67117E-07 1.16326E-06 0.00000E+00 0.00000E+00 0.00000E+00 0.00000E+00 0.00000E+00 0.00000E+00 0.00000E+00 1.12567E-03 4.20126E-03 0.00000E+00
      285  1.70779E-07 0.00000E+00 0.00000E+00 0.00000E+00 0.00000E+00 0.00000E+00 0.00000E+00 0.00000E+00 0.00000E+00 2.89897E-03 0.00000E+00 0.00000E+00
      287  0.00000E+00 4.25889E-07 0.00000E+00 0.00000E+00 0.00000E+00 0.00000E+00 0.00000E+00 0.00000E+00 0.00000E+00 2.21900E-19 3.62393E-03 0.00000E+00
      289  6.64811E-08 0.00000E+00 0.00000E+00 0.00000E+00 0.00000E+00 0.00000E+00 0.00000E+00 0.00000E+00 0.00000E+00 2.17417E-03 0.00000E+00 0.00000E+00
      291  0.00000E+00 0.00000E+00 0.00000E+00 0.00000E+00 0.00000E+00 0.00000E+00 0.00000E+00 0.00000E+00 0.00000E+00 0.00000E+00 0.00000E+00 0.00000E+00
      293  0.00000E+00 1.15602E-06 0.00000E+00 0.00000E+00 0.00000E+00 0.00000E+00 0.00000E+00 0.00000E+00 0.00000E+00 2.66300E-19 4.34936E-03 0.00000E+00
      354  8.16470E-08 2.75954E-07-1.25000E-05 0.00000E+00 0.00000E+00 0.00000E+00 0.00000E+00 0.00000E+00 0.00000E+00 1.11608E-03 3.98008E-03 2.53875E-02
      355  8.58108E-08 3.14639E-07-1.25000E-05 0.00000E+00 0.00000E+00 0.00000E+00 0.00000E+00 0.00000E+00 0.00000E+00 1.29419E-03 4.82991E-03 2.53875E-02
      356  0.00000E+00 3.24750E-07-1.25000E-05 0.00000E+00 0.00000E+00 0.00000E+00 0.00000E+00 0.00000E+00 0.00000E+00 3.06200E-19 5.00032E-03 2.53875E-02
      357  0.00000E+00 3.12128E-07-1.25000E-05 0.00000E+00 0.00000E+00 0.00000E+00 0.00000E+00 0.00000E+00 0.00000E+00 2.55100E-19 4.16701E-03 2.53875E-02
      403  1.36018E-07 2.01137E-07-1.25000E-05 0.00000E+00 0.00000E+00 0.00000E+00 0.00000E+00 0.00000E+00 0.00000E+00 1.81204E-03 2.91410E-03 2.53875E-02
      404  1.53358E-07 2.41057E-07-1.25000E-05 0.00000E+00 0.00000E+00 0.00000E+00 0.00000E+00 0.00000E+00 0.00000E+00 2.13945E-03 3.57904E-03 2.53875E-02
      405  6.97123E-08 2.24479E-07-1.25000E-05 0.00000E+00 0.00000E+00 0.00000E+00 0.00000E+00 0.00000E+00 0.00000E+00 9.36029E-04 3.18052E-03 2.53875E-02
      466  1.61865E-07 1.53701E-07-1.25000E-05 0.00000E+00 0.00000E+00 0.00000E+00 0.00000E+00 0.00000E+00 0.00000E+00 2.16556E-03 2.08295E-03 2.53875E-02
      467  1.73996E-07 8.28590E-08-1.25000E-05 0.00000E+00 0.00000E+00 0.00000E+00 0.00000E+00 0.00000E+00 0.00000E+00 2.33177E-03 1.40348E-03 2.53875E-02
      468  2.05115E-07 1.26511E-07-1.25000E-05 0.00000E+00 0.00000E+00 0.00000E+00 0.00000E+00 0.00000E+00 0.00000E+00 2.95911E-03 1.73043E-03 2.53875E-02
      469  1.98543E-07 1.93026E-07-1.25000E-05 0.00000E+00 0.00000E+00 0.00000E+00 0.00000E+00 0.00000E+00 0.00000E+00 2.58740E-03 2.51759E-03 2.53875E-02
      530  1.23921E-07 1.19556E-07-1.25000E-05 0.00000E+00 0.00000E+00 0.00000E+00 0.00000E+00 0.00000E+00 0.00000E+00 1.59332E-03 1.53012E-03 2.53875E-02
      531  6.34251E-08 1.21282E-07-1.25000E-05 0.00000E+00 0.00000E+00 0.00000E+00 0.00000E+00 0.00000E+00 0.00000E+00 8.17822E-04 1.61992E-03 2.53875E-02
      532  6.40868E-08 6.10413E-08-1.25000E-05 0.00000E+00 0.00000E+00 0.00000E+00 0.00000E+00 0.00000E+00 0.00000E+00 8.43321E-04 8.11984E-04 2.53875E-02
      533  1.24441E-07 5.94649E-08-1.25000E-05 0.00000E+00 0.00000E+00 0.00000E+00 0.00000E+00 0.00000E+00 0.00000E+00 1.65742E-03 7.69292E-04 2.53875E-02
      549  9.47401E-08 1.69353E-07-1.25000E-05 0.00000E+00 0.00000E+00 0.00000E+00 0.00000E+00 0.00000E+00 0.00000E+00 1.47829E-03 2.27217E-03 2.53875E-02
      610  2.52068E-07 1.48188E-07-1.25000E-05 0.00000E+00 0.00000E+00 0.00000E+00 0.00000E+00 0.00000E+00 0.00000E+00 3.62325E-03 2.09395E-03 2.53875E-02
      611  2.81813E-07 7.70971E-08-1.25000E-05 0.00000E+00 0.00000E+00 0.00000E+00 0.00000E+00 0.00000E+00 0.00000E+00 4.00558E-03 1.07918E-03 2.53875E-02
      612  3.19443E-07 8.26882E-08-1.25000E-05 0.00000E+00 0.00000E+00 0.00000E+00 0.00000E+00 0.00000E+00 0.00000E+00 4.82992E-03 1.29418E-03 2.53875E-02
      613  2.87124E-07 1.60614E-07-1.25000E-05 0.00000E+00 0.00000E+00 0.00000E+00 0.00000E+00 0.00000E+00 0.00000E+00 4.33039E-03 2.50016E-03 2.53875E-02
      629  2.24197E-07 2.18655E-07-1.25000E-05 0.00000E+00 0.00000E+00 0.00000E+00 0.00000E+00 0.00000E+00 0.00000E+00 3.04052E-03 2.99692E-03 2.53875E-02
      660  0.00000E+00 1.29980E-07-1.25000E-05 0.00000E+00 0.00000E+00 0.00000E+00 0.00000E+00 0.00000E+00 0.00000E+00 1.02100E-19 1.66683E-03 2.53875E-02
      661  0.00000E+00 6.45628E-08-1.25000E-05 0.00000E+00 0.00000E+00 0.00000E+00 0.00000E+00 0.00000E+00 0.00000E+00 5.10300E-20 8.33398E-04 2.53875E-02
      692  2.34065E-07 2.23078E-07-1.25000E-05 0.00000E+00 0.00000E+00 0.00000E+00 0.00000E+00 0.00000E+00 0.00000E+00 3.53573E-03 3.53572E-03 2.53875E-02
      693  1.67942E-07 2.78664E-07-1.25000E-05 0.00000E+00 0.00000E+00 0.00000E+00 0.00000E+00 0.00000E+00 0.00000E+00 2.50017E-03 4.33038E-03 2.53875E-02
      724  0.00000E+00 0.00000E+00-1.25000E-05 0.00000E+00 0.00000E+00 0.00000E+00 0.00000E+00 0.00000E+00 0.00000E+00 0.00000E+00 0.00000E+00 2.53875E-02
      725  5.88169E-08 0.00000E+00-1.25000E-05 0.00000E+00 0.00000E+00 0.00000E+00 0.00000E+00 0.00000E+00 0.00000E+00 8.33392E-04 0.00000E+00 2.53875E-02
      771  4.45973E-08 1.76963E-07-1.25000E-05 0.00000E+00 0.00000E+00 0.00000E+00 0.00000E+00 0.00000E+00 0.00000E+00 7.60121E-04 2.41608E-03 2.53875E-02
      772  0.00000E+00 2.59939E-07-1.25000E-05 0.00000E+00 0.00000E+00 0.00000E+00 0.00000E+00 0.00000E+00 0.00000E+00 2.04100E-19 3.33356E-03 2.53875E-02
      773  0.00000E+00 1.94241E-07-1.25000E-05 0.00000E+00 0.00000E+00 0.00000E+00 0.00000E+00 0.00000E+00 0.00000E+00 1.53100E-19 2.50019E-03 2.53875E-02
      804  3.00936E-07 0.00000E+00-1.25000E-05 0.00000E+00 0.00000E+00 0.00000E+00 0.00000E+00 0.00000E+00 0.00000E+00 4.16700E-03 0.00000E+00 2.53875E-02
      805  3.28702E-07 0.00000E+00-1.25000E-05 0.00000E+00 0.00000E+00 0.00000E+00 0.00000E+00 0.00000E+00 0.00000E+00 5.00033E-03 0.00000E+00 2.53875E-02
      821  1.22811E-07 0.00000E+00-1.25000E-05 0.00000E+00 0.00000E+00 0.00000E+00 0.00000E+00 0.00000E+00 0.00000E+00 1.66682E-03 0.00000E+00 2.53875E-02
      852  1.77411E-07 3.52783E-08-1.25000E-05 0.00000E+00 0.00000E+00 0.00000E+00 0.00000E+00 0.00000E+00 0.00000E+00 2.44338E-03 7.09141E-04 2.53875E-02
      853  2.27118E-07 6.54157E-08-1.25000E-05 0.00000E+00 0.00000E+00 0.00000E+00 0.00000E+00 0.00000E+00 0.00000E+00 3.21073E-03 8.84577E-04 2.53875E-02
      869  2.44248E-07 0.00000E+00-1.25000E-05 0.00000E+00 0.00000E+00 0.00000E+00 0.00000E+00 0.00000E+00 0.00000E+00 3.33354E-03 0.00000E+00 2.53875E-02
      885  1.84232E-07 0.00000E+00-1.25000E-05 0.00000E+00 0.00000E+00 0.00000E+00 0.00000E+00 0.00000E+00 0.00000E+00 2.50018E-03 0.00000E+00 2.53875E-02
     1082  8.99250E-07 0.00000E+00-1.25000E-05 0.00000E+00 0.00000E+00 0.00000E+00 0.00000E+00 0.00000E+00 0.00000E+00 1.27009E-02 0.00000E+00 2.53875E-02
     1083  7.67831E-07 0.00000E+00-1.25000E-05 0.00000E+00 0.00000E+00 0.00000E+00 0.00000E+00 0.00000E+00 0.00000E+00 1.14175E-02 0.00000E+00 2.53875E-02
     1084  6.85546E-07 0.00000E+00-1.25000E-05 0.00000E+00 0.00000E+00 0.00000E+00 0.00000E+00 0.00000E+00 0.00000E+00 1.01340E-02 0.00000E+00 2.53875E-02
     1085  6.10145E-07 0.00000E+00-1.25000E-05 0.00000E+00 0.00000E+00 0.00000E+00 0.00000E+00 0.00000E+00 0.00000E+00 8.85061E-03 0.00000E+00 2.53875E-02
     1086  5.29628E-07 0.00000E+00-1.25000E-05 0.00000E+00 0.00000E+00 0.00000E+00 0.00000E+00 0.00000E+00 0.00000E+00 7.56723E-03 0.00000E+00 2.53875E-02
     1087  4.41721E-07 0.00000E+00-1.25000E-05 0.00000E+00 0.00000E+00 0.00000E+00 0.00000E+00 0.00000E+00 0.00000E+00 6.28374E-03 0.00000E+00 2.53875E-02
     1649  4.27769E-07 1.14993E-07-1.25000E-05 0.00000E+00 0.00000E+00 0.00000E+00 0.00000E+00 0.00000E+00 0.00000E+00 6.07083E-03 1.62201E-03 2.53875E-02
     1651  3.86010E-07 2.23880E-07-1.25000E-05 0.00000E+00 0.00000E+00 0.00000E+00 0.00000E+00 0.00000E+00 0.00000E+00 5.44369E-03 3.13872E-03 2.53875E-02
     1653  3.16920E-07 3.18114E-07-1.25000E-05 0.00000E+00 0.00000E+00 0.00000E+00 0.00000E+00 0.00000E+00 0.00000E+00 4.44352E-03 4.44302E-03 2.53875E-02
     1655  2.24393E-07 3.91162E-07-1.25000E-05 0.00000E+00 0.00000E+00 0.00000E+00 0.00000E+00 0.00000E+00 0.00000E+00 3.13872E-03 5.44369E-03 2.53875E-02
     1657  1.15906E-07 4.37839E-07-1.25000E-05 0.00000E+00 0.00000E+00 0.00000E+00 0.00000E+00 0.00000E+00 0.00000E+00 1.62162E-03 6.07094E-03 2.53875E-02
     1659  0.00000E+00 4.54631E-07-1.25000E-05 0.00000E+00 0.00000E+00 0.00000E+00 0.00000E+00 0.00000E+00 0.00000E+00 3.84700E-19 6.28375E-03 2.53875E-02
     1733  6.64486E-07 1.82643E-07-1.25000E-05 0.00000E+00 0.00000E+00 0.00000E+00 0.00000E+00 0.00000E+00 0.00000E+00 9.79346E-03 2.60518E-03 2.53875E-02
     1734  7.44798E-07 2.07334E-07-1.25000E-05 0.00000E+00 0.00000E+00 0.00000E+00 0.00000E+00 0.00000E+00 0.00000E+00 1.10343E-02 2.93291E-03 2.53875E-02
     1735  6.01478E-07 3.57340E-07-1.25000E-05 0.00000E+00 0.00000E+00 0.00000E+00 0.00000E+00 0.00000E+00 0.00000E+00 8.78370E-03 5.05426E-03 2.53875E-02
     1736  6.75459E-07 4.07394E-07-1.25000E-05 0.00000E+00 0.00000E+00 0.00000E+00 0.00000E+00 0.00000E+00 0.00000E+00 9.89708E-03 5.69271E-03 2.53875E-02
     1737  4.97076E-07 5.08479E-07-1.25000E-05 0.00000E+00 0.00000E+00 0.00000E+00 0.00000E+00 0.00000E+00 0.00000E+00 7.16700E-03 7.16471E-03 2.53875E-02
     1738  5.59446E-07 5.81991E-07-1.25000E-05 0.00000E+00 0.00000E+00 0.00000E+00 0.00000E+00 0.00000E+00 0.00000E+00 8.07486E-03 8.07188E-03 2.53875E-02
     1739  3.54394E-07 6.24414E-07-1.25000E-05 0.00000E+00 0.00000E+00 0.00000E+00 0.00000E+00 0.00000E+00 0.00000E+00 5.05485E-03 8.78332E-03 2.53875E-02
     1740  3.99818E-07 7.17278E-07-1.25000E-05 0.00000E+00 0.00000E+00 0.00000E+00 0.00000E+00 0.00000E+00 0.00000E+00 5.69380E-03 9.89652E-03 2.53875E-02
     1741  1.83347E-07 6.96424E-07-1.25000E-05 0.00000E+00 0.00000E+00 0.00000E+00 0.00000E+00 0.00000E+00 0.00000E+00 2.60438E-03 9.79370E-03 2.53875E-02
     1742  2.07489E-07 8.02513E-07-1.25000E-05 0.00000E+00 0.00000E+00 0.00000E+00 0.00000E+00 0.00000E+00 0.00000E+00 2.93221E-03 1.10346E-02 2.53875E-02
     1743  0.00000E+00 7.20870E-07-1.25000E-05 0.00000E+00 0.00000E+00 0.00000E+00 0.00000E+00 0.00000E+00 0.00000E+00 6.20500E-19 1.01340E-02 2.53875E-02
     1744  0.00000E+00 8.32113E-07-1.25000E-05 0.00000E+00 0.00000E+00 0.00000E+00 0.00000E+00 0.00000E+00 0.00000E+00 6.99100E-19 1.14175E-02 2.53875E-02
     1751  5.12898E-07 1.40553E-07-1.25000E-05 0.00000E+00 0.00000E+00 0.00000E+00 0.00000E+00 0.00000E+00 0.00000E+00 7.31171E-03 1.94974E-03 2.53875E-02
     1752  5.91047E-07 1.62503E-07-1.25000E-05 0.00000E+00 0.00000E+00 0.00000E+00 0.00000E+00 0.00000E+00 0.00000E+00 8.55259E-03 2.27746E-03 2.53875E-02
     1753  4.62980E-07 2.74260E-07-1.25000E-05 0.00000E+00 0.00000E+00 0.00000E+00 0.00000E+00 0.00000E+00 0.00000E+00 6.55706E-03 3.77727E-03 2.53875E-02
     1754  5.33944E-07 3.17435E-07-1.25000E-05 0.00000E+00 0.00000E+00 0.00000E+00 0.00000E+00 0.00000E+00 0.00000E+00 7.67033E-03 4.41582E-03 2.53875E-02
     1755  3.80550E-07 3.89939E-07-1.25000E-05 0.00000E+00 0.00000E+00 0.00000E+00 0.00000E+00 0.00000E+00 0.00000E+00 5.35138E-03 5.35029E-03 2.53875E-02
     1756  4.39609E-07 4.51157E-07-1.25000E-05 0.00000E+00 0.00000E+00 0.00000E+00 0.00000E+00 0.00000E+00 0.00000E+00 6.25914E-03 6.25755E-03 2.53875E-02
     1757  2.69384E-07 4.78241E-07-1.25000E-05 0.00000E+00 0.00000E+00 0.00000E+00 0.00000E+00 0.00000E+00 0.00000E+00 3.77737E-03 6.55698E-03 2.53875E-02
     1758  3.11860E-07 5.53013E-07-1.25000E-05 0.00000E+00 0.00000E+00 0.00000E+00 0.00000E+00 0.00000E+00 0.00000E+00 4.41611E-03 7.67015E-03 2.53875E-02
     1759  1.38749E-07 5.33075E-07-1.25000E-05 0.00000E+00 0.00000E+00 0.00000E+00 0.00000E+00 0.00000E+00 0.00000E+00 1.94914E-03 7.31183E-03 2.53875E-02
     1760  1.60695E-07 6.15850E-07-1.25000E-05 0.00000E+00 0.00000E+00 0.00000E+00 0.00000E+00 0.00000E+00 0.00000E+00 2.27676E-03 8.55282E-03 2.53875E-02
     1761  0.00000E+00 5.52284E-07-1.25000E-05 0.00000E+00 0.00000E+00 0.00000E+00 0.00000E+00 0.00000E+00 0.00000E+00 4.63300E-19 7.56725E-03 2.53875E-02
     1762  0.00000E+00 6.37266E-07-1.25000E-05 0.00000E+00 0.00000E+00 0.00000E+00 0.00000E+00 0.00000E+00 0.00000E+00 5.41900E-19 8.85064E-03 2.53875E-02
     1769  8.69510E-07 2.46770E-07-1.25000E-05 0.00000E+00 0.00000E+00 0.00000E+00 0.00000E+00 0.00000E+00 0.00000E+00 1.22753E-02 3.26055E-03 2.53875E-02
     1770  7.85635E-07 4.83338E-07-1.25000E-05 0.00000E+00 0.00000E+00 0.00000E+00 0.00000E+00 0.00000E+00 0.00000E+00 1.10105E-02 6.33108E-03 2.53875E-02
     1771  6.55628E-07 6.99503E-07-1.25000E-05 0.00000E+00 0.00000E+00 0.00000E+00 0.00000E+00 0.00000E+00 0.00000E+00 8.98286E-03 8.97900E-03 2.53875E-02
     1772  4.79032E-07 8.86203E-07-1.25000E-05 0.00000E+00 0.00000E+00 0.00000E+00 0.00000E+00 0.00000E+00 0.00000E+00 6.33268E-03 1.10097E-02 2.53875E-02
     1773  2.54865E-07 1.01959E-06-1.25000E-05 0.00000E+00 0.00000E+00 0.00000E+00 0.00000E+00 0.00000E+00 0.00000E+00 3.26005E-03 1.22755E-02 2.53875E-02
     1774  0.00000E+00 1.06975E-06-1.25000E-05 0.00000E+00 0.00000E+00 0.00000E+00 0.00000E+00 0.00000E+00 0.00000E+00 7.77700E-19 1.27011E-02 2.53875E-02



 n o d a l   p r i n t   o u t   f o r   t i m e  s t e p      10                              ( at time 6.4622330E+00 )

 nodal point  x-disp     y-disp      z-disp      x-vel       y-vel       z-vel      x-accl      y-accl      z-accl      x-coor      y-coor      z-coor
      224  5.15847E-07 4.35420E-07 0.00000E+00 0.00000E+00 0.00000E+00 0.00000E+00 0.00000E+00 0.00000E+00 0.00000E+00 1.88382E-03 1.81194E-03-5.69000E-23
      225  3.30726E-07 4.22760E-07 0.00000E+00 0.00000E+00 0.00000E+00 0.00000E+00 0.00000E+00 0.00000E+00 0.00000E+00 1.28613E-03 1.97662E-03-3.67000E-23
      226  5.38962E-07 7.27759E-07 0.00000E+00 0.00000E+00 0.00000E+00 0.00000E+00 0.00000E+00 0.00000E+00 0.00000E+00 1.57654E-03 2.53523E-03 6.40400E-25
      227  7.90930E-07 7.57543E-07 0.00000E+00 0.00000E+00 0.00000E+00 0.00000E+00 0.00000E+00 0.00000E+00 0.00000E+00 2.25099E-03 2.19026E-03 3.20100E-23
      231  2.47315E-07 4.58719E-07 0.00000E+00 0.00000E+00 0.00000E+00 0.00000E+00 0.00000E+00 0.00000E+00 0.00000E+00 8.14448E-04 2.76686E-03-2.38000E-25
      232  5.40528E-07 1.30248E-06 0.00000E+00 0.00000E+00 0.00000E+00 0.00000E+00 0.00000E+00 0.00000E+00 0.00000E+00 9.71317E-04 3.46310E-03-1.17000E-24
      233  1.04599E-06 1.43493E-06 0.00000E+00 0.00000E+00 0.00000E+00 0.00000E+00 0.00000E+00 0.00000E+00 0.00000E+00 1.86195E-03 3.11433E-03-5.42000E-23
      236  5.88986E-07 4.29669E-07 0.00000E+00 0.00000E+00 0.00000E+00 0.00000E+00 0.00000E+00 0.00000E+00 0.00000E+00 2.57419E-03 1.50543E-03-4.04000E-23
      237  3.23484E-07 2.07953E-07 0.00000E+00 0.00000E+00 0.00000E+00 0.00000E+00 0.00000E+00 0.00000E+00 0.00000E+00 2.02822E-03 1.22081E-03 3.14300E-23
      242  2.04071E-07 2.47431E-07 0.00000E+00 0.00000E+00 0.00000E+00 0.00000E+00 0.00000E+00 0.00000E+00 0.00000E+00 1.38600E-03 1.33105E-03-3.93000E-23
      243  7.91184E-08 1.19526E-07 0.00000E+00 0.00000E+00 0.00000E+00 0.00000E+00 0.00000E+00 0.00000E+00 0.00000E+00 1.44158E-03 6.69266E-04-2.93000E-24
      244  3.35092E-08 3.56509E-08 0.00000E+00 0.00000E+00 0.00000E+00 0.00000E+00 0.00000E+00 0.00000E+00 0.00000E+00 7.33510E-04 7.06306E-04-5.16000E-23
      245  9.97012E-08 8.53012E-08 0.00000E+00 0.00000E+00 0.00000E+00 0.00000E+00 0.00000E+00 0.00000E+00 0.00000E+00 7.11441E-04 1.40899E-03-4.76000E-23
      249  1.36116E-07 1.81519E-07 0.00000E+00 0.00000E+00 0.00000E+00 0.00000E+00 0.00000E+00 0.00000E+00 0.00000E+00 6.61331E-04 2.10168E-03 3.89200E-23
      250  0.00000E+00-1.96567E-08 0.00000E+00 0.00000E+00 0.00000E+00 0.00000E+00 0.00000E+00 0.00000E+00 0.00000E+00 8.87500E-20 1.44938E-03 0.00000E+00
      251  0.00000E+00 2.30609E-08 0.00000E+00 0.00000E+00 0.00000E+00 0.00000E+00 0.00000E+00 0.00000E+00 0.00000E+00 1.33100E-19 2.17412E-03 0.00000E+00
      253  1.45271E-06 1.30752E-06 0.00000E+00 0.00000E+00 0.00000E+00 0.00000E+00 0.00000E+00 0.00000E+00 0.00000E+00 2.64595E-03 2.60791E-03 5.88000E-25
      255  0.00000E+00-1.36009E-08 0.00000E+00 0.00000E+00 0.00000E+00 0.00000E+00 0.00000E+00 0.00000E+00 0.00000E+00 4.43800E-20 7.24690E-04 0.00000E+00
      260  1.33992E-06 7.67429E-07 0.00000E+00 0.00000E+00 0.00000E+00 0.00000E+00 0.00000E+00 0.00000E+00 0.00000E+00 3.15284E-03 1.82207E-03-5.54000E-23
      261  2.90485E-06 2.37745E-06 0.00000E+00 0.00000E+00 0.00000E+00 0.00000E+00 0.00000E+00 0.00000E+00 0.00000E+00 3.76860E-03 2.17648E-03 0.00000E+00
      262  3.21503E-06 1.28627E-06 0.00000E+00 0.00000E+00 0.00000E+00 0.00000E+00 0.00000E+00 0.00000E+00 0.00000E+00 4.20332E-03 1.12669E-03 0.00000E+00
      263  1.19145E-06 3.44944E-07 0.00000E+00 0.00000E+00 0.00000E+00 0.00000E+00 0.00000E+00 0.00000E+00 0.00000E+00 3.48509E-03 9.38993E-04-1.24000E-24
      266  1.81385E-06 3.53975E-06 0.00000E+00 0.00000E+00 0.00000E+00 0.00000E+00 0.00000E+00 0.00000E+00 0.00000E+00 2.17591E-03 3.76924E-03 0.00000E+00
      267  2.48510E-06 3.15158E-06 0.00000E+00 0.00000E+00 0.00000E+00 0.00000E+00 0.00000E+00 0.00000E+00 0.00000E+00 3.07719E-03 3.07785E-03 0.00000E+00
      269  1.60203E-07 6.11832E-08 0.00000E+00 0.00000E+00 0.00000E+00 0.00000E+00 0.00000E+00 0.00000E+00 0.00000E+00 2.12526E-03 6.16872E-04 1.05700E-24
      271  0.00000E+00 2.87512E-07 0.00000E+00 0.00000E+00 0.00000E+00 0.00000E+00 0.00000E+00 0.00000E+00 0.00000E+00 1.77500E-19 2.89909E-03 0.00000E+00
      274  1.48066E-08 0.00000E+00 0.00000E+00 0.00000E+00 0.00000E+00 0.00000E+00 0.00000E+00 0.00000E+00 0.00000E+00 1.44941E-03 0.00000E+00 0.00000E+00
      275 -1.36183E-09 0.00000E+00 0.00000E+00 0.00000E+00 0.00000E+00 0.00000E+00 0.00000E+00 0.00000E+00 0.00000E+00 7.24703E-04 0.00000E+00 0.00000E+00
      278  3.30263E-06 0.00000E+00 0.00000E+00 0.00000E+00 0.00000E+00 0.00000E+00 0.00000E+00 0.00000E+00 0.00000E+00 4.35150E-03 0.00000E+00 0.00000E+00
      279  1.14130E-06 0.00000E+00 0.00000E+00 0.00000E+00 0.00000E+00 0.00000E+00 0.00000E+00 0.00000E+00 0.00000E+00 3.62464E-03 0.00000E+00 0.00000E+00
      281  4.16493E-07 1.88841E-07 0.00000E+00 0.00000E+00 0.00000E+00 0.00000E+00 0.00000E+00 0.00000E+00 0.00000E+00 2.79322E-03 7.69661E-04 4.81700E-23
      283  9.24795E-07 3.59743E-06 0.00000E+00 0.00000E+00 0.00000E+00 0.00000E+00 0.00000E+00 0.00000E+00 0.00000E+00 1.12632E-03 4.20370E-03 0.00000E+00
      285  3.64588E-07 0.00000E+00 0.00000E+00 0.00000E+00 0.00000E+00 0.00000E+00 0.00000E+00 0.00000E+00 0.00000E+00 2.89916E-03 0.00000E+00 0.00000E+00
      287  0.00000E+00 1.16045E-06 0.00000E+00 0.00000E+00 0.00000E+00 0.00000E+00 0.00000E+00 0.00000E+00 0.00000E+00 2.21900E-19 3.62466E-03 0.00000E+00
      289  9.27658E-08 0.00000E+00 0.00000E+00 0.00000E+00 0.00000E+00 0.00000E+00 0.00000E+00 0.00000E+00 0.00000E+00 2.17419E-03 0.00000E+00 0.00000E+00
      291  0.00000E+00 0.00000E+00 0.00000E+00 0.00000E+00 0.00000E+00 0.00000E+00 0.00000E+00 0.00000E+00 0.00000E+00 0.00000E+00 0.00000E+00 0.00000E+00
      293  0.00000E+00 3.48704E-06 0.00000E+00 0.00000E+00 0.00000E+00 0.00000E+00 0.00000E+00 0.00000E+00 0.00000E+00 2.66300E-19 4.35169E-03 0.00000E+00
      354  2.00960E-07 6.79933E-07-3.23112E-05 0.00000E+00 0.00000E+00 0.00000E+00 0.00000E+00 0.00000E+00 0.00000E+00 1.11620E-03 3.98048E-03 2.53677E-02
      355  2.14782E-07 7.69455E-07-3.23112E-05 0.00000E+00 0.00000E+00 0.00000E+00 0.00000E+00 0.00000E+00 0.00000E+00 1.29431E-03 4.83037E-03 2.53677E-02
      356  0.00000E+00 7.93808E-07-3.23112E-05 0.00000E+00 0.00000E+00 0.00000E+00 0.00000E+00 0.00000E+00 0.00000E+00 3.06200E-19 5.00079E-03 2.53677E-02
      357  0.00000E+00 7.86452E-07-3.23112E-05 0.00000E+00 0.00000E+00 0.00000E+00 0.00000E+00 0.00000E+00 0.00000E+00 2.55100E-19 4.16749E-03 2.53677E-02
      403  3.35584E-07 5.00059E-07-3.23112E-05 0.00000E+00 0.00000E+00 0.00000E+00 0.00000E+00 0.00000E+00 0.00000E+00 1.81224E-03 2.91440E-03 2.53677E-02
      404  3.80180E-07 5.97001E-07-3.23112E-05 0.00000E+00 0.00000E+00 0.00000E+00 0.00000E+00 0.00000E+00 0.00000E+00 2.13968E-03 3.57940E-03 2.53677E-02
      405  1.68778E-07 5.54991E-07-3.23112E-05 0.00000E+00 0.00000E+00 0.00000E+00 0.00000E+00 0.00000E+00 0.00000E+00 9.36128E-04 3.18085E-03 2.53677E-02
      466  4.00132E-07 3.89332E-07-3.23112E-05 0.00000E+00 0.00000E+00 0.00000E+00 0.00000E+00 0.00000E+00 0.00000E+00 2.16580E-03 2.08319E-03 2.53677E-02
      467  4.28689E-07 2.04954E-07-3.23112E-05 0.00000E+00 0.00000E+00 0.00000E+00 0.00000E+00 0.00000E+00 0.00000E+00 2.33203E-03 1.40360E-03 2.53677E-02
      468  5.09268E-07 3.19169E-07-3.23112E-05 0.00000E+00 0.00000E+00 0.00000E+00 0.00000E+00 0.00000E+00 0.00000E+00 2.95941E-03 1.73062E-03 2.53677E-02
      469  4.94762E-07 4.88477E-07-3.23112E-05 0.00000E+00 0.00000E+00 0.00000E+00 0.00000E+00 0.00000E+00 0.00000E+00 2.58769E-03 2.51789E-03 2.53677E-02
      530  3.00684E-07 3.00391E-07-3.23112E-05 0.00000E+00 0.00000E+00 0.00000E+00 0.00000E+00 0.00000E+00 0.00000E+00 1.59350E-03 1.53030E-03 2.53677E-02
      531  1.49012E-07 3.05634E-07-3.23112E-05 0.00000E+00 0.00000E+00 0.00000E+00 0.00000E+00 0.00000E+00 0.00000E+00 8.17907E-04 1.62011E-03 2.53677E-02
      532  1.51145E-07 1.52637E-07-3.23112E-05 0.00000E+00 0.00000E+00 0.00000E+00 0.00000E+00 0.00000E+00 0.00000E+00 8.43408E-04 8.12075E-04 2.53677E-02
      533  3.00333E-07 1.45790E-07-3.23112E-05 0.00000E+00 0.00000E+00 0.00000E+00 0.00000E+00 0.00000E+00 0.00000E+00 1.65760E-03 7.69378E-04 2.53677E-02
      549  2.30211E-07 4.24035E-07-3.23112E-05 0.00000E+00 0.00000E+00 0.00000E+00 0.00000E+00 0.00000E+00 0.00000E+00 1.47843E-03 2.27242E-03 2.53677E-02
      610  6.27740E-07 3.72016E-07-3.23112E-05 0.00000E+00 0.00000E+00 0.00000E+00 0.00000E+00 0.00000E+00 0.00000E+00 3.62363E-03 2.09417E-03 2.53677E-02
      611  6.97273E-07 1.92735E-07-3.23112E-05 0.00000E+00 0.00000E+00 0.00000E+00 0.00000E+00 0.00000E+00 0.00000E+00 4.00600E-03 1.07929E-03 2.53677E-02
      612  7.86787E-07 2.04647E-07-3.23112E-05 0.00000E+00 0.00000E+00 0.00000E+00 0.00000E+00 0.00000E+00 0.00000E+00 4.83039E-03 1.29430E-03 2.53677E-02
      613  7.15301E-07 4.00398E-07-3.23112E-05 0.00000E+00 0.00000E+00 0.00000E+00 0.00000E+00 0.00000E+00 0.00000E+00 4.33082E-03 2.50040E-03 2.53677E-02
      629  5.60915E-07 5.50343E-07-3.23112E-05 0.00000E+00 0.00000E+00 0.00000E+00 0.00000E+00 0.00000E+00 0.00000E+00 3.04086E-03 2.99725E-03 2.53677E-02
      660  0.00000E+00 3.31364E-07-3.23112E-05 0.00000E+00 0.00000E+00 0.00000E+00 0.00000E+00 0.00000E+00 0.00000E+00 1.02100E-19 1.66703E-03 2.53677E-02
      661  0.00000E+00 1.63200E-07-3.23112E-05 0.00000E+00 0.00000E+00 0.00000E+00 0.00000E+00 0.00000E+00 0.00000E+00 5.10300E-20 8.33497E-04 2.53677E-02
      692  5.86905E-07 5.54226E-07-3.23112E-05 0.00000E+00 0.00000E+00 0.00000E+00 0.00000E+00 0.00000E+00 0.00000E+00 3.53609E-03 3.53605E-03 2.53677E-02
      693  4.21260E-07 6.87397E-07-3.23112E-05 0.00000E+00 0.00000E+00 0.00000E+00 0.00000E+00 0.00000E+00 0.00000E+00 2.50042E-03 4.33079E-03 2.53677E-02
      724  0.00000E+00 0.00000E+00-3.23112E-05 0.00000E+00 0.00000E+00 0.00000E+00 0.00000E+00 0.00000E+00 0.00000E+00 0.00000E+00 0.00000E+00 2.53677E-02
      725  1.37686E-07 0.00000E+00-3.23112E-05 0.00000E+00 0.00000E+00 0.00000E+00 0.00000E+00 0.00000E+00 0.00000E+00 8.33471E-04 0.00000E+00 2.53677E-02
      771  1.02783E-07 4.43132E-07-3.23112E-05 0.00000E+00 0.00000E+00 0.00000E+00 0.00000E+00 0.00000E+00 0.00000E+00 7.60179E-04 2.41634E-03 2.53677E-02
      772  0.00000E+00 6.62465E-07-3.23112E-05 0.00000E+00 0.00000E+00 0.00000E+00 0.00000E+00 0.00000E+00 0.00000E+00 2.04100E-19 3.33396E-03 2.53677E-02
      773  0.00000E+00 4.96925E-07-3.23112E-05 0.00000E+00 0.00000E+00 0.00000E+00 0.00000E+00 0.00000E+00 0.00000E+00 1.53100E-19 2.50050E-03 2.53677E-02
      804  7.44348E-07 0.00000E+00-3.23112E-05 0.00000E+00 0.00000E+00 0.00000E+00 0.00000E+00 0.00000E+00 0.00000E+00 4.16744E-03 0.00000E+00 2.53677E-02
      805  8.04373E-07 0.00000E+00-3.23112E-05 0.00000E+00 0.00000E+00 0.00000E+00 0.00000E+00 0.00000E+00 0.00000E+00 5.00080E-03 0.00000E+00 2.53677E-02
      821  2.97082E-07 0.00000E+00-3.23112E-05 0.00000E+00 0.00000E+00 0.00000E+00 0.00000E+00 0.00000E+00 0.00000E+00 1.66700E-03 0.00000E+00 2.53677E-02
      852  4.35730E-07 8.08218E-08-3.23112E-05 0.00000E+00 0.00000E+00 0.00000E+00 0.00000E+00 0.00000E+00 0.00000E+00 2.44364E-03 7.09187E-04 2.53677E-02
      853  5.61613E-07 1.60316E-07-3.23112E-05 0.00000E+00 0.00000E+00 0.00000E+00 0.00000E+00 0.00000E+00 0.00000E+00 3.21106E-03 8.84672E-04 2.53677E-02
      869  6.03875E-07 0.00000E+00-3.23112E-05 0.00000E+00 0.00000E+00 0.00000E+00 0.00000E+00 0.00000E+00 0.00000E+00 3.33390E-03 0.00000E+00 2.53677E-02
      885  4.52759E-07 0.00000E+00-3.23112E-05 0.00000E+00 0.00000E+00 0.00000E+00 0.00000E+00 0.00000E+00 0.00000E+00 2.50045E-03 0.00000E+00 2.53677E-02
     1082  2.17430E-06 0.00000E+00-3.23112E-05 0.00000E+00 0.00000E+00 0.00000E+00 0.00000E+00 0.00000E+00 0.00000E+00 1.27022E-02 0.00000E+00 2.53677E-02
     1083  1.87732E-06 0.00000E+00-3.23112E-05 0.00000E+00 0.00000E+00 0.00000E+00 0.00000E+00 0.00000E+00 0.00000E+00 1.14186E-02 0.00000E+00 2.53677E-02
     1084  1.68193E-06 0.00000E+00-3.23112E-05 0.00000E+00 0.00000E+00 0.00000E+00 0.00000E+00 0.00000E+00 0.00000E+00 1.01350E-02 0.00000E+00 2.53677E-02
     1085  1.49946E-06 0.00000E+00-3.23112E-05 0.00000E+00 0.00000E+00 0.00000E+00 0.00000E+00 0.00000E+00 0.00000E+00 8.85150E-03 0.00000E+00 2.53677E-02
     1086  1.30268E-06 0.00000E+00-3.23112E-05 0.00000E+00 0.00000E+00 0.00000E+00 0.00000E+00 0.00000E+00 0.00000E+00 7.56800E-03 0.00000E+00 2.53677E-02
     1087  1.08714E-06 0.00000E+00-3.23112E-05 0.00000E+00 0.00000E+00 0.00000E+00 0.00000E+00 0.00000E+00 0.00000E+00 6.28439E-03 0.00000E+00 2.53677E-02
     1649  1.05627E-06 2.94546E-07-3.23112E-05 0.00000E+00 0.00000E+00 0.00000E+00 0.00000E+00 0.00000E+00 0.00000E+00 6.07146E-03 1.62219E-03 2.53677E-02
     1651  9.61063E-07 5.71061E-07-3.23112E-05 0.00000E+00 0.00000E+00 0.00000E+00 0.00000E+00 0.00000E+00 0.00000E+00 5.44426E-03 3.13907E-03 2.53677E-02
     1653  7.95465E-07 8.07388E-07-3.23112E-05 0.00000E+00 0.00000E+00 0.00000E+00 0.00000E+00 0.00000E+00 0.00000E+00 4.44400E-03 4.44351E-03 2.53677E-02
     1655  5.65684E-07 9.86800E-07-3.23112E-05 0.00000E+00 0.00000E+00 0.00000E+00 0.00000E+00 0.00000E+00 0.00000E+00 3.13907E-03 5.44429E-03 2.53677E-02
     1657  2.93171E-07 1.09978E-06-3.23112E-05 0.00000E+00 0.00000E+00 0.00000E+00 0.00000E+00 0.00000E+00 0.00000E+00 1.62179E-03 6.07160E-03 2.53677E-02
     1659  0.00000E+00 1.14381E-06-3.23112E-05 0.00000E+00 0.00000E+00 0.00000E+00 0.00000E+00 0.00000E+00 0.00000E+00 3.84700E-19 6.28444E-03 2.53677E-02
     1733  1.63829E-06 4.78046E-07-3.23112E-05 0.00000E+00 0.00000E+00 0.00000E+00 0.00000E+00 0.00000E+00 0.00000E+00 9.79444E-03 2.60548E-03 2.53677E-02
     1734  1.83165E-06 5.43071E-07-3.23112E-05 0.00000E+00 0.00000E+00 0.00000E+00 0.00000E+00 0.00000E+00 0.00000E+00 1.10354E-02 2.93324E-03 2.53677E-02
     1735  1.49952E-06 9.28654E-07-3.23112E-05 0.00000E+00 0.00000E+00 0.00000E+00 0.00000E+00 0.00000E+00 0.00000E+00 8.78460E-03 5.05483E-03 2.53677E-02
     1736  1.68305E-06 1.06290E-06-3.23112E-05 0.00000E+00 0.00000E+00 0.00000E+00 0.00000E+00 0.00000E+00 0.00000E+00 9.89808E-03 5.69336E-03 2.53677E-02
     1737  1.25332E-06 1.31175E-06-3.23112E-05 0.00000E+00 0.00000E+00 0.00000E+00 0.00000E+00 0.00000E+00 0.00000E+00 7.16775E-03 7.16551E-03 2.53677E-02
     1738  1.41116E-06 1.51191E-06-3.23112E-05 0.00000E+00 0.00000E+00 0.00000E+00 0.00000E+00 0.00000E+00 0.00000E+00 8.07571E-03 8.07281E-03 2.53677E-02
     1739  9.02541E-07 1.60433E-06-3.23112E-05 0.00000E+00 0.00000E+00 0.00000E+00 0.00000E+00 0.00000E+00 0.00000E+00 5.05540E-03 8.78430E-03 2.53677E-02
     1740  1.01725E-06 1.86071E-06-3.23112E-05 0.00000E+00 0.00000E+00 0.00000E+00 0.00000E+00 0.00000E+00 0.00000E+00 5.69442E-03 9.89766E-03 2.53677E-02
     1741  4.70580E-07 1.78621E-06-3.23112E-05 0.00000E+00 0.00000E+00 0.00000E+00 0.00000E+00 0.00000E+00 0.00000E+00 2.60467E-03 9.79479E-03 2.53677E-02
     1742  5.32057E-07 2.08700E-06-3.23112E-05 0.00000E+00 0.00000E+00 0.00000E+00 0.00000E+00 0.00000E+00 0.00000E+00 2.93253E-03 1.10359E-02 2.53677E-02
     1743  0.00000E+00 1.84638E-06-3.23112E-05 0.00000E+00 0.00000E+00 0.00000E+00 0.00000E+00 0.00000E+00 0.00000E+00 6.20500E-19 1.01351E-02 2.53677E-02
     1744  0.00000E+00 2.16661E-06-3.23112E-05 0.00000E+00 0.00000E+00 0.00000E+00 0.00000E+00 0.00000E+00 0.00000E+00 6.99100E-19 1.14189E-02 2.53677E-02
     1751  1.26608E-06 3.65246E-07-3.23112E-05 0.00000E+00 0.00000E+00 0.00000E+00 0.00000E+00 0.00000E+00 0.00000E+00 7.31247E-03 1.94997E-03 2.53677E-02
     1752  1.45860E-06 4.24012E-07-3.23112E-05 0.00000E+00 0.00000E+00 0.00000E+00 0.00000E+00 0.00000E+00 0.00000E+00 8.55346E-03 2.27772E-03 2.53677E-02
     1753  1.15266E-06 7.08504E-07-3.23112E-05 0.00000E+00 0.00000E+00 0.00000E+00 0.00000E+00 0.00000E+00 0.00000E+00 6.55775E-03 3.77771E-03 2.53677E-02
     1754  1.33048E-06 8.22694E-07-3.23112E-05 0.00000E+00 0.00000E+00 0.00000E+00 0.00000E+00 0.00000E+00 0.00000E+00 7.67113E-03 4.41632E-03 2.53677E-02
     1755  9.55391E-07 1.00060E-06-3.23112E-05 0.00000E+00 0.00000E+00 0.00000E+00 0.00000E+00 0.00000E+00 0.00000E+00 5.35196E-03 5.35090E-03 2.53677E-02
     1756  1.10604E-06 1.16095E-06-3.23112E-05 0.00000E+00 0.00000E+00 0.00000E+00 0.00000E+00 0.00000E+00 0.00000E+00 6.25981E-03 6.25826E-03 2.53677E-02
     1757  6.80087E-07 1.22003E-06-3.23112E-05 0.00000E+00 0.00000E+00 0.00000E+00 0.00000E+00 0.00000E+00 0.00000E+00 3.77778E-03 6.55772E-03 2.53677E-02
     1758  7.90439E-07 1.41552E-06-3.23112E-05 0.00000E+00 0.00000E+00 0.00000E+00 0.00000E+00 0.00000E+00 0.00000E+00 4.41659E-03 7.67102E-03 2.53677E-02
     1759  3.51516E-07 1.35501E-06-3.23112E-05 0.00000E+00 0.00000E+00 0.00000E+00 0.00000E+00 0.00000E+00 0.00000E+00 1.94935E-03 7.31266E-03 2.53677E-02
     1760  4.09243E-07 1.57081E-06-3.23112E-05 0.00000E+00 0.00000E+00 0.00000E+00 0.00000E+00 0.00000E+00 0.00000E+00 2.27701E-03 8.55377E-03 2.53677E-02
     1761  0.00000E+00 1.40396E-06-3.23112E-05 0.00000E+00 0.00000E+00 0.00000E+00 0.00000E+00 0.00000E+00 0.00000E+00 4.63300E-19 7.56810E-03 2.53677E-02
     1762  0.00000E+00 1.62341E-06-3.23112E-05 0.00000E+00 0.00000E+00 0.00000E+00 0.00000E+00 0.00000E+00 0.00000E+00 5.41900E-19 8.85162E-03 2.53677E-02
     1769  2.11212E-06 6.36853E-07-3.23112E-05 0.00000E+00 0.00000E+00 0.00000E+00 0.00000E+00 0.00000E+00 0.00000E+00 1.22765E-02 3.26094E-03 2.53677E-02
     1770  1.92872E-06 1.24756E-06-3.23112E-05 0.00000E+00 0.00000E+00 0.00000E+00 0.00000E+00 0.00000E+00 0.00000E+00 1.10116E-02 6.33185E-03 2.53677E-02
     1771  1.63197E-06 1.81126E-06-3.23112E-05 0.00000E+00 0.00000E+00 0.00000E+00 0.00000E+00 0.00000E+00 0.00000E+00 8.98383E-03 8.98011E-03 2.53677E-02
     1772  1.21555E-06 2.32534E-06-3.23112E-05 0.00000E+00 0.00000E+00 0.00000E+00 0.00000E+00 0.00000E+00 0.00000E+00 6.33342E-03 1.10111E-02 2.53677E-02
     1773  6.62215E-07 2.73174E-06-3.23112E-05 0.00000E+00 0.00000E+00 0.00000E+00 0.00000E+00 0.00000E+00 0.00000E+00 3.26046E-03 1.22772E-02 2.53677E-02
     1774  0.00000E+00 2.89889E-06-3.23112E-05 0.00000E+00 0.00000E+00 0.00000E+00 0.00000E+00 0.00000E+00 0.00000E+00 7.77700E-19 1.27029E-02 2.53677E-02



 n o d a l   p r i n t   o u t   f o r   t i m e  s t e p     163                              ( at time 9.3770190E+00 )

 nodal point  x-disp     y-disp      z-disp      x-vel       y-vel       z-vel      x-accl      y-accl      z-accl      x-coor      y-coor      z-coor
      224  6.73067E-06 7.34311E-06 0.00000E+00 0.00000E+00 0.00000E+00 0.00000E+00 0.00000E+00 0.00000E+00 0.00000E+00 1.89003E-03 1.81884E-03-5.69000E-23
      225  4.28057E-06 3.35137E-06 0.00000E+00 0.00000E+00 0.00000E+00 0.00000E+00 0.00000E+00 0.00000E+00 0.00000E+00 1.29008E-03 1.97955E-03-3.67000E-23
      226  6.58293E-06 5.43870E-06 0.00000E+00 0.00000E+00 0.00000E+00 0.00000E+00 0.00000E+00 0.00000E+00 0.00000E+00 1.58258E-03 2.53994E-03 6.40400E-25
      227  9.67859E-06 9.27885E-06 0.00000E+00 0.00000E+00 0.00000E+00 0.00000E+00 0.00000E+00 0.00000E+00 0.00000E+00 2.25988E-03 2.19878E-03 3.20100E-23
      231  4.48795E-06 4.87742E-06 0.00000E+00 0.00000E+00 0.00000E+00 0.00000E+00 0.00000E+00 0.00000E+00 0.00000E+00 8.18689E-04 2.77128E-03-2.38000E-25
      232  5.69274E-06 1.07371E-05 0.00000E+00 0.00000E+00 0.00000E+00 0.00000E+00 0.00000E+00 0.00000E+00 0.00000E+00 9.76469E-04 3.47254E-03-1.17000E-24
      233  8.78687E-06 9.36578E-06 0.00000E+00 0.00000E+00 0.00000E+00 0.00000E+00 0.00000E+00 0.00000E+00 0.00000E+00 1.86969E-03 3.12227E-03-5.42000E-23
      236  7.27680E-06 7.01793E-06 0.00000E+00 0.00000E+00 0.00000E+00 0.00000E+00 0.00000E+00 0.00000E+00 0.00000E+00 2.58088E-03 1.51202E-03-4.04000E-23
      237  5.14119E-06 6.70791E-06 0.00000E+00 0.00000E+00 0.00000E+00 0.00000E+00 0.00000E+00 0.00000E+00 0.00000E+00 2.03304E-03 1.22731E-03 3.14300E-23
      242  3.05038E-06 2.22865E-06 0.00000E+00 0.00000E+00 0.00000E+00 0.00000E+00 0.00000E+00 0.00000E+00 0.00000E+00 1.38885E-03 1.33303E-03-3.93000E-23
      243  3.09046E-06 1.95063E-06 0.00000E+00 0.00000E+00 0.00000E+00 0.00000E+00 0.00000E+00 0.00000E+00 0.00000E+00 1.44459E-03 6.71097E-04-2.93000E-24
      244  1.40908E-06 2.46851E-07 0.00000E+00 0.00000E+00 0.00000E+00 0.00000E+00 0.00000E+00 0.00000E+00 0.00000E+00 7.34886E-04 7.06517E-04-5.16000E-23
      245  1.91532E-06 3.26893E-07 0.00000E+00 0.00000E+00 0.00000E+00 0.00000E+00 0.00000E+00 0.00000E+00 0.00000E+00 7.13257E-04 1.40923E-03-4.76000E-23
      249  2.66091E-06 1.58803E-06 0.00000E+00 0.00000E+00 0.00000E+00 0.00000E+00 0.00000E+00 0.00000E+00 0.00000E+00 6.63856E-04 2.10309E-03 3.89200E-23
      250  0.00000E+00-4.01397E-06 0.00000E+00 0.00000E+00 0.00000E+00 0.00000E+00 0.00000E+00 0.00000E+00 0.00000E+00 8.87500E-20 1.44539E-03 0.00000E+00
      251  0.00000E+00-4.54815E-06 0.00000E+00 0.00000E+00 0.00000E+00 0.00000E+00 0.00000E+00 0.00000E+00 0.00000E+00 1.33100E-19 2.16955E-03 0.00000E+00
      253  1.25952E-05 1.14667E-05 0.00000E+00 0.00000E+00 0.00000E+00 0.00000E+00 0.00000E+00 0.00000E+00 0.00000E+00 2.65710E-03 2.61807E-03 5.88000E-25
      255  0.00000E+00-2.08819E-06 0.00000E+00 0.00000E+00 0.00000E+00 0.00000E+00 0.00000E+00 0.00000E+00 0.00000E+00 4.43800E-20 7.22616E-04 0.00000E+00
      260  1.00563E-05 7.65072E-06 0.00000E+00 0.00000E+00 0.00000E+00 0.00000E+00 0.00000E+00 0.00000E+00 0.00000E+00 3.16156E-03 1.82895E-03-5.54000E-23
      261  1.34989E-05 1.21614E-05 0.00000E+00 0.00000E+00 0.00000E+00 0.00000E+00 0.00000E+00 0.00000E+00 0.00000E+00 3.77920E-03 2.18626E-03 0.00000E+00
      262  1.92355E-05 1.17493E-05 0.00000E+00 0.00000E+00 0.00000E+00 0.00000E+00 0.00000E+00 0.00000E+00 0.00000E+00 4.21934E-03 1.13715E-03 0.00000E+00
      263  1.56235E-05 7.47649E-06 0.00000E+00 0.00000E+00 0.00000E+00 0.00000E+00 0.00000E+00 0.00000E+00 0.00000E+00 3.49952E-03 9.46125E-04-1.24000E-24
      266  1.12578E-05 1.49667E-05 0.00000E+00 0.00000E+00 0.00000E+00 0.00000E+00 0.00000E+00 0.00000E+00 0.00000E+00 2.18536E-03 3.78067E-03 0.00000E+00
      267  1.48945E-05 1.56961E-05 0.00000E+00 0.00000E+00 0.00000E+00 0.00000E+00 0.00000E+00 0.00000E+00 0.00000E+00 3.08959E-03 3.09040E-03 0.00000E+00
      269  5.98865E-06 5.72641E-06 0.00000E+00 0.00000E+00 0.00000E+00 0.00000E+00 0.00000E+00 0.00000E+00 0.00000E+00 2.13109E-03 6.22538E-04 1.05700E-24
      271  0.00000E+00-1.57592E-06 0.00000E+00 0.00000E+00 0.00000E+00 0.00000E+00 0.00000E+00 0.00000E+00 0.00000E+00 1.77500E-19 2.89722E-03 0.00000E+00
      274 -6.53946E-06 0.00000E+00 0.00000E+00 0.00000E+00 0.00000E+00 0.00000E+00 0.00000E+00 0.00000E+00 0.00000E+00 1.44286E-03 0.00000E+00 0.00000E+00
      275 -2.40722E-06 0.00000E+00 0.00000E+00 0.00000E+00 0.00000E+00 0.00000E+00 0.00000E+00 0.00000E+00 0.00000E+00 7.22297E-04 0.00000E+00 0.00000E+00
      278  8.90759E-06 0.00000E+00 0.00000E+00 0.00000E+00 0.00000E+00 0.00000E+00 0.00000E+00 0.00000E+00 0.00000E+00 4.35711E-03 0.00000E+00 0.00000E+00
      279 -8.18925E-06 0.00000E+00 0.00000E+00 0.00000E+00 0.00000E+00 0.00000E+00 0.00000E+00 0.00000E+00 0.00000E+00 3.61531E-03 0.00000E+00 0.00000E+00
      281  1.00908E-05 7.14400E-06 0.00000E+00 0.00000E+00 0.00000E+00 0.00000E+00 0.00000E+00 0.00000E+00 0.00000E+00 2.80289E-03 7.76616E-04 4.81700E-23
      283  7.89251E-06 1.77405E-05 0.00000E+00 0.00000E+00 0.00000E+00 0.00000E+00 0.00000E+00 0.00000E+00 0.00000E+00 1.13329E-03 4.21784E-03 0.00000E+00
      285 -1.44491E-05 0.00000E+00 0.00000E+00 0.00000E+00 0.00000E+00 0.00000E+00 0.00000E+00 0.00000E+00 0.00000E+00 2.88435E-03 0.00000E+00 0.00000E+00
      287  0.00000E+00 5.87710E-06 0.00000E+00 0.00000E+00 0.00000E+00 0.00000E+00 0.00000E+00 0.00000E+00 0.00000E+00 2.21900E-19 3.62938E-03 0.00000E+00
      289 -1.22702E-05 0.00000E+00 0.00000E+00 0.00000E+00 0.00000E+00 0.00000E+00 0.00000E+00 0.00000E+00 0.00000E+00 2.16183E-03 0.00000E+00 0.00000E+00
      291  0.00000E+00 0.00000E+00 0.00000E+00 0.00000E+00 0.00000E+00 0.00000E+00 0.00000E+00 0.00000E+00 0.00000E+00 0.00000E+00 0.00000E+00 0.00000E+00
      293  0.00000E+00 1.73490E-05 0.00000E+00 0.00000E+00 0.00000E+00 0.00000E+00 0.00000E+00 0.00000E+00 0.00000E+00 2.66300E-19 4.36555E-03 0.00000E+00
      354  1.99259E-07 5.00525E-07-4.68851E-05 0.00000E+00 0.00000E+00 0.00000E+00 0.00000E+00 0.00000E+00 0.00000E+00 1.11620E-03 3.98030E-03 2.53531E-02
      355  2.62693E-07 5.80544E-07-4.68851E-05 0.00000E+00 0.00000E+00 0.00000E+00 0.00000E+00 0.00000E+00 0.00000E+00 1.29436E-03 4.83018E-03 2.53531E-02
      356  0.00000E+00 5.92422E-07-4.68851E-05 0.00000E+00 0.00000E+00 0.00000E+00 0.00000E+00 0.00000E+00 0.00000E+00 3.06200E-19 5.00059E-03 2.53531E-02
      357  0.00000E+00 9.59899E-07-4.68851E-05 0.00000E+00 0.00000E+00 0.00000E+00 0.00000E+00 0.00000E+00 0.00000E+00 2.55100E-19 4.16766E-03 2.53531E-02
      403  2.99526E-07 4.99462E-07-4.68851E-05 0.00000E+00 0.00000E+00 0.00000E+00 0.00000E+00 0.00000E+00 0.00000E+00 1.81220E-03 2.91440E-03 2.53531E-02
      404  3.54732E-07 6.27711E-07-4.68851E-05 0.00000E+00 0.00000E+00 0.00000E+00 0.00000E+00 0.00000E+00 0.00000E+00 2.13965E-03 3.57943E-03 2.53531E-02
      405  1.39529E-07 4.48864E-07-4.68851E-05 0.00000E+00 0.00000E+00 0.00000E+00 0.00000E+00 0.00000E+00 0.00000E+00 9.36099E-04 3.18075E-03 2.53531E-02
      466  3.65378E-07 6.29506E-07-4.68851E-05 0.00000E+00 0.00000E+00 0.00000E+00 0.00000E+00 0.00000E+00 0.00000E+00 2.16577E-03 2.08343E-03 2.53531E-02
      467  3.55196E-07 4.51585E-07-4.68851E-05 0.00000E+00 0.00000E+00 0.00000E+00 0.00000E+00 0.00000E+00 0.00000E+00 2.33196E-03 1.40385E-03 2.53531E-02
      468  4.34822E-07 1.02390E-06-4.68851E-05 0.00000E+00 0.00000E+00 0.00000E+00 0.00000E+00 0.00000E+00 0.00000E+00 2.95933E-03 1.73132E-03 2.53531E-02
      469  4.11153E-07 7.50066E-07-4.68851E-05 0.00000E+00 0.00000E+00 0.00000E+00 0.00000E+00 0.00000E+00 0.00000E+00 2.58761E-03 2.51815E-03 2.53531E-02
      530  1.20799E-07 6.91776E-07-4.68851E-05 0.00000E+00 0.00000E+00 0.00000E+00 0.00000E+00 0.00000E+00 0.00000E+00 1.59332E-03 1.53069E-03 2.53531E-02
      531  2.57177E-08 7.21836E-07-4.68851E-05 0.00000E+00 0.00000E+00 0.00000E+00 0.00000E+00 0.00000E+00 0.00000E+00 8.17784E-04 1.62052E-03 2.53531E-02
      532  2.71973E-08 9.77460E-07-4.68851E-05 0.00000E+00 0.00000E+00 0.00000E+00 0.00000E+00 0.00000E+00 0.00000E+00 8.43284E-04 8.12900E-04 2.53531E-02
      533  6.28636E-08 5.72316E-07-4.68851E-05 0.00000E+00 0.00000E+00 0.00000E+00 0.00000E+00 0.00000E+00 0.00000E+00 1.65736E-03 7.69805E-04 2.53531E-02
      549  1.74395E-07 5.25822E-07-4.68851E-05 0.00000E+00 0.00000E+00 0.00000E+00 0.00000E+00 0.00000E+00 0.00000E+00 1.47837E-03 2.27253E-03 2.53531E-02
      610  4.62018E-07 1.08113E-06-4.68851E-05 0.00000E+00 0.00000E+00 0.00000E+00 0.00000E+00 0.00000E+00 0.00000E+00 3.62346E-03 2.09488E-03 2.53531E-02
      611  4.13469E-07 1.06687E-06-4.68851E-05 0.00000E+00 0.00000E+00 0.00000E+00 0.00000E+00 0.00000E+00 0.00000E+00 4.00571E-03 1.08017E-03 2.53531E-02
      612  4.56031E-07 1.09210E-06-4.68851E-05 0.00000E+00 0.00000E+00 0.00000E+00 0.00000E+00 0.00000E+00 0.00000E+00 4.83006E-03 1.29519E-03 2.53531E-02
      613  4.97844E-07 1.05746E-06-4.68851E-05 0.00000E+00 0.00000E+00 0.00000E+00 0.00000E+00 0.00000E+00 0.00000E+00 4.33060E-03 2.50106E-03 2.53531E-02
      629  4.95872E-07 1.00922E-06-4.68851E-05 0.00000E+00 0.00000E+00 0.00000E+00 0.00000E+00 0.00000E+00 0.00000E+00 3.04080E-03 2.99771E-03 2.53531E-02
      660  0.00000E+00 9.66336E-07-4.68851E-05 0.00000E+00 0.00000E+00 0.00000E+00 0.00000E+00 0.00000E+00 0.00000E+00 1.02100E-19 1.66767E-03 2.53531E-02
      661  0.00000E+00 1.39438E-06-4.68851E-05 0.00000E+00 0.00000E+00 0.00000E+00 0.00000E+00 0.00000E+00 0.00000E+00 5.10300E-20 8.34728E-04 2.53531E-02
      692  5.74689E-07 9.98377E-07-4.68851E-05 0.00000E+00 0.00000E+00 0.00000E+00 0.00000E+00 0.00000E+00 0.00000E+00 3.53607E-03 3.53650E-03 2.53531E-02
      693  4.72135E-07 7.99814E-07-4.68851E-05 0.00000E+00 0.00000E+00 0.00000E+00 0.00000E+00 0.00000E+00 0.00000E+00 2.50047E-03 4.33090E-03 2.53531E-02
      724  0.00000E+00 0.00000E+00-4.68851E-05 0.00000E+00 0.00000E+00 0.00000E+00 0.00000E+00 0.00000E+00 0.00000E+00 0.00000E+00 0.00000E+00 2.53531E-02
      725  1.05563E-06 0.00000E+00-4.68851E-05 0.00000E+00 0.00000E+00 0.00000E+00 0.00000E+00 0.00000E+00 0.00000E+00 8.34389E-04 0.00000E+00 2.53531E-02
      771 -2.38803E-08 6.18624E-07-4.68851E-05 0.00000E+00 0.00000E+00 0.00000E+00 0.00000E+00 0.00000E+00 0.00000E+00 7.60052E-04 2.41652E-03 2.53531E-02
      772  0.00000E+00 1.18850E-06-4.68851E-05 0.00000E+00 0.00000E+00 0.00000E+00 0.00000E+00 0.00000E+00 0.00000E+00 2.04100E-19 3.33449E-03 2.53531E-02
      773  0.00000E+00 1.27030E-06-4.68851E-05 0.00000E+00 0.00000E+00 0.00000E+00 0.00000E+00 0.00000E+00 0.00000E+00 1.53100E-19 2.50127E-03 2.53531E-02
      804  5.37482E-07 0.00000E+00-4.68851E-05 0.00000E+00 0.00000E+00 0.00000E+00 0.00000E+00 0.00000E+00 0.00000E+00 4.16724E-03 0.00000E+00 2.53531E-02
      805  3.29960E-08 0.00000E+00-4.68851E-05 0.00000E+00 0.00000E+00 0.00000E+00 0.00000E+00 0.00000E+00 0.00000E+00 5.00003E-03 0.00000E+00 2.53531E-02
      821  2.03784E-06 0.00000E+00-4.68851E-05 0.00000E+00 0.00000E+00 0.00000E+00 0.00000E+00 0.00000E+00 0.00000E+00 1.66874E-03 0.00000E+00 2.53531E-02
      852  1.92145E-07 9.16396E-07-4.68851E-05 0.00000E+00 0.00000E+00 0.00000E+00 0.00000E+00 0.00000E+00 0.00000E+00 2.44339E-03 7.10022E-04 2.53531E-02
      853  3.35505E-07 7.97610E-07-4.68851E-05 0.00000E+00 0.00000E+00 0.00000E+00 0.00000E+00 0.00000E+00 0.00000E+00 3.21084E-03 8.85309E-04 2.53531E-02
      869  8.32422E-07 0.00000E+00-4.68851E-05 0.00000E+00 0.00000E+00 0.00000E+00 0.00000E+00 0.00000E+00 0.00000E+00 3.33413E-03 0.00000E+00 2.53531E-02
      885  1.81285E-06 0.00000E+00-4.68851E-05 0.00000E+00 0.00000E+00 0.00000E+00 0.00000E+00 0.00000E+00 0.00000E+00 2.50181E-03 0.00000E+00 2.53531E-02
     1082 -9.29748E-08 0.00000E+00-4.68851E-05 0.00000E+00 0.00000E+00 0.00000E+00 0.00000E+00 0.00000E+00 0.00000E+00 1.26999E-02 0.00000E+00 2.53531E-02
     1083  2.97594E-07 0.00000E+00-4.68851E-05 0.00000E+00 0.00000E+00 0.00000E+00 0.00000E+00 0.00000E+00 0.00000E+00 1.14170E-02 0.00000E+00 2.53531E-02
     1084  3.30482E-07 0.00000E+00-4.68851E-05 0.00000E+00 0.00000E+00 0.00000E+00 0.00000E+00 0.00000E+00 0.00000E+00 1.01336E-02 0.00000E+00 2.53531E-02
     1085  2.89629E-07 0.00000E+00-4.68851E-05 0.00000E+00 0.00000E+00 0.00000E+00 0.00000E+00 0.00000E+00 0.00000E+00 8.85029E-03 0.00000E+00 2.53531E-02
     1086  2.27513E-07 0.00000E+00-4.68851E-05 0.00000E+00 0.00000E+00 0.00000E+00 0.00000E+00 0.00000E+00 0.00000E+00 7.56693E-03 0.00000E+00 2.53531E-02
     1087  2.15403E-07 0.00000E+00-4.68851E-05 0.00000E+00 0.00000E+00 0.00000E+00 0.00000E+00 0.00000E+00 0.00000E+00 6.28352E-03 0.00000E+00 2.53531E-02
     1649  5.02055E-07 1.27559E-06-4.68851E-05 0.00000E+00 0.00000E+00 0.00000E+00 0.00000E+00 0.00000E+00 0.00000E+00 6.07090E-03 1.62318E-03 2.53531E-02
     1651  7.65938E-07 1.39569E-06-4.68851E-05 0.00000E+00 0.00000E+00 0.00000E+00 0.00000E+00 0.00000E+00 0.00000E+00 5.44407E-03 3.13990E-03 2.53531E-02
     1653  8.04456E-07 1.38872E-06-4.68851E-05 0.00000E+00 0.00000E+00 0.00000E+00 0.00000E+00 0.00000E+00 0.00000E+00 4.44400E-03 4.44409E-03 2.53531E-02
     1655  6.72623E-07 1.34288E-06-4.68851E-05 0.00000E+00 0.00000E+00 0.00000E+00 0.00000E+00 0.00000E+00 0.00000E+00 3.13917E-03 5.44464E-03 2.53531E-02
     1657  3.81510E-07 1.21671E-06-4.68851E-05 0.00000E+00 0.00000E+00 0.00000E+00 0.00000E+00 0.00000E+00 0.00000E+00 1.62188E-03 6.07172E-03 2.53531E-02
     1659  0.00000E+00 1.21307E-06-4.68851E-05 0.00000E+00 0.00000E+00 0.00000E+00 0.00000E+00 0.00000E+00 0.00000E+00 3.84700E-19 6.28451E-03 2.53531E-02
     1733  8.54727E-07 1.67964E-06-4.68851E-05 0.00000E+00 0.00000E+00 0.00000E+00 0.00000E+00 0.00000E+00 0.00000E+00 9.79365E-03 2.60668E-03 2.53531E-02
     1734  9.89506E-07 1.63434E-06-4.68851E-05 0.00000E+00 0.00000E+00 0.00000E+00 0.00000E+00 0.00000E+00 0.00000E+00 1.10346E-02 2.93433E-03 2.53531E-02
[...]
     1758  1.50514E-06 4.65410E-06-4.94096E-04 0.00000E+00 0.00000E+00 0.00000E+00 0.00000E+00 0.00000E+00 0.00000E+00 4.41731E-03 7.67425E-03 2.49059E-02
     1759  8.31286E-07 4.83772E-06-4.94096E-04 0.00000E+00 0.00000E+00 0.00000E+00 0.00000E+00 0.00000E+00 0.00000E+00 1.94983E-03 7.31614E-03 2.49059E-02
     1760  9.63132E-07 6.41026E-06-4.94096E-04 0.00000E+00 0.00000E+00 0.00000E+00 0.00000E+00 0.00000E+00 0.00000E+00 2.27756E-03 8.55861E-03 2.49059E-02
     1761  0.00000E+00 5.66470E-06-4.94096E-04 0.00000E+00 0.00000E+00 0.00000E+00 0.00000E+00 0.00000E+00 0.00000E+00 4.63300E-19 7.57236E-03 2.49059E-02
     1762  0.00000E+00 7.47495E-06-4.94096E-04 0.00000E+00 0.00000E+00 0.00000E+00 0.00000E+00 0.00000E+00 0.00000E+00 5.41900E-19 8.85747E-03 2.49059E-02
     1769  1.49280E-06 1.21285E-06-4.94096E-04 0.00000E+00 0.00000E+00 0.00000E+00 0.00000E+00 0.00000E+00 0.00000E+00 1.22759E-02 3.26151E-03 2.49059E-02
     1770  2.16953E-06 3.98710E-06-4.94096E-04 0.00000E+00 0.00000E+00 0.00000E+00 0.00000E+00 0.00000E+00 0.00000E+00 1.10119E-02 6.33459E-03 2.49059E-02
     1771  2.27445E-06 5.80837E-06-4.94096E-04 0.00000E+00 0.00000E+00 0.00000E+00 0.00000E+00 0.00000E+00 0.00000E+00 8.98447E-03 8.98411E-03 2.49059E-02
     1772  2.49399E-06 8.49467E-06-4.94096E-04 0.00000E+00 0.00000E+00 0.00000E+00 0.00000E+00 0.00000E+00 0.00000E+00 6.33469E-03 1.10173E-02 2.49059E-02
     1773  1.92108E-06 1.08470E-05-4.94096E-04 0.00000E+00 0.00000E+00 0.00000E+00 0.00000E+00 0.00000E+00 0.00000E+00 3.26172E-03 1.22853E-02 2.49059E-02
     1774  0.00000E+00 1.06817E-05-4.94096E-04 0.00000E+00 0.00000E+00 0.00000E+00 0.00000E+00 0.00000E+00 0.00000E+00 7.77700E-19 1.27107E-02 2.49059E-02



 n o d a l   p r i n t   o u t   f o r   t i m e  s t e p     529                              ( at time 1.0000000E+02 )

 nodal point  x-disp     y-disp      z-disp      x-vel       y-vel       z-vel      x-accl      y-accl      z-accl      x-coor      y-coor      z-coor
      224  2.56469E-04 2.30765E-04 0.00000E+00 0.00000E+00 0.00000E+00 0.00000E+00 0.00000E+00 0.00000E+00 0.00000E+00 2.13977E-03 2.04227E-03-5.69000E-23
      225  1.79480E-04 2.42298E-04 0.00000E+00 0.00000E+00 0.00000E+00 0.00000E+00 0.00000E+00 0.00000E+00 0.00000E+00 1.46528E-03 2.21850E-03-3.67000E-23
      226  2.33506E-04 3.28153E-04 0.00000E+00 0.00000E+00 0.00000E+00 0.00000E+00 0.00000E+00 0.00000E+00 0.00000E+00 1.80951E-03 2.86265E-03 6.40400E-25
      227  3.24833E-04 2.99835E-04 0.00000E+00 0.00000E+00 0.00000E+00 0.00000E+00 0.00000E+00 0.00000E+00 0.00000E+00 2.57503E-03 2.48934E-03 3.20100E-23
      231  1.27838E-04 3.51855E-04 0.00000E+00 0.00000E+00 0.00000E+00 0.00000E+00 0.00000E+00 0.00000E+00 0.00000E+00 9.42039E-04 3.11825E-03-2.38000E-25
      232  1.59883E-04 4.70815E-04 0.00000E+00 0.00000E+00 0.00000E+00 0.00000E+00 0.00000E+00 0.00000E+00 0.00000E+00 1.13066E-03 3.93262E-03-1.17000E-24
      233  3.05117E-04 4.29024E-04 0.00000E+00 0.00000E+00 0.00000E+00 0.00000E+00 0.00000E+00 0.00000E+00 0.00000E+00 2.16602E-03 3.54192E-03-5.42000E-23
      236  3.45303E-04 2.10183E-04 0.00000E+00 0.00000E+00 0.00000E+00 0.00000E+00 0.00000E+00 0.00000E+00 0.00000E+00 2.91890E-03 1.71518E-03-4.04000E-23
      237  2.61910E-04 1.56414E-04 0.00000E+00 0.00000E+00 0.00000E+00 0.00000E+00 0.00000E+00 0.00000E+00 0.00000E+00 2.28981E-03 1.37701E-03 3.14300E-23
      242  1.74374E-04 1.62035E-04 0.00000E+00 0.00000E+00 0.00000E+00 0.00000E+00 0.00000E+00 0.00000E+00 0.00000E+00 1.56017E-03 1.49284E-03-3.93000E-23
      243  1.77775E-04 8.92178E-05 0.00000E+00 0.00000E+00 0.00000E+00 0.00000E+00 0.00000E+00 0.00000E+00 0.00000E+00 1.61928E-03 7.58365E-04-2.93000E-24
      244  8.89106E-05 9.52325E-05 0.00000E+00 0.00000E+00 0.00000E+00 0.00000E+00 0.00000E+00 0.00000E+00 0.00000E+00 8.22387E-04 8.01502E-04-5.16000E-23
      245  9.13125E-05 1.66899E-04 0.00000E+00 0.00000E+00 0.00000E+00 0.00000E+00 0.00000E+00 0.00000E+00 0.00000E+00 8.02654E-04 1.57580E-03-4.76000E-23
      249  9.80892E-05 2.48817E-04 0.00000E+00 0.00000E+00 0.00000E+00 0.00000E+00 0.00000E+00 0.00000E+00 0.00000E+00 7.59284E-04 2.35032E-03 3.89200E-23
      250  0.00000E+00 1.54706E-04 0.00000E+00 0.00000E+00 0.00000E+00 0.00000E+00 0.00000E+00 0.00000E+00 0.00000E+00 8.87500E-20 1.60411E-03 0.00000E+00
      251  0.00000E+00 2.39503E-04 0.00000E+00 0.00000E+00 0.00000E+00 0.00000E+00 0.00000E+00 0.00000E+00 0.00000E+00 1.33100E-19 2.41360E-03 0.00000E+00
      253  4.08922E-04 3.63612E-04 0.00000E+00 0.00000E+00 0.00000E+00 0.00000E+00 0.00000E+00 0.00000E+00 0.00000E+00 3.05342E-03 2.97021E-03 5.88000E-25
      255  0.00000E+00 8.18009E-05 0.00000E+00 0.00000E+00 0.00000E+00 0.00000E+00 0.00000E+00 0.00000E+00 0.00000E+00 4.43800E-20 8.06505E-04 0.00000E+00
      260  4.66186E-04 2.57835E-04 0.00000E+00 0.00000E+00 0.00000E+00 0.00000E+00 0.00000E+00 0.00000E+00 0.00000E+00 3.61769E-03 2.07914E-03-5.54000E-23
      261  5.91915E-04 3.69692E-04 0.00000E+00 0.00000E+00 0.00000E+00 0.00000E+00 0.00000E+00 0.00000E+00 0.00000E+00 4.35762E-03 2.54379E-03 0.00000E+00
      262  7.06760E-04 2.15191E-04 0.00000E+00 0.00000E+00 0.00000E+00 0.00000E+00 0.00000E+00 0.00000E+00 0.00000E+00 4.90686E-03 1.34059E-03 0.00000E+00
      263  5.03650E-04 1.30245E-04 0.00000E+00 0.00000E+00 0.00000E+00 0.00000E+00 0.00000E+00 0.00000E+00 0.00000E+00 3.98755E-03 1.06889E-03-1.24000E-24
      266  4.10407E-04 6.24206E-04 0.00000E+00 0.00000E+00 0.00000E+00 0.00000E+00 0.00000E+00 0.00000E+00 0.00000E+00 2.58451E-03 4.38991E-03 0.00000E+00
      267  5.30084E-04 5.45157E-04 0.00000E+00 0.00000E+00 0.00000E+00 0.00000E+00 0.00000E+00 0.00000E+00 0.00000E+00 3.60478E-03 3.61986E-03 0.00000E+00
      269  2.69787E-04 8.34280E-05 0.00000E+00 0.00000E+00 0.00000E+00 0.00000E+00 0.00000E+00 0.00000E+00 0.00000E+00 2.39489E-03 7.00239E-04 1.05700E-24
      271  0.00000E+00 3.60951E-04 0.00000E+00 0.00000E+00 0.00000E+00 0.00000E+00 0.00000E+00 0.00000E+00 0.00000E+00 1.77500E-19 3.25975E-03 0.00000E+00
      274  1.57208E-04 0.00000E+00 0.00000E+00 0.00000E+00 0.00000E+00 0.00000E+00 0.00000E+00 0.00000E+00 0.00000E+00 1.60661E-03 0.00000E+00 0.00000E+00
      275  8.05487E-05 0.00000E+00 0.00000E+00 0.00000E+00 0.00000E+00 0.00000E+00 0.00000E+00 0.00000E+00 0.00000E+00 8.05253E-04 0.00000E+00 0.00000E+00
      278  7.42548E-04 0.00000E+00 0.00000E+00 0.00000E+00 0.00000E+00 0.00000E+00 0.00000E+00 0.00000E+00 0.00000E+00 5.09075E-03 0.00000E+00 0.00000E+00
      279  5.57999E-04 0.00000E+00 0.00000E+00 0.00000E+00 0.00000E+00 0.00000E+00 0.00000E+00 0.00000E+00 0.00000E+00 4.18150E-03 0.00000E+00 0.00000E+00
      281  3.79332E-04 1.22212E-04 0.00000E+00 0.00000E+00 0.00000E+00 0.00000E+00 0.00000E+00 0.00000E+00 0.00000E+00 3.17213E-03 8.91684E-04 4.81700E-23
      283  2.06190E-04 6.60637E-04 0.00000E+00 0.00000E+00 0.00000E+00 0.00000E+00 0.00000E+00 0.00000E+00 0.00000E+00 1.33159E-03 4.86074E-03 0.00000E+00
      285  3.76739E-04 0.00000E+00 0.00000E+00 0.00000E+00 0.00000E+00 0.00000E+00 0.00000E+00 0.00000E+00 0.00000E+00 3.27554E-03 0.00000E+00 0.00000E+00
      287  0.00000E+00 5.25445E-04 0.00000E+00 0.00000E+00 0.00000E+00 0.00000E+00 0.00000E+00 0.00000E+00 0.00000E+00 2.21900E-19 4.14895E-03 0.00000E+00
      289  2.51202E-04 0.00000E+00 0.00000E+00 0.00000E+00 0.00000E+00 0.00000E+00 0.00000E+00 0.00000E+00 0.00000E+00 2.42530E-03 0.00000E+00 0.00000E+00
      291  0.00000E+00 0.00000E+00 0.00000E+00 0.00000E+00 0.00000E+00 0.00000E+00 0.00000E+00 0.00000E+00 0.00000E+00 0.00000E+00 0.00000E+00 0.00000E+00
      293  0.00000E+00 6.68913E-04 0.00000E+00 0.00000E+00 0.00000E+00 0.00000E+00 0.00000E+00 0.00000E+00 0.00000E+00 2.66300E-19 5.01711E-03 0.00000E+00
      354  4.64373E-07 1.89007E-06-5.00000E-04 0.00000E+00 0.00000E+00 0.00000E+00 0.00000E+00 0.00000E+00 0.00000E+00 1.11646E-03 3.98169E-03 2.49000E-02
      355  5.39433E-07 2.18901E-06-5.00000E-04 0.00000E+00 0.00000E+00 0.00000E+00 0.00000E+00 0.00000E+00 0.00000E+00 1.29464E-03 4.83179E-03 2.49000E-02
      356  0.00000E+00 2.95954E-06-5.00000E-04 0.00000E+00 0.00000E+00 0.00000E+00 0.00000E+00 0.00000E+00 0.00000E+00 3.06200E-19 5.00296E-03 2.49000E-02
      357  0.00000E+00 3.39049E-06-5.00000E-04 0.00000E+00 0.00000E+00 0.00000E+00 0.00000E+00 0.00000E+00 0.00000E+00 2.55100E-19 4.17009E-03 2.49000E-02
      403  8.76949E-07 1.10570E-06-5.00000E-04 0.00000E+00 0.00000E+00 0.00000E+00 0.00000E+00 0.00000E+00 0.00000E+00 1.81278E-03 2.91501E-03 2.49000E-02
      404  6.61901E-07 1.46224E-06-5.00000E-04 0.00000E+00 0.00000E+00 0.00000E+00 0.00000E+00 0.00000E+00 0.00000E+00 2.13996E-03 3.58026E-03 2.49000E-02
      405  7.86311E-07 1.71136E-06-5.00000E-04 0.00000E+00 0.00000E+00 0.00000E+00 0.00000E+00 0.00000E+00 0.00000E+00 9.36746E-04 3.18201E-03 2.49000E-02
      466  8.75146E-07 6.96469E-07-5.00000E-04 0.00000E+00 0.00000E+00 0.00000E+00 0.00000E+00 0.00000E+00 0.00000E+00 2.16628E-03 2.08350E-03 2.49000E-02
      467  7.24383E-07-1.03177E-07-5.00000E-04 0.00000E+00 0.00000E+00 0.00000E+00 0.00000E+00 0.00000E+00 0.00000E+00 2.33232E-03 1.40330E-03 2.49000E-02
      468  6.61801E-07 1.00892E-06-5.00000E-04 0.00000E+00 0.00000E+00 0.00000E+00 0.00000E+00 0.00000E+00 0.00000E+00 2.95956E-03 1.73131E-03 2.49000E-02
      469  7.96523E-07 1.05138E-06-5.00000E-04 0.00000E+00 0.00000E+00 0.00000E+00 0.00000E+00 0.00000E+00 0.00000E+00 2.58800E-03 2.51845E-03 2.49000E-02
      530  7.53523E-07 5.29992E-07-5.00000E-04 0.00000E+00 0.00000E+00 0.00000E+00 0.00000E+00 0.00000E+00 0.00000E+00 1.59395E-03 1.53053E-03 2.49000E-02
      531  9.99805E-07 2.12281E-06-5.00000E-04 0.00000E+00 0.00000E+00 0.00000E+00 0.00000E+00 0.00000E+00 0.00000E+00 8.18758E-04 1.62192E-03 2.49000E-02
      532  6.33928E-08 1.65501E-06-5.00000E-04 0.00000E+00 0.00000E+00 0.00000E+00 0.00000E+00 0.00000E+00 0.00000E+00 8.43320E-04 8.13578E-04 2.49000E-02
      533 -1.06078E-07 7.57936E-08-5.00000E-04 0.00000E+00 0.00000E+00 0.00000E+00 0.00000E+00 0.00000E+00 0.00000E+00 1.65719E-03 7.69308E-04 2.49000E-02
      549  7.94222E-07 8.42940E-07-5.00000E-04 0.00000E+00 0.00000E+00 0.00000E+00 0.00000E+00 0.00000E+00 0.00000E+00 1.47899E-03 2.27284E-03 2.49000E-02
      610  5.94752E-07 1.53095E-06-5.00000E-04 0.00000E+00 0.00000E+00 0.00000E+00 0.00000E+00 0.00000E+00 0.00000E+00 3.62359E-03 2.09533E-03 2.49000E-02
      611  2.04489E-07 1.26513E-06-5.00000E-04 0.00000E+00 0.00000E+00 0.00000E+00 0.00000E+00 0.00000E+00 0.00000E+00 4.00550E-03 1.08037E-03 2.49000E-02
      612  1.80292E-07 1.26925E-06-5.00000E-04 0.00000E+00 0.00000E+00 0.00000E+00 0.00000E+00 0.00000E+00 0.00000E+00 4.82978E-03 1.29537E-03 2.49000E-02
      613  5.73538E-07 1.62296E-06-5.00000E-04 0.00000E+00 0.00000E+00 0.00000E+00 0.00000E+00 0.00000E+00 0.00000E+00 4.33067E-03 2.50162E-03 2.49000E-02
      629  7.14045E-07 1.53050E-06-5.00000E-04 0.00000E+00 0.00000E+00 0.00000E+00 0.00000E+00 0.00000E+00 0.00000E+00 3.04101E-03 2.99823E-03 2.49000E-02
      660  0.00000E+00 6.12906E-06-5.00000E-04 0.00000E+00 0.00000E+00 0.00000E+00 0.00000E+00 0.00000E+00 0.00000E+00 1.02100E-19 1.67283E-03 2.49000E-02
      661  0.00000E+00 5.09556E-06-5.00000E-04 0.00000E+00 0.00000E+00 0.00000E+00 0.00000E+00 0.00000E+00 0.00000E+00 5.10300E-20 8.38429E-04 2.49000E-02
      692  6.82485E-07 1.63463E-06-5.00000E-04 0.00000E+00 0.00000E+00 0.00000E+00 0.00000E+00 0.00000E+00 0.00000E+00 3.53618E-03 3.53713E-03 2.49000E-02
      693  7.21498E-07 1.86095E-06-5.00000E-04 0.00000E+00 0.00000E+00 0.00000E+00 0.00000E+00 0.00000E+00 0.00000E+00 2.50072E-03 4.33196E-03 2.49000E-02
      724  0.00000E+00 0.00000E+00-5.00000E-04 0.00000E+00 0.00000E+00 0.00000E+00 0.00000E+00 0.00000E+00 0.00000E+00 0.00000E+00 0.00000E+00 2.49000E-02
      725  1.23610E-06 0.00000E+00-5.00000E-04 0.00000E+00 0.00000E+00 0.00000E+00 0.00000E+00 0.00000E+00 0.00000E+00 8.34569E-04 0.00000E+00 2.49000E-02
      771  1.07027E-06 2.41661E-06-5.00000E-04 0.00000E+00 0.00000E+00 0.00000E+00 0.00000E+00 0.00000E+00 0.00000E+00 7.61146E-04 2.41832E-03 2.49000E-02
      772  0.00000E+00 3.66192E-06-5.00000E-04 0.00000E+00 0.00000E+00 0.00000E+00 0.00000E+00 0.00000E+00 0.00000E+00 2.04100E-19 3.33696E-03 2.49000E-02
      773  0.00000E+00 5.29089E-06-5.00000E-04 0.00000E+00 0.00000E+00 0.00000E+00 0.00000E+00 0.00000E+00 0.00000E+00 1.53100E-19 2.50529E-03 2.49000E-02
      804  3.12197E-07 0.00000E+00-5.00000E-04 0.00000E+00 0.00000E+00 0.00000E+00 0.00000E+00 0.00000E+00 0.00000E+00 4.16701E-03 0.00000E+00 2.49000E-02
      805 -3.38013E-07 0.00000E+00-5.00000E-04 0.00000E+00 0.00000E+00 0.00000E+00 0.00000E+00 0.00000E+00 0.00000E+00 4.99966E-03 0.00000E+00 2.49000E-02
      821  2.22777E-06 0.00000E+00-5.00000E-04 0.00000E+00 0.00000E+00 0.00000E+00 0.00000E+00 0.00000E+00 0.00000E+00 1.66893E-03 0.00000E+00 2.49000E-02
      852  1.59147E-07 2.97008E-07-5.00000E-04 0.00000E+00 0.00000E+00 0.00000E+00 0.00000E+00 0.00000E+00 0.00000E+00 2.44336E-03 7.09403E-04 2.49000E-02
      853  2.31849E-07 5.59556E-07-5.00000E-04 0.00000E+00 0.00000E+00 0.00000E+00 0.00000E+00 0.00000E+00 0.00000E+00 3.21073E-03 8.85071E-04 2.49000E-02
      869  8.82378E-07 0.00000E+00-5.00000E-04 0.00000E+00 0.00000E+00 0.00000E+00 0.00000E+00 0.00000E+00 0.00000E+00 3.33418E-03 0.00000E+00 2.49000E-02
      885  2.00099E-06 0.00000E+00-5.00000E-04 0.00000E+00 0.00000E+00 0.00000E+00 0.00000E+00 0.00000E+00 0.00000E+00 2.50200E-03 0.00000E+00 2.49000E-02
     1082  3.88349E-08 0.00000E+00-5.00000E-04 0.00000E+00 0.00000E+00 0.00000E+00 0.00000E+00 0.00000E+00 0.00000E+00 1.27000E-02 0.00000E+00 2.49000E-02
     1083  8.15078E-07 0.00000E+00-5.00000E-04 0.00000E+00 0.00000E+00 0.00000E+00 0.00000E+00 0.00000E+00 0.00000E+00 1.14175E-02 0.00000E+00 2.49000E-02
     1084  7.49901E-07 0.00000E+00-5.00000E-04 0.00000E+00 0.00000E+00 0.00000E+00 0.00000E+00 0.00000E+00 0.00000E+00 1.01340E-02 0.00000E+00 2.49000E-02
     1085  4.70869E-07 0.00000E+00-5.00000E-04 0.00000E+00 0.00000E+00 0.00000E+00 0.00000E+00 0.00000E+00 0.00000E+00 8.85047E-03 0.00000E+00 2.49000E-02
     1086  1.69298E-07 0.00000E+00-5.00000E-04 0.00000E+00 0.00000E+00 0.00000E+00 0.00000E+00 0.00000E+00 0.00000E+00 7.56687E-03 0.00000E+00 2.49000E-02
     1087 -7.46978E-08 0.00000E+00-5.00000E-04 0.00000E+00 0.00000E+00 0.00000E+00 0.00000E+00 0.00000E+00 0.00000E+00 6.28323E-03 0.00000E+00 2.49000E-02
     1649  3.68789E-07 1.20052E-06-5.00000E-04 0.00000E+00 0.00000E+00 0.00000E+00 0.00000E+00 0.00000E+00 0.00000E+00 6.07077E-03 1.62310E-03 2.49000E-02
     1651  8.69892E-07 2.02213E-06-5.00000E-04 0.00000E+00 0.00000E+00 0.00000E+00 0.00000E+00 0.00000E+00 0.00000E+00 5.44417E-03 3.14052E-03 2.49000E-02
     1653  9.68417E-07 2.25672E-06-5.00000E-04 0.00000E+00 0.00000E+00 0.00000E+00 0.00000E+00 0.00000E+00 0.00000E+00 4.44417E-03 4.44496E-03 2.49000E-02
     1655  9.84060E-07 2.74827E-06-5.00000E-04 0.00000E+00 0.00000E+00 0.00000E+00 0.00000E+00 0.00000E+00 0.00000E+00 3.13948E-03 5.44605E-03 2.49000E-02
     1657  6.46739E-07 3.41330E-06-5.00000E-04 0.00000E+00 0.00000E+00 0.00000E+00 0.00000E+00 0.00000E+00 0.00000E+00 1.62215E-03 6.07391E-03 2.49000E-02
     1659  0.00000E+00 4.11041E-06-5.00000E-04 0.00000E+00 0.00000E+00 0.00000E+00 0.00000E+00 0.00000E+00 0.00000E+00 3.84700E-19 6.28741E-03 2.49000E-02
     1733  1.28073E-06 1.52848E-06-5.00000E-04 0.00000E+00 0.00000E+00 0.00000E+00 0.00000E+00 0.00000E+00 0.00000E+00 9.79408E-03 2.60653E-03 2.49000E-02
     1734  1.65444E-06 1.43560E-06-5.00000E-04 0.00000E+00 0.00000E+00 0.00000E+00 0.00000E+00 0.00000E+00 0.00000E+00 1.10353E-02 2.93414E-03 2.49000E-02
     1735  1.85096E-06 3.29006E-06-5.00000E-04 0.00000E+00 0.00000E+00 0.00000E+00 0.00000E+00 0.00000E+00 0.00000E+00 8.78495E-03 5.05719E-03 2.49000E-02
     1736  2.27430E-06 3.59429E-06-5.00000E-04 0.00000E+00 0.00000E+00 0.00000E+00 0.00000E+00 0.00000E+00 0.00000E+00 9.89867E-03 5.69589E-03 2.49000E-02
     1737  1.95811E-06 4.12538E-06-5.00000E-04 0.00000E+00 0.00000E+00 0.00000E+00 0.00000E+00 0.00000E+00 0.00000E+00 7.16846E-03 7.16833E-03 2.49000E-02
     1738  2.39899E-06 4.81011E-06-5.00000E-04 0.00000E+00 0.00000E+00 0.00000E+00 0.00000E+00 0.00000E+00 0.00000E+00 8.07670E-03 8.07611E-03 2.49000E-02
     1739  1.85499E-06 5.54556E-06-5.00000E-04 0.00000E+00 0.00000E+00 0.00000E+00 0.00000E+00 0.00000E+00 0.00000E+00 5.05635E-03 8.78825E-03 2.49000E-02
     1740  2.03999E-06 6.96253E-06-5.00000E-04 0.00000E+00 0.00000E+00 0.00000E+00 0.00000E+00 0.00000E+00 0.00000E+00 5.69544E-03 9.90276E-03 2.49000E-02
     1741  1.33583E-06 7.99656E-06-5.00000E-04 0.00000E+00 0.00000E+00 0.00000E+00 0.00000E+00 0.00000E+00 0.00000E+00 2.60554E-03 9.80100E-03 2.49000E-02
     1742  1.51794E-06 9.76105E-06-5.00000E-04 0.00000E+00 0.00000E+00 0.00000E+00 0.00000E+00 0.00000E+00 0.00000E+00 2.93352E-03 1.10436E-02 2.49000E-02
     1743  0.00000E+00 9.27840E-06-5.00000E-04 0.00000E+00 0.00000E+00 0.00000E+00 0.00000E+00 0.00000E+00 0.00000E+00 6.20500E-19 1.01426E-02 2.49000E-02
     1744  0.00000E+00 1.06265E-05-5.00000E-04 0.00000E+00 0.00000E+00 0.00000E+00 0.00000E+00 0.00000E+00 0.00000E+00 6.99100E-19 1.14273E-02 2.49000E-02
     1751  6.13829E-07 1.29128E-06-5.00000E-04 0.00000E+00 0.00000E+00 0.00000E+00 0.00000E+00 0.00000E+00 0.00000E+00 7.31181E-03 1.95089E-03 2.49000E-02
     1752  9.27479E-07 1.43559E-06-5.00000E-04 0.00000E+00 0.00000E+00 0.00000E+00 0.00000E+00 0.00000E+00 0.00000E+00 8.55293E-03 2.27874E-03 2.49000E-02
     1753  1.12237E-06 2.49100E-06-5.00000E-04 0.00000E+00 0.00000E+00 0.00000E+00 0.00000E+00 0.00000E+00 0.00000E+00 6.55772E-03 3.77949E-03 2.49000E-02
     1754  1.45742E-06 2.91018E-06-5.00000E-04 0.00000E+00 0.00000E+00 0.00000E+00 0.00000E+00 0.00000E+00 0.00000E+00 7.67126E-03 4.41841E-03 2.49000E-02
     1755  1.24602E-06 2.88606E-06-5.00000E-04 0.00000E+00 0.00000E+00 0.00000E+00 0.00000E+00 0.00000E+00 0.00000E+00 5.35225E-03 5.35279E-03 2.49000E-02
     1756  1.58421E-06 3.49986E-06-5.00000E-04 0.00000E+00 0.00000E+00 0.00000E+00 0.00000E+00 0.00000E+00 0.00000E+00 6.26028E-03 6.26060E-03 2.49000E-02
     1757  1.20917E-06 3.62518E-06-5.00000E-04 0.00000E+00 0.00000E+00 0.00000E+00 0.00000E+00 0.00000E+00 0.00000E+00 3.77831E-03 6.56013E-03 2.49000E-02
     1758  1.45557E-06 4.54202E-06-5.00000E-04 0.00000E+00 0.00000E+00 0.00000E+00 0.00000E+00 0.00000E+00 0.00000E+00 4.41726E-03 7.67414E-03 2.49000E-02
     1759  8.09194E-07 4.77514E-06-5.00000E-04 0.00000E+00 0.00000E+00 0.00000E+00 0.00000E+00 0.00000E+00 0.00000E+00 1.94981E-03 7.31608E-03 2.49000E-02
     1760  9.37134E-07 6.32994E-06-5.00000E-04 0.00000E+00 0.00000E+00 0.00000E+00 0.00000E+00 0.00000E+00 0.00000E+00 2.27754E-03 8.55853E-03 2.49000E-02
     1761  0.00000E+00 5.60722E-06-5.00000E-04 0.00000E+00 0.00000E+00 0.00000E+00 0.00000E+00 0.00000E+00 0.00000E+00 4.63300E-19 7.57231E-03 2.49000E-02
     1762  0.00000E+00 7.38937E-06-5.00000E-04 0.00000E+00 0.00000E+00 0.00000E+00 0.00000E+00 0.00000E+00 0.00000E+00 5.41900E-19 8.85739E-03 2.49000E-02
     1769  1.48172E-06 1.12483E-06-5.00000E-04 0.00000E+00 0.00000E+00 0.00000E+00 0.00000E+00 0.00000E+00 0.00000E+00 1.22759E-02 3.26142E-03 2.49000E-02
     1770  2.10753E-06 3.86225E-06-5.00000E-04 0.00000E+00 0.00000E+00 0.00000E+00 0.00000E+00 0.00000E+00 0.00000E+00 1.10118E-02 6.33446E-03 2.49000E-02
     1771  2.22417E-06 5.69829E-06-5.00000E-04 0.00000E+00 0.00000E+00 0.00000E+00 0.00000E+00 0.00000E+00 0.00000E+00 8.98442E-03 8.98400E-03 2.49000E-02
     1772  2.48104E-06 8.41611E-06-5.00000E-04 0.00000E+00 0.00000E+00 0.00000E+00 0.00000E+00 0.00000E+00 0.00000E+00 6.33468E-03 1.10172E-02 2.49000E-02
     1773  1.87081E-06 1.06225E-05-5.00000E-04 0.00000E+00 0.00000E+00 0.00000E+00 0.00000E+00 0.00000E+00 0.00000E+00 3.26167E-03 1.22851E-02 2.49000E-02
     1774  0.00000E+00 1.03834E-05-5.00000E-04 0.00000E+00 0.00000E+00 0.00000E+00 0.00000E+00 0.00000E+00 0.00000E+00 7.77700E-19 1.27104E-02 2.49000E-02
