 LS-DYNA keyword deck by LS-PrePost                                      
                    ls-dyna smp d R14 R14.1.1s_1_ef50e1 date 06/16/2024



 e l e m e n t   s t r e s s   c a l c u l a t i o n s   f o r   t i m e  s t e p        1   ( at time 0.00000E+00 )

 element  materl
     ipt  stress       sig-xx      sig-yy      sig-zz      sig-xy      sig-yz      sig-zx                       yield
           state                                                                                  effsg      function
      45-      1
       1          -1.9509E-06 -1.9509E-06 -1.9509E-06  0.0000E+00  0.0000E+00  0.0000E+00    0.0000E+00    0.0000E+00
      47-      1
       1          -1.9509E-06 -1.9509E-06 -1.9509E-06  0.0000E+00  0.0000E+00  0.0000E+00    0.0000E+00    0.0000E+00
      53-      1
       1          -3.9019E-06 -3.9019E-06 -3.9019E-06  0.0000E+00  0.0000E+00  0.0000E+00    0.0000E+00    0.0000E+00
      61-      1
       1           0.0000E+00  0.0000E+00  0.0000E+00  0.0000E+00  0.0000E+00  0.0000E+00    0.0000E+00    0.0000E+00
      67-      1
       1          -3.9019E-06 -3.9019E-06 -3.9019E-06  0.0000E+00  0.0000E+00  0.0000E+00    0.0000E+00    0.0000E+00
      79-      1
       1           0.0000E+00  0.0000E+00  0.0000E+00  0.0000E+00  0.0000E+00  0.0000E+00    0.0000E+00    0.0000E+00
      81-      1
       1          -1.9509E-06 -1.9509E-06 -1.9509E-06  0.0000E+00  0.0000E+00  0.0000E+00    0.0000E+00    0.0000E+00



 e l e m e n t   s t r a i n   c a l c u l a t i o n s   f o r   t i m e  s t e p        1   ( at time  0.00000E+00 )

 element  strain       eps-xx      eps-yy      eps-zz      eps-xy      eps-yz      eps-zx                            yield
 num/ipt   state
      45-      1
      1            0.0000E+00  0.0000E+00  0.0000E+00  0.0000E+00  0.0000E+00  0.0000E+00
      47-      1
      1            0.0000E+00  0.0000E+00  0.0000E+00  0.0000E+00  0.0000E+00  0.0000E+00
      53-      1
      1            0.0000E+00  0.0000E+00  0.0000E+00  0.0000E+00  0.0000E+00  0.0000E+00
      61-      1
      1            0.0000E+00  0.0000E+00  0.0000E+00  0.0000E+00  0.0000E+00  0.0000E+00
      67-      1
      1            0.0000E+00  0.0000E+00  0.0000E+00  0.0000E+00  0.0000E+00  0.0000E+00
      79-      1
      1            0.0000E+00  0.0000E+00  0.0000E+00  0.0000E+00  0.0000E+00  0.0000E+00
      81-      1
      1            0.0000E+00  0.0000E+00  0.0000E+00  0.0000E+00  0.0000E+00  0.0000E+00



 e l e m e n t   s t r e s s   c a l c u l a t i o n s   f o r   t i m e  s t e p        6   ( at time 2.50000E+00 )

 element  materl
     ipt  stress       sig-xx      sig-yy      sig-zz      sig-xy      sig-yz      sig-zx                       yield
           state                                                                                  effsg      function
      45-      1
       1          -2.4122E+07 -4.2056E+07 -1.5864E+08  1.0124E+07 -8.5538E+06 -1.8183E+07    1.3238E+08    0.0000E+00
      47-      1
       1          -3.8609E+07 -3.0687E+07 -1.6003E+08  1.3010E+07 -1.6669E+07 -1.1928E+07    1.3243E+08    0.0000E+00
      53-      1
       1          -3.1852E+07 -3.6790E+07 -1.6056E+08  1.3743E+07 -1.3474E+07 -1.5708E+07    1.3344E+08    0.0000E+00
      61-      1
       1          -1.9411E+07 -4.5436E+07 -1.5834E+08  3.8174E+06 -2.9673E+06 -1.9854E+07    1.3273E+08    0.0000E+00
      67-      1
       1          -4.2844E+07 -2.5412E+07 -1.5707E+08  9.4652E+06 -1.8455E+07 -7.0284E+06    1.2954E+08    0.0000E+00
      79-      1
       1          -3.6131E+07 -3.5995E+07 -7.9974E+07  1.5298E+05  4.2983E+04  1.2602E+03    4.3913E+07    0.0000E+00
      81-      1
       1          -4.4519E+07 -2.0665E+07 -1.5560E+08  3.7564E+06 -1.9840E+07 -2.2856E+06    1.2960E+08    0.0000E+00



 e l e m e n t   s t r a i n   c a l c u l a t i o n s   f o r   t i m e  s t e p        6   ( at time  2.50000E+00 )

 element  strain       eps-xx      eps-yy      eps-zz      eps-xy      eps-yz      eps-zx                            yield
 num/ipt   state
      45-      1
      1            6.1400E-04  2.7160E-04 -1.9534E-03  1.9325E-04 -1.6319E-04 -3.4678E-04
      47-      1
      1            3.5908E-04  5.1018E-04 -1.9582E-03  2.4831E-04 -3.1799E-04 -2.2747E-04
      53-      1
      1            4.8745E-04  3.9306E-04 -1.9690E-03  2.6231E-04 -2.5706E-04 -2.9957E-04
      61-      1
      1            6.9609E-04  1.9931E-04 -1.9556E-03  7.2861E-05 -5.6614E-05 -3.7864E-04
      67-      1
      1            2.5910E-04  5.9180E-04 -1.9209E-03  1.8068E-04 -3.5204E-04 -1.3404E-04
      79-      1
      1            3.7585E-05  4.0185E-05 -7.9913E-04  2.9194E-06  8.2475E-07  2.8547E-08
      81-      1
      1            2.0537E-04  6.6071E-04 -1.9147E-03  7.1713E-05 -3.7844E-04 -4.3587E-05



 e l e m e n t   s t r e s s   c a l c u l a t i o n s   f o r   t i m e  s t e p       10   ( at time 6.46223E+00 )

 element  materl
     ipt  stress       sig-xx      sig-yy      sig-zz      sig-xy      sig-yz      sig-zx                       yield
           state                                                                                  effsg      function
      45-      1
       1          -7.9601E+07 -1.2090E+08 -3.3695E+08  2.3645E+07 -1.6262E+07 -3.5085E+07    2.5193E+08    6.2595E-04
      47-      1
       1          -1.1306E+08 -9.5272E+07 -3.3927E+08  3.0288E+07 -3.0160E+07 -2.2403E+07    2.5000E+08    6.3664E-04
      53-      1
       1          -9.7993E+07 -1.1046E+08 -3.4004E+08  3.1617E+07 -2.4586E+07 -2.9356E+07    2.5124E+08    6.4456E-04
      61-      1
       1          -6.8047E+07 -1.2716E+08 -3.3172E+08  9.0196E+06 -5.6989E+06 -3.8388E+07    2.4938E+08    6.5286E-04
      67-      1
       1          -1.2043E+08 -7.9019E+07 -3.3739E+08  2.2783E+07 -3.5159E+07 -1.3722E+07    2.5219E+08    5.7901E-04
      79-      1
       1          -9.5658E+07 -9.4734E+07 -2.1053E+08  6.5110E+05  1.1372E+05 -4.4525E+04    1.1534E+08    0.0000E+00
      81-      1
       1          -1.2190E+08 -6.5455E+07 -3.2891E+08  9.2549E+06 -3.8324E+07 -4.4513E+06    2.4989E+08    5.9750E-04



 e l e m e n t   s t r a i n   c a l c u l a t i o n s   f o r   t i m e  s t e p       10   ( at time  6.46223E+00 )

 element  strain       eps-xx      eps-yy      eps-zz      eps-xy      eps-yz      eps-zx                            yield
 num/ipt   state
      45-      1
      1            2.0379E-03  8.6751E-04 -5.4609E-03  6.7425E-04 -4.9943E-04 -1.0446E-03
      47-      1
      1            1.1777E-03  1.6779E-03 -5.4577E-03  8.7937E-04 -9.5847E-04 -6.9289E-04
      53-      1
      1            1.6209E-03  1.2682E-03 -5.4959E-03  9.1642E-04 -7.8052E-04 -8.9748E-04
      61-      1
      1            2.3388E-03  6.3079E-04 -5.4761E-03  2.6076E-04 -1.7284E-04 -1.1454E-03
      67-      1
      1            8.2742E-04  1.9681E-03 -5.3470E-03  6.4092E-04 -1.0672E-03 -4.1666E-04
      79-      1
      1            9.1331E-05  1.0896E-04 -2.1009E-03  1.2424E-05  2.1697E-06 -8.4924E-07
      81-      1
      1            6.4241E-04  2.2258E-03 -5.3234E-03  2.6313E-04 -1.1492E-03 -1.3701E-04



 e l e m e n t   s t r e s s   c a l c u l a t i o n s   f o r   t i m e  s t e p      198   ( at time 9.37702E+00 )

 element  materl
     ipt  stress       sig-xx      sig-yy      sig-zz      sig-xy      sig-yz      sig-zx                       yield
           state                                                                                  effsg      function
      45-      1
       1          -1.3487E+08 -1.7327E+08 -3.3513E+08  1.7298E+07 -1.7258E+07 -2.3724E+07    1.9331E+08    1.2288E-02
      47-      1
       1          -1.0237E+08 -9.3730E+07 -2.8778E+08  2.9969E+07 -2.2625E+07 -2.6857E+07    2.0602E+08    1.0821E-02
      53-      1
       1          -1.2459E+08 -1.2511E+08 -2.9335E+08  2.7919E+07 -1.8153E+07 -1.9709E+07    1.8134E+08    1.2107E-02
      61-      1
       1          -4.5921E+07 -7.2038E+07 -2.2057E+08  1.5713E+07 -4.5733E+06 -3.0283E+07    1.7372E+08    2.5906E-02
      67-      1
       1          -8.3817E+07 -4.1347E+07 -2.9703E+08  2.0695E+07 -4.1513E+07 -2.4986E+07    2.5426E+08    8.6780E-03
      79-      1
       1          -1.5899E+08 -1.6088E+08 -3.0847E+08  2.4626E+07 -1.2840E+07 -1.7525E+06    1.5617E+08    6.2660E-04
      81-      1
       1          -4.7659E+07 -1.0968E+07 -2.1198E+08  5.0941E+06 -3.8932E+07 -3.3927E+06    1.9757E+08    1.6708E-02



 e l e m e n t   s t r a i n   c a l c u l a t i o n s   f o r   t i m e  s t e p      198   ( at time  9.37702E+00 )

 element  strain       eps-xx      eps-yy      eps-zz      eps-xy      eps-yz      eps-zx                            yield
 num/ipt   state
      45-      1
      1            6.6534E-03  2.9134E-03 -1.2660E-02  1.5799E-03 -1.8777E-03 -2.6384E-03
      47-      1
      1            4.4445E-03  4.9594E-03 -1.1731E-02  2.5505E-03 -2.2701E-03 -2.2927E-03
      53-      1
      1            4.5335E-03  4.5057E-03 -1.1646E-02  2.6037E-03 -2.0933E-03 -2.1372E-03
      61-      1
      1            9.1358E-03  4.7181E-03 -1.5661E-02  1.9183E-03  1.0752E-04 -4.0705E-03
      67-      1
      1            3.6274E-03  6.6886E-03 -1.2361E-02  1.5926E-03 -3.1869E-03 -1.8505E-03
      79-      1
      1            3.1167E-04  2.6866E-04 -3.5514E-03  6.4876E-04 -3.6663E-04 -1.9447E-04
      81-      1
      1            4.2978E-03  8.4027E-03 -1.4079E-02  7.5108E-04 -5.0934E-03 -5.2996E-04



 e l e m e n t   s t r e s s   c a l c u l a t i o n s   f o r   t i m e  s t e p      206   ( at time 1.08379E+01 )

 element  materl
     ipt  stress       sig-xx      sig-yy      sig-zz      sig-xy      sig-yz      sig-zx                       yield
           state                                                                                  effsg      function
      45-      1
       1          -1.1461E+08 -1.4362E+08 -3.2899E+08  1.5304E+07 -1.8527E+07 -1.8164E+07    2.0810E+08    1.7721E-02
      47-      1
       1          -8.2015E+07 -6.9290E+07 -2.8439E+08  2.6775E+07 -2.4453E+07 -2.4712E+07    2.2242E+08    1.5610E-02
      53-      1
       1          -1.1721E+08 -1.1493E+08 -2.9846E+08  2.3219E+07 -1.7160E+07 -1.9665E+07    1.9218E+08    1.7582E-02
      61-      1
       1          -6.6793E+07 -9.3097E+07 -2.6745E+08  1.0181E+07 -7.0905E+06 -6.0802E+06    1.9040E+08    3.2345E-02
      67-      1
       1          -5.6925E+07 -1.7854E+07 -2.8638E+08  1.7765E+07 -3.9725E+07 -2.3673E+07    2.6553E+08    1.3136E-02
      79-      1
       1          -1.6830E+08 -1.7775E+08 -3.5889E+08  2.1543E+07 -1.3064E+07 -4.1164E+06    1.9123E+08    2.2245E-03
      81-      1
       1          -1.5938E+07  1.9329E+07 -2.2255E+08  4.8818E+06 -4.3845E+07 -4.6630E+06    2.3900E+08    2.1705E-02



 e l e m e n t   s t r a i n   c a l c u l a t i o n s   f o r   t i m e  s t e p      206   ( at time  1.08379E+01 )

 element  strain       eps-xx      eps-yy      eps-zz      eps-xy      eps-yz      eps-zx                            yield
 num/ipt   state
      45-      1
      1            9.1660E-03  4.6827E-03 -1.6690E-02  1.9519E-03 -2.2546E-03 -2.9563E-03
      47-      1
      1            6.2389E-03  7.1362E-03 -1.5485E-02  3.1848E-03 -2.8334E-03 -2.8183E-03
      53-      1
      1            6.3903E-03  6.4338E-03 -1.5382E-02  3.1900E-03 -2.4314E-03 -2.6272E-03
      61-      1
      1            1.2533E-02  6.7724E-03 -2.0699E-02  1.9658E-03  2.2125E-04 -5.2365E-03
      67-      1
      1            5.3868E-03  9.3163E-03 -1.6472E-02  1.9751E-03 -4.1003E-03 -2.3854E-03
      79-      1
      1            1.1136E-03  8.3736E-04 -5.2856E-03  7.9808E-04 -4.8712E-04 -3.1415E-04
      81-      1
      1            6.1376E-03  1.1128E-02 -1.8416E-02  8.9727E-04 -6.3620E-03 -6.8530E-04



 e l e m e n t   s t r e s s   c a l c u l a t i o n s   f o r   t i m e  s t e p      213   ( at time 1.22987E+01 )

 element  materl
     ipt  stress       sig-xx      sig-yy      sig-zz      sig-xy      sig-yz      sig-zx                       yield
           state                                                                                  effsg      function
      45-      1
       1          -1.0937E+08 -1.4211E+08 -3.5664E+08  1.6073E+07 -1.8955E+07 -2.1478E+07    2.3949E+08    2.0834E-02
      47-      1
       1          -7.3515E+07 -5.9751E+07 -2.9723E+08  2.9163E+07 -2.4998E+07 -2.2626E+07    2.4348E+08    1.8687E-02
      53-      1
       1          -1.0260E+08 -9.4554E+07 -3.1903E+08  3.0605E+07 -2.0093E+07 -2.0321E+07    2.3218E+08    2.0443E-02
      61-      1
       1          -7.3417E+07 -1.0802E+08 -2.9979E+08  8.2264E+06 -6.8604E+06 -1.0569E+07    2.1281E+08    3.5771E-02
      67-      1
       1          -6.4510E+07 -2.5037E+07 -3.0117E+08  1.7286E+07 -3.8404E+07 -2.1575E+07    2.7134E+08    1.6318E-02
      79-      1
       1          -1.8322E+08 -1.9162E+08 -3.9754E+08  1.9536E+07 -1.2662E+07 -4.5651E+06    2.1423E+08    3.5003E-03
      81-      1
       1          -2.1035E+07  2.1576E+07 -2.4670E+08  5.4321E+06 -4.7355E+07 -5.0764E+06    2.6316E+08    2.5144E-02



 e l e m e n t   s t r a i n   c a l c u l a t i o n s   f o r   t i m e  s t e p      213   ( at time  1.22987E+01 )

 element  strain       eps-xx      eps-yy      eps-zz      eps-xy      eps-yz      eps-zx                            yield
 num/ipt   state
      45-      1
      1            1.0918E-02  5.7814E-03 -1.9645E-02  2.2070E-03 -2.5035E-03 -3.3591E-03
      47-      1
      1            7.5357E-03  8.6669E-03 -1.8293E-02  3.7241E-03 -3.1428E-03 -3.1025E-03
      53-      1
      1            7.6792E-03  7.9080E-03 -1.8081E-02  3.7999E-03 -2.6706E-03 -2.9111E-03
      61-      1
      1            1.4722E-02  7.8068E-03 -2.4098E-02  1.9307E-03  3.4314E-04 -5.8315E-03
      67-      1
      1            6.5105E-03  1.1103E-02 -1.9529E-02  2.2642E-03 -4.7410E-03 -2.7151E-03
      79-      1
      1            1.6797E-03  1.3603E-03 -6.6944E-03  9.0527E-04 -5.5997E-04 -3.7184E-04
      81-      1
      1            7.2699E-03  1.3159E-02 -2.1716E-02  1.0109E-03 -7.2765E-03 -7.8583E-04



 e l e m e n t   s t r e s s   c a l c u l a t i o n s   f o r   t i m e  s t e p      221   ( at time 1.46140E+01 )

 element  materl
     ipt  stress       sig-xx      sig-yy      sig-zz      sig-xy      sig-yz      sig-zx                       yield
           state                                                                                  effsg      function
      45-      1
       1          -1.0882E+08 -1.3807E+08 -3.7393E+08  1.6829E+07 -1.7763E+07 -2.1979E+07    2.5813E+08    2.7191E-02
      47-      1
       1          -5.6425E+07 -4.1045E+07 -2.9918E+08  2.7867E+07 -2.4438E+07 -2.1063E+07    2.6144E+08    2.4896E-02
      53-      1
       1          -9.2818E+07 -8.8187E+07 -3.3154E+08  2.9046E+07 -1.9238E+07 -1.9512E+07    2.5080E+08    2.6628E-02
      61-      1
       1          -7.4804E+07 -1.0917E+08 -3.1815E+08  3.0735E+06 -6.0118E+06 -1.5167E+07    2.2992E+08    4.2593E-02
      67-      1
       1          -5.3398E+07 -1.6774E+07 -3.0153E+08  1.6700E+07 -3.6237E+07 -2.0073E+07    2.7926E+08    2.2748E-02
      79-      1
       1          -2.1468E+08 -2.2060E+08 -4.5125E+08  1.5173E+07 -1.1170E+07 -5.6512E+06    2.3614E+08    6.4927E-03
      81-      1
       1          -8.5174E+06  3.0643E+07 -2.4985E+08  5.3178E+06 -4.6868E+07 -4.4785E+06    2.7561E+08    3.2412E-02



 e l e m e n t   s t r a i n   c a l c u l a t i o n s   f o r   t i m e  s t e p      221   ( at time  1.46140E+01 )

 element  strain       eps-xx      eps-yy      eps-zz      eps-xy      eps-yz      eps-zx                            yield
 num/ipt   state
      45-      1
      1            1.4260E-02  8.1762E-03 -2.5466E-02  2.7659E-03 -2.9306E-03 -4.0373E-03
      47-      1
      1            1.0179E-02  1.1818E-02 -2.3951E-02  4.6263E-03 -3.8088E-03 -3.6918E-03
      53-      1
      1            1.0390E-02  1.0663E-02 -2.3551E-02  4.7153E-03 -3.1041E-03 -3.4524E-03
      61-      1
      1            1.8980E-02  1.0321E-02 -3.0908E-02  1.7783E-03  4.1896E-04 -7.1312E-03
      67-      1
      1            9.0236E-03  1.4790E-02 -2.5667E-02  2.8326E-03 -5.8953E-03 -3.3421E-03
      79-      1
      1            2.9789E-03  2.5980E-03 -9.7763E-03  1.0816E-03 -7.0327E-04 -5.0539E-04
      81-      1
      1            9.9297E-03  1.7228E-02 -2.8393E-02  1.2224E-03 -8.9786E-03 -9.3213E-04



 e l e m e n t   s t r e s s   c a l c u l a t i o n s   f o r   t i m e  s t e p      228   ( at time 1.69293E+01 )

 element  materl
     ipt  stress       sig-xx      sig-yy      sig-zz      sig-xy      sig-yz      sig-zx                       yield
           state                                                                                  effsg      function
      45-      1
       1          -1.0698E+08 -1.3791E+08 -3.8992E+08  1.6397E+07 -1.5961E+07 -2.4837E+07    2.7510E+08    3.3355E-02
      47-      1
       1          -5.4959E+07 -3.7873E+07 -3.0833E+08  2.7084E+07 -2.3742E+07 -2.0092E+07    2.7188E+08    3.0728E-02
      53-      1
       1          -8.7740E+07 -8.3820E+07 -3.4569E+08  2.9189E+07 -1.8926E+07 -2.1179E+07    2.6934E+08    3.2494E-02
      61-      1
       1          -6.5161E+07 -1.0666E+08 -3.2487E+08  4.5358E+05 -3.4845E+06 -2.3735E+07    2.4519E+08    4.9187E-02
      67-      1
       1          -5.5186E+07 -2.0497E+07 -3.0978E+08  1.7023E+07 -3.4881E+07 -1.7949E+07    2.8344E+08    2.8712E-02
      79-      1
       1          -2.3562E+08 -2.3704E+08 -4.8526E+08  1.2211E+07 -9.8732E+06 -6.1246E+06    2.5064E+08    9.2843E-03
      81-      1
       1          -8.7426E+06  3.0443E+07 -2.6019E+08  5.2710E+06 -4.7769E+07 -3.9570E+06    2.8564E+08    3.9017E-02



 e l e m e n t   s t r a i n   c a l c u l a t i o n s   f o r   t i m e  s t e p      228   ( at time  1.69293E+01 )

 element  strain       eps-xx      eps-yy      eps-zz      eps-xy      eps-yz      eps-zx                            yield
 num/ipt   state
      45-      1
      1            1.7691E-02  1.0556E-02 -3.1368E-02  3.2666E-03 -3.3087E-03 -4.8441E-03
      47-      1
      1            1.2612E-02  1.4776E-02 -2.9385E-02  5.4423E-03 -4.4365E-03 -4.2394E-03
      53-      1
      1            1.3081E-02  1.3424E-02 -2.9047E-02  5.5991E-03 -3.5803E-03 -4.0991E-03
      61-      1
      1            2.3537E-02  1.2733E-02 -3.7818E-02  1.6169E-03  5.8401E-04 -8.6831E-03
      67-      1
      1            1.1329E-02  1.8121E-02 -3.1392E-02  3.3774E-03 -6.9221E-03 -3.8331E-03
      79-      1
      1            4.2062E-03  3.8814E-03 -1.2629E-02  1.2172E-03 -8.1569E-04 -6.1470E-04
      81-      1
      1            1.2346E-02  2.0979E-02 -3.4643E-02  1.4034E-03 -1.0534E-02 -1.0387E-03



 e l e m e n t   s t r e s s   c a l c u l a t i o n s   f o r   t i m e  s t e p      237   ( at time 2.05988E+01 )

 element  materl
     ipt  stress       sig-xx      sig-yy      sig-zz      sig-xy      sig-yz      sig-zx                       yield
           state                                                                                  effsg      function
      45-      1
       1          -1.1308E+08 -1.3695E+08 -4.0620E+08  1.1638E+07 -1.2019E+07 -2.2897E+07    2.8619E+08    4.4017E-02
      47-      1
       1          -4.6473E+07 -3.1503E+07 -3.1646E+08  2.1835E+07 -2.0627E+07 -1.6768E+07    2.8409E+08    4.0929E-02
      53-      1
       1          -8.7568E+07 -8.0641E+07 -3.6208E+08  2.3691E+07 -1.5664E+07 -1.9169E+07    2.8431E+08    4.2644E-02
      61-      1
       1          -6.7341E+07 -9.9617E+07 -3.3453E+08 -1.8565E+06 -1.5502E+06 -2.4982E+07    2.5631E+08    5.9704E-02
      67-      1
       1          -5.1811E+07 -2.4504E+07 -3.1943E+08  1.3800E+07 -2.9946E+07 -1.5013E+07    2.8915E+08    3.9110E-02
      79-      1
       1          -2.7820E+08 -2.7731E+08 -5.4307E+08  8.6365E+06 -9.0457E+06 -7.2513E+06    2.6649E+08    1.6067E-02
      81-      1
       1           3.1136E+06  3.4119E+07 -2.6556E+08  4.4191E+06 -4.0986E+07 -2.8062E+06    2.9427E+08    4.9936E-02



 e l e m e n t   s t r a i n   c a l c u l a t i o n s   f o r   t i m e  s t e p      237   ( at time  2.05988E+01 )

 element  strain       eps-xx      eps-yy      eps-zz      eps-xy      eps-yz      eps-zx                            yield
 num/ipt   state
      45-      1
      1            2.3381E-02  1.5013E-02 -4.1694E-02  3.7998E-03 -3.7218E-03 -5.9252E-03
      47-      1
      1            1.7134E-02  2.0013E-02 -3.9182E-02  6.5046E-03 -5.2965E-03 -4.9627E-03
      53-      1
      1            1.7723E-02  1.8447E-02 -3.8845E-02  6.7268E-03 -4.1673E-03 -4.9695E-03
      61-      1
      1            3.0307E-02  1.7285E-02 -4.9205E-02  1.3308E-03  8.1349E-04 -1.0600E-02
      67-      1
      1            1.5666E-02  2.3768E-02 -4.1500E-02  4.0722E-03 -8.3063E-03 -4.5188E-03
      79-      1
      1            7.2674E-03  7.0032E-03 -1.9508E-02  1.4759E-03 -1.1012E-03 -9.0644E-04
      81-      1
      1            1.6817E-02  2.7034E-02 -4.5204E-02  1.6357E-03 -1.2507E-02 -1.1384E-03



 e l e m e n t   s t r e s s   c a l c u l a t i o n s   f o r   t i m e  s t e p      247   ( at time 2.42683E+01 )

 element  materl
     ipt  stress       sig-xx      sig-yy      sig-zz      sig-xy      sig-yz      sig-zx                       yield
           state                                                                                  effsg      function
      45-      1
       1          -9.8759E+07 -1.2804E+08 -4.0373E+08  9.2523E+06 -1.2042E+07 -2.3443E+07    2.9542E+08    5.5151E-02
      47-      1
       1          -4.2801E+07 -2.7669E+07 -3.2353E+08  2.2887E+07 -2.0781E+07 -1.6767E+07    2.9495E+08    5.1509E-02
      53-      1
       1          -8.5557E+07 -7.8334E+07 -3.7154E+08  2.2165E+07 -1.5647E+07 -2.1195E+07    2.9574E+08    5.3323E-02
      61-      1
       1          -6.6348E+07 -1.0029E+08 -3.4140E+08  4.8181E+05 -2.2642E+06 -3.0346E+07    2.6504E+08    7.0601E-02
      67-      1
       1          -5.4017E+07 -2.5119E+07 -3.2754E+08  1.5717E+07 -2.8686E+07 -1.4160E+07    2.9558E+08    4.9802E-02
      79-      1
       1          -3.0633E+08 -3.0044E+08 -5.7919E+08  6.1746E+06 -8.4362E+06 -7.8342E+06    2.7678E+08    2.2479E-02
      81-      1
       1           1.2292E+06  3.7551E+07 -2.7299E+08  4.9148E+06 -3.9165E+07 -2.5939E+06    3.0195E+08    6.1027E-02



 e l e m e n t   s t r a i n   c a l c u l a t i o n s   f o r   t i m e  s t e p      247   ( at time  2.42683E+01 )

 element  strain       eps-xx      eps-yy      eps-zz      eps-xy      eps-yz      eps-zx                            yield
 num/ipt   state
      45-      1
      1            2.9693E-02  1.9536E-02 -5.2490E-02  4.2679E-03 -4.2423E-03 -7.1133E-03
      47-      1
      1            2.1856E-02  2.5528E-02 -4.9495E-02  7.7545E-03 -6.2913E-03 -5.7679E-03
      53-      1
      1            2.2703E-02  2.3805E-02 -4.9288E-02  7.8869E-03 -4.8945E-03 -6.0536E-03
      61-      1
      1            3.7490E-02  2.1866E-02 -6.1221E-02  1.3061E-03  7.9222E-04 -1.2546E-02
      67-      1
      1            2.0017E-02  2.9698E-02 -5.1913E-02  4.9736E-03 -9.6926E-03 -5.1994E-03
      79-      1
      1            1.0153E-02  1.0173E-02 -2.6004E-02  1.6474E-03 -1.3507E-03 -1.1793E-03
      81-      1
      1            2.1106E-02  3.3455E-02 -5.6029E-02  1.9183E-03 -1.4441E-02 -1.2375E-03



 e l e m e n t   s t r e s s   c a l c u l a t i o n s   f o r   t i m e  s t e p      257   ( at time 2.79378E+01 )

 element  materl
     ipt  stress       sig-xx      sig-yy      sig-zz      sig-xy      sig-yz      sig-zx                       yield
           state                                                                                  effsg      function
      45-      1
       1          -2.5788E+07 -6.2710E+07 -3.3915E+08  1.3255E+07 -1.3324E+07 -2.8512E+07    3.0247E+08    6.7508E-02
      47-      1
       1          -3.5167E+07 -1.9866E+07 -3.2331E+08  2.2762E+07 -2.1132E+07 -1.5592E+07    3.0215E+08    6.2119E-02
      53-      1
       1          -8.2589E+07 -7.6487E+07 -3.7618E+08  2.2158E+07 -1.5707E+07 -2.2925E+07    3.0301E+08    6.4499E-02
      61-      1
       1          -4.2951E+07 -8.0794E+07 -3.2568E+08  5.5074E+05 -5.4283E+05 -2.7732E+07    2.7014E+08    8.1508E-02
      67-      1
       1          -5.6016E+07 -2.6362E+07 -3.3495E+08  1.5500E+07 -2.6871E+07 -1.2463E+07    3.0051E+08    6.0512E-02
      79-      1
       1          -3.2207E+08 -3.1797E+08 -6.0373E+08  4.4167E+06 -7.6511E+06 -7.4580E+06    2.8444E+08    2.8944E-02
      81-      1
       1          -1.6147E+06  3.5961E+07 -2.8125E+08  4.8389E+06 -3.5454E+07 -1.9325E+06    3.0654E+08    7.2077E-02



 e l e m e n t   s t r a i n   c a l c u l a t i o n s   f o r   t i m e  s t e p      257   ( at time  2.79378E+01 )

 element  strain       eps-xx      eps-yy      eps-zz      eps-xy      eps-yz      eps-zx                            yield
 num/ipt   state
      45-      1
      1            3.7126E-02  2.4574E-02 -6.4102E-02  5.1274E-03 -5.0082E-03 -8.8461E-03
      47-      1
      1            2.6638E-02  3.1118E-02 -5.9873E-02  8.9539E-03 -7.3119E-03 -6.4911E-03
      53-      1
      1            2.7969E-02  2.9397E-02 -6.0233E-02  9.1157E-03 -5.6153E-03 -7.2731E-03
      61-      1
      1            4.4999E-02  2.6521E-02 -7.3196E-02  1.2896E-03  8.3066E-04 -1.4079E-02
      67-      1
      1            2.4387E-02  3.5653E-02 -6.2368E-02  5.8072E-03 -1.0952E-02 -5.7680E-03
      79-      1
      1            1.3227E-02  1.3345E-02 -3.2555E-02  1.7699E-03 -1.5717E-03 -1.4156E-03
      81-      1
      1            2.5401E-02  3.9841E-02 -6.6856E-02  2.1791E-03 -1.6084E-02 -1.2890E-03



 e l e m e n t   s t r e s s   c a l c u l a t i o n s   f o r   t i m e  s t e p      266   ( at time 3.16073E+01 )

 element  materl
     ipt  stress       sig-xx      sig-yy      sig-zz      sig-xy      sig-yz      sig-zx                       yield
           state                                                                                  effsg      function
      45-      1
       1          -1.1503E+08 -1.4048E+08 -3.5206E+08  8.1357E+06 -8.5365E+06 -2.4418E+07    2.3022E+08    7.6690E-02
      47-      1
       1          -5.7225E+07 -4.9197E+07 -3.1384E+08  2.3870E+07 -2.3295E+07 -1.5039E+07    2.6831E+08    7.1185E-02
      53-      1
       1          -5.2751E+07 -5.0748E+07 -3.4840E+08  2.9833E+07 -1.8206E+07 -2.7572E+07    3.0651E+08    7.5532E-02
      61-      1
       1          -4.3017E+07 -7.6761E+07 -3.2847E+08  1.0368E+06  1.6586E+06 -2.7195E+07    2.7427E+08    9.2527E-02
      67-      1
       1          -8.9689E+07 -7.0751E+07 -3.4128E+08  1.8214E+07 -2.4027E+07 -8.4730E+06    2.6714E+08    6.9862E-02
      79-      1
       1          -3.2934E+08 -3.2693E+08 -6.1720E+08  3.7545E+06 -6.9501E+06 -6.8480E+06    2.8964E+08    3.5439E-02
      81-      1
       1           5.4896E+06  4.1006E+07 -2.8091E+08  5.4197E+06 -3.3691E+07  2.1215E+05    3.1137E+08    8.3142E-02



 e l e m e n t   s t r a i n   c a l c u l a t i o n s   f o r   t i m e  s t e p      266   ( at time  3.16073E+01 )

 element  strain       eps-xx      eps-yy      eps-zz      eps-xy      eps-yz      eps-zx                            yield
 num/ipt   state
      45-      1
      1            4.4660E-02  3.0063E-02 -7.5756E-02  6.1951E-03 -5.8336E-03 -1.0746E-02
      47-      1
      1            3.1184E-02  3.6851E-02 -6.9702E-02  1.0280E-02 -8.5385E-03 -7.3081E-03
      53-      1
      1            3.3362E-02  3.4732E-02 -7.0652E-02  1.0858E-02 -6.5518E-03 -8.8198E-03
      61-      1
      1            5.2200E-02  3.1427E-02 -8.5387E-02  1.3535E-03  9.1128E-04 -1.5630E-02
      67-      1
      1            2.8901E-02  4.1551E-02 -7.2596E-02  6.7521E-03 -1.2307E-02 -6.2450E-03
      79-      1
      1            1.6389E-02  1.6550E-02 -3.9091E-02  1.8885E-03 -1.7712E-03 -1.6233E-03
      81-      1
      1            2.9870E-02  4.6185E-02 -7.7697E-02  2.4879E-03 -1.7705E-02 -1.2058E-03



 e l e m e n t   s t r e s s   c a l c u l a t i o n s   f o r   t i m e  s t e p      277   ( at time 3.52768E+01 )

 element  materl
     ipt  stress       sig-xx      sig-yy      sig-zz      sig-xy      sig-yz      sig-zx                       yield
           state                                                                                  effsg      function
      45-      1
       1          -1.2997E+08 -1.4913E+08 -3.6060E+08  4.2104E+06 -1.5098E+07 -2.9921E+07    2.2926E+08    8.5436E-02
      47-      1
       1          -1.7526E+07 -1.4749E+07 -2.7536E+08  2.3149E+07 -3.0975E+07 -2.0740E+07    2.7015E+08    8.1985E-02
      53-      1
       1          -5.9972E+07 -5.8241E+07 -3.1102E+08  2.2612E+07 -2.7368E+07 -3.5380E+07    2.6646E+08    8.7177E-02
      61-      1
       1          -4.9191E+07 -7.2387E+07 -3.2929E+08  2.1236E+06  6.7824E+06 -2.8869E+07    2.7414E+08    1.0324E-01
      67-      1
       1          -1.0050E+08 -7.9684E+07 -3.5586E+08  1.5345E+07 -2.6776E+07 -7.5857E+06    2.7200E+08    7.9601E-02
      79-      1
       1          -3.2930E+08 -3.3598E+08 -6.2667E+08  2.9997E+06 -7.1367E+06 -6.9937E+06    2.9465E+08    4.3004E-02
      81-      1
       1           5.7634E+06  4.1429E+07 -2.8594E+08  5.8421E+06 -3.0723E+07  1.1691E+06    3.1576E+08    9.4776E-02



 e l e m e n t   s t r a i n   c a l c u l a t i o n s   f o r   t i m e  s t e p      277   ( at time  3.52768E+01 )

 element  strain       eps-xx      eps-yy      eps-zz      eps-xy      eps-yz      eps-zx                            yield
 num/ipt   state
      45-      1
      1            5.0760E-02  3.5668E-02 -8.7033E-02  7.4835E-03 -6.7699E-03 -1.2526E-02
      47-      1
      1            3.6924E-02  4.3551E-02 -8.1195E-02  1.1907E-02 -1.0104E-02 -8.6156E-03
      53-      1
      1            3.9645E-02  4.1547E-02 -8.2556E-02  1.2877E-02 -7.8989E-03 -1.0942E-02
      61-      1
      1            5.8702E-02  3.6531E-02 -9.7037E-02  1.5184E-03  1.1332E-03 -1.7145E-02
      67-      1
      1            3.3535E-02  4.7698E-02 -8.3561E-02  7.5494E-03 -1.3514E-02 -6.7037E-03
      79-      1
      1            2.0340E-02  2.0069E-02 -4.6689E-02  1.9958E-03 -2.0216E-03 -1.8775E-03
      81-      1
      1            3.4547E-02  5.2878E-02 -8.9184E-02  2.8292E-03 -1.9139E-02 -1.0801E-03



 e l e m e n t   s t r e s s   c a l c u l a t i o n s   f o r   t i m e  s t e p      287   ( at time 3.89463E+01 )

 element  materl
     ipt  stress       sig-xx      sig-yy      sig-zz      sig-xy      sig-yz      sig-zx                       yield
           state                                                                                  effsg      function
      45-      1
       1          -1.4202E+08 -1.6410E+08 -3.8053E+08  7.5477E+06 -1.6622E+07 -2.9391E+07    2.3601E+08    9.4383E-02
      47-      1
       1          -7.2078E+07 -6.7928E+07 -2.9210E+08  2.2728E+07 -3.2443E+07 -1.9178E+07    2.3484E+08    9.1324E-02
      53-      1
       1          -6.8762E+07 -6.5141E+07 -3.2697E+08  2.5267E+07 -2.5299E+07 -3.2807E+07    2.7328E+08    9.7828E-02
      61-      1
       1          -4.8742E+07 -8.0048E+07 -3.3874E+08 -9.6818E+03  5.0510E+06 -3.0725E+07    2.8091E+08    1.1433E-01
      67-      1
       1          -7.0574E+07 -5.1063E+07 -3.2382E+08  2.2577E+07 -3.4336E+07 -1.4622E+07    2.7416E+08    9.0471E-02
      79-      1
       1          -3.1837E+08 -3.3878E+08 -6.2602E+08  2.5806E+06 -5.3329E+06 -5.0324E+06    2.9827E+08    4.9587E-02
      81-      1
       1          -5.0075E+07 -1.0760E+07 -3.0396E+08  4.3157E+06 -3.0007E+07 -1.5958E+06    2.8062E+08    1.0500E-01



 e l e m e n t   s t r a i n   c a l c u l a t i o n s   f o r   t i m e  s t e p      287   ( at time  3.89463E+01 )

 element  strain       eps-xx      eps-yy      eps-zz      eps-xy      eps-yz      eps-zx                            yield
 num/ipt   state
      45-      1
      1            5.7219E-02  4.1051E-02 -9.8795E-02  8.8141E-03 -7.6080E-03 -1.4201E-02
      47-      1
      1            4.2350E-02  5.0401E-02 -9.2742E-02  1.3871E-02 -1.1743E-02 -9.8613E-03
      53-      1
      1            4.5212E-02  4.7578E-02 -9.4104E-02  1.4859E-02 -8.9503E-03 -1.2621E-02
      61-      1
      1            6.5975E-02  4.1450E-02 -1.0940E-01  1.6169E-03  1.2405E-03 -1.8776E-02
      67-      1
      1            3.8805E-02  5.4915E-02 -9.5101E-02  9.3263E-03 -1.5459E-02 -7.7774E-03
      79-      1
      1            2.4094E-02  2.2887E-02 -5.3251E-02  2.0760E-03 -2.1470E-03 -1.9836E-03
      81-      1
      1            3.8792E-02  6.0012E-02 -1.0069E-01  3.1319E-03 -2.0754E-02 -1.0908E-03



 e l e m e n t   s t r e s s   c a l c u l a t i o n s   f o r   t i m e  s t e p      297   ( at time 4.26158E+01 )

 element  materl
     ipt  stress       sig-xx      sig-yy      sig-zz      sig-xy      sig-yz      sig-zx                       yield
           state                                                                                  effsg      function
      45-      1
       1          -1.4453E+08 -1.6494E+08 -3.8637E+08  8.1625E+06 -1.5241E+07 -2.8333E+07    2.3932E+08    1.0364E-01
      47-      1
       1          -8.0572E+07 -7.7508E+07 -3.0653E+08  2.2802E+07 -2.9327E+07 -1.6995E+07    2.3826E+08    1.0033E-01
      53-      1
       1          -7.0068E+07 -6.2774E+07 -3.3241E+08  2.4547E+07 -2.3972E+07 -2.9344E+07    2.7732E+08    1.0863E-01
      61-      1
       1          -4.4621E+07 -7.8077E+07 -3.3871E+08 -2.5497E+06  3.3638E+06 -3.0543E+07    2.8393E+08    1.2570E-01
      67-      1
       1          -7.1119E+07 -5.0110E+07 -3.2917E+08  2.0094E+07 -2.9382E+07 -1.3804E+07    2.7718E+08    1.0072E-01
      79-      1
       1          -2.9620E+08 -3.1768E+08 -6.0640E+08  2.7775E+06 -3.2479E+06 -3.6115E+06    3.0020E+08    5.6152E-02
      81-      1
       1          -5.7845E+07 -2.1292E+07 -3.1571E+08  3.9043E+06 -2.8625E+07 -2.0369E+06    2.8244E+08    1.1540E-01



 e l e m e n t   s t r a i n   c a l c u l a t i o n s   f o r   t i m e  s t e p      297   ( at time  4.26158E+01 )

 element  strain       eps-xx      eps-yy      eps-zz      eps-xy      eps-yz      eps-zx                            yield
 num/ipt   state
      45-      1
      1            6.3693E-02  4.6771E-02 -1.1085E-01  9.9755E-03 -8.4518E-03 -1.5929E-02
      47-      1
      1            4.7635E-02  5.6837E-02 -1.0405E-01  1.5499E-02 -1.3124E-02 -1.0857E-02
      53-      1
      1            5.0717E-02  5.3937E-02 -1.0582E-01  1.6666E-02 -1.0009E-02 -1.4167E-02
      61-      1
      1            7.3466E-02  4.6527E-02 -1.2195E-01  1.5223E-03  1.2026E-03 -2.0327E-02
      67-      1
      1            4.3658E-02  6.1440E-02 -1.0633E-01  1.0510E-02 -1.6871E-02 -8.5417E-03
      79-      1
      1            2.7795E-02  2.5868E-02 -5.9668E-02  2.1707E-03 -2.2176E-03 -2.0799E-03
      81-      1
      1            4.3341E-02  6.6976E-02 -1.1237E-01  3.4135E-03 -2.2172E-02 -1.0594E-03



 e l e m e n t   s t r e s s   c a l c u l a t i o n s   f o r   t i m e  s t e p      307   ( at time 4.62853E+01 )

 element  materl
     ipt  stress       sig-xx      sig-yy      sig-zz      sig-xy      sig-yz      sig-zx                       yield
           state                                                                                  effsg      function
      45-      1
       1          -1.4377E+08 -1.6055E+08 -3.8546E+08  7.8692E+06 -1.4936E+07 -2.8823E+07    2.4080E+08    1.1286E-01
      47-      1
       1          -1.3945E+08 -1.3820E+08 -3.2858E+08  1.4996E+07 -2.6254E+07 -1.6774E+07    1.9898E+08    1.0824E-01
      53-      1
       1          -1.0977E+08 -9.8942E+07 -3.3281E+08  1.8589E+07 -2.1674E+07 -2.5868E+07    2.3818E+08    1.1826E-01
      61-      1
       1          -3.8790E+07 -6.7994E+07 -3.3341E+08 -1.6395E+06  3.7724E+06 -3.1542E+07    2.8650E+08    1.3724E-01
      67-      1
       1          -1.2180E+08 -1.1261E+08 -3.4845E+08  1.3253E+07 -2.3712E+07 -1.2675E+07    2.3713E+08    1.0953E-01
      79-      1
       1          -2.7651E+08 -2.9765E+08 -5.9019E+08  3.2471E+06 -3.2939E+06 -2.7944E+06    3.0381E+08    6.3336E-02
      81-      1
       1          -6.9941E+07 -3.8529E+07 -3.3338E+08  3.4707E+05 -2.9424E+07 -4.0043E+05    2.8506E+08    1.2564E-01



 e l e m e n t   s t r a i n   c a l c u l a t i o n s   f o r   t i m e  s t e p      307   ( at time  4.62853E+01 )

 element  strain       eps-xx      eps-yy      eps-zz      eps-xy      eps-yz      eps-zx                            yield
 num/ipt   state
      45-      1
      1            6.9882E-02  5.2573E-02 -1.2278E-01  1.1077E-02 -9.1502E-03 -1.7526E-02
      47-      1
      1            5.3738E-02  6.4244E-02 -1.1603E-01  1.7632E-02 -1.4921E-02 -1.2225E-02
      53-      1
      1            5.6699E-02  6.0591E-02 -1.1794E-01  1.8330E-02 -1.1155E-02 -1.5624E-02
      61-      1
      1            8.0797E-02  5.1912E-02 -1.3466E-01  1.5731E-03  1.1340E-03 -2.2020E-02
      67-      1
      1            4.9407E-02  6.8277E-02 -1.1776E-01  1.2147E-02 -1.8656E-02 -9.6650E-03
      79-      1
      1            3.1814E-02  2.9152E-02 -6.6745E-02  2.2943E-03 -2.3449E-03 -2.1927E-03
      81-      1
      1            4.8017E-02  7.3671E-02 -1.2401E-01  3.4434E-03 -2.3461E-02 -8.8637E-04



 e l e m e n t   s t r e s s   c a l c u l a t i o n s   f o r   t i m e  s t e p      317   ( at time 4.99548E+01 )

 element  materl
     ipt  stress       sig-xx      sig-yy      sig-zz      sig-xy      sig-yz      sig-zx                       yield
           state                                                                                  effsg      function
      45-      1
       1          -2.4334E+08 -2.6366E+08 -4.1047E+08  3.2859E+06 -1.1598E+07 -2.2946E+07    1.6421E+08    1.1935E-01
      47-      1
       1          -2.2263E+08 -2.2238E+08 -3.7448E+08  8.3885E+06 -2.4409E+07 -1.5613E+07    1.6071E+08    1.1454E-01
      53-      1
       1          -1.9340E+08 -1.9127E+08 -3.8348E+08  1.4194E+07 -2.8542E+07 -2.3125E+07    2.0296E+08    1.2617E-01
      61-      1
       1          -8.2324E+07 -1.1108E+08 -3.3885E+08  2.7696E+06  3.3309E+05 -2.8406E+07    2.4839E+08    1.4718E-01
      67-      1
       1          -1.3976E+08 -1.2024E+08 -3.6333E+08  1.2675E+07 -2.8291E+07 -1.4670E+07    2.4137E+08    1.1890E-01
      79-      1
       1          -2.7179E+08 -2.9092E+08 -5.8847E+08  1.7237E+06 -1.7919E+06 -1.7609E+06    3.0760E+08    7.0689E-02
      81-      1
       1          -2.4275E+07  1.6847E+07 -2.8038E+08 -2.5151E+04 -4.1012E+07 -4.5053E+06    2.8796E+08    1.3821E-01



 e l e m e n t   s t r a i n   c a l c u l a t i o n s   f o r   t i m e  s t e p      317   ( at time  4.99548E+01 )

 element  strain       eps-xx      eps-yy      eps-zz      eps-xy      eps-yz      eps-zx                            yield
 num/ipt   state
      45-      1
      1            7.6893E-02  5.8091E-02 -1.3477E-01  1.2346E-02 -9.7474E-03 -1.9372E-02
      47-      1
      1            6.0682E-02  7.1167E-02 -1.2828E-01  1.9956E-02 -1.6832E-02 -1.3983E-02
      53-      1
      1            6.3316E-02  6.7269E-02 -1.3013E-01  2.0689E-02 -1.2802E-02 -1.7388E-02
      61-      1
      1            8.8543E-02  5.6931E-02 -1.4701E-01  1.8732E-03  8.4060E-04 -2.3817E-02
      67-      1
      1            5.4376E-02  7.5440E-02 -1.2984E-01  1.3258E-02 -2.0421E-02 -1.0632E-02
      79-      1
      1            3.5817E-02  3.2514E-02 -7.4088E-02  2.3274E-03 -2.3751E-03 -2.2510E-03
      81-      1
      1            5.3376E-02  8.2498E-02 -1.3764E-01  3.5578E-03 -2.5735E-02 -8.5101E-04



 e l e m e n t   s t r e s s   c a l c u l a t i o n s   f o r   t i m e  s t e p      328   ( at time 5.36243E+01 )

 element  materl
     ipt  stress       sig-xx      sig-yy      sig-zz      sig-xy      sig-yz      sig-zx                       yield
           state                                                                                  effsg      function
      45-      1
       1          -2.5561E+08 -2.7588E+08 -4.2412E+08  4.0456E+06 -1.2580E+07 -2.3412E+07    1.6601E+08    1.2573E-01
      47-      1
       1          -2.5058E+08 -2.4934E+08 -4.0454E+08  8.3628E+06 -2.2768E+07 -1.6750E+07    1.6279E+08    1.2048E-01
      53-      1
       1          -2.0175E+08 -2.0427E+08 -3.9727E+08  1.4016E+07 -2.5926E+07 -2.4355E+07    2.0525E+08    1.3386E-01
      61-      1
       1          -9.3143E+07 -1.2052E+08 -3.5349E+08  2.9170E+06 -1.4630E+06 -2.8853E+07    2.5285E+08    1.5706E-01
      67-      1
       1          -1.9606E+08 -1.8249E+08 -3.8555E+08  9.1257E+06 -2.9722E+07 -1.3378E+07    2.0518E+08    1.2651E-01
      79-      1
       1          -2.6875E+08 -2.8833E+08 -5.8764E+08  2.1077E+06 -1.0154E+06 -2.1326E+06    3.0961E+08    7.8400E-02
      81-      1
       1          -5.9362E+07 -2.0721E+07 -2.7867E+08  2.2848E+06 -3.9426E+07 -2.7330E+06    2.5053E+08    1.4859E-01



 e l e m e n t   s t r a i n   c a l c u l a t i o n s   f o r   t i m e  s t e p      328   ( at time  5.36243E+01 )

 element  strain       eps-xx      eps-yy      eps-zz      eps-xy      eps-yz      eps-zx                            yield
 num/ipt   state
      45-      1
      1            8.3483E-02  6.3485E-02 -1.4672E-01  1.3442E-02 -1.0330E-02 -2.0953E-02
      47-      1
      1            6.6606E-02  7.7388E-02 -1.3982E-01  2.1496E-02 -1.8721E-02 -1.5631E-02
      53-      1
      1            6.9383E-02  7.3356E-02 -1.4182E-01  2.2431E-02 -1.4245E-02 -1.9002E-02
      61-      1
      1            9.5846E-02  6.2093E-02 -1.5964E-01  2.2008E-03  5.1184E-04 -2.5386E-02
      67-      1
      1            5.9226E-02  8.2478E-02 -1.4142E-01  1.3892E-02 -2.2405E-02 -1.1481E-02
      79-      1
      1            4.0008E-02  3.5970E-02 -8.1748E-02  2.4130E-03 -2.4030E-03 -2.3281E-03
      81-      1
      1            5.8288E-02  9.1177E-02 -1.5054E-01  3.4962E-03 -2.7818E-02 -6.9814E-04



 e l e m e n t   s t r e s s   c a l c u l a t i o n s   f o r   t i m e  s t e p      339   ( at time 5.72938E+01 )

 element  materl
     ipt  stress       sig-xx      sig-yy      sig-zz      sig-xy      sig-yz      sig-zx                       yield
           state                                                                                  effsg      function
      45-      1
       1          -2.5669E+08 -2.7493E+08 -4.2701E+08  4.2530E+06 -1.1129E+07 -2.2097E+07    1.6771E+08    1.3218E-01
      47-      1
       1          -2.6817E+08 -2.6648E+08 -4.2498E+08  9.9599E+06 -2.0534E+07 -1.7039E+07    1.6520E+08    1.2665E-01
      53-      1
       1          -2.1527E+08 -2.2130E+08 -4.1531E+08  1.5119E+07 -2.4348E+07 -2.5243E+07    2.0789E+08    1.4156E-01
      61-      1
       1          -1.0064E+08 -1.2660E+08 -3.6312E+08  3.8074E+06 -1.3945E+06 -2.7043E+07    2.5495E+08    1.6711E-01
      67-      1
       1          -1.9080E+08 -1.8061E+08 -3.8662E+08  1.0643E+07 -2.4949E+07 -1.1593E+07    2.0750E+08    1.3436E-01
      79-      1
       1          -2.6766E+08 -2.8669E+08 -5.8927E+08  1.7397E+06 -9.0144E+05 -1.7482E+06    3.1256E+08    8.6278E-02
      81-      1
       1          -1.2380E+08 -9.6054E+07 -3.1219E+08  4.8735E+05 -3.2145E+07 -2.1359E+06    2.1119E+08    1.5701E-01



 e l e m e n t   s t r a i n   c a l c u l a t i o n s   f o r   t i m e  s t e p      339   ( at time  5.72938E+01 )

 element  strain       eps-xx      eps-yy      eps-zz      eps-xy      eps-yz      eps-zx                            yield
 num/ipt   state
      45-      1
      1            9.0149E-02  6.9117E-02 -1.5876E-01  1.4618E-02 -1.0765E-02 -2.2291E-02
      47-      1
      1            7.2701E-02  8.3892E-02 -1.5182E-01  2.3054E-02 -2.0597E-02 -1.6925E-02
      53-      1
      1            7.5626E-02  7.9403E-02 -1.5378E-01  2.4208E-02 -1.5487E-02 -2.0231E-02
      61-      1
      1            1.0320E-01  6.7465E-02 -1.7249E-01  2.6449E-03  2.8575E-04 -2.6871E-02
      67-      1
      1            6.4610E-02  8.9312E-02 -1.5336E-01  1.4795E-02 -2.4355E-02 -1.2223E-02
      79-      1
      1            4.4265E-02  3.9524E-02 -8.9599E-02  2.4714E-03 -2.4483E-03 -2.3908E-03
      81-      1
      1            6.3361E-02  9.9250E-02 -1.6344E-01  3.3875E-03 -2.9684E-02 -5.4511E-04



 e l e m e n t   s t r e s s   c a l c u l a t i o n s   f o r   t i m e  s t e p      350   ( at time 6.09633E+01 )

 element  materl
     ipt  stress       sig-xx      sig-yy      sig-zz      sig-xy      sig-yz      sig-zx                       yield
           state                                                                                  effsg      function
      45-      1
       1          -2.0269E+08 -2.3518E+08 -3.8234E+08  4.5814E+06 -8.4097E+06 -1.7520E+07    1.6938E+08    1.3920E-01
      47-      1
       1          -2.2998E+08 -2.3635E+08 -3.9228E+08  1.4118E+07 -1.6715E+07 -1.4720E+07    1.6564E+08    1.3316E-01
      53-      1
       1          -1.8815E+08 -1.9100E+08 -3.8842E+08  1.8546E+07 -2.0458E+07 -2.4156E+07    2.0877E+08    1.4929E-01
      61-      1
       1          -7.3261E+07 -9.2554E+07 -3.3578E+08  8.5647E+06 -9.2134E+06 -2.6496E+07    2.5847E+08    1.7793E-01
      67-      1
       1          -1.9777E+08 -1.8731E+08 -3.9518E+08  1.0227E+07 -2.3830E+07 -1.1910E+07    2.0878E+08    1.4246E-01
      79-      1
       1          -2.6300E+08 -2.8566E+08 -5.8850E+08  1.3912E+06 -1.6257E+06  3.2279E+05    3.1480E+08    9.4552E-02
      81-      1
       1          -1.3159E+08 -1.0573E+08 -3.2416E+08  1.1072E+06 -3.0703E+07 -1.1570E+06    2.1347E+08    1.6541E-01



 e l e m e n t   s t r a i n   c a l c u l a t i o n s   f o r   t i m e  s t e p      350   ( at time  6.09633E+01 )

 element  strain       eps-xx      eps-yy      eps-zz      eps-xy      eps-yz      eps-zx                            yield
 num/ipt   state
      45-      1
      1            9.8217E-02  7.4516E-02 -1.7130E-01  1.6183E-02 -1.0932E-02 -2.3884E-02
      47-      1
      1            7.8943E-02  9.0211E-02 -1.6389E-01  2.4644E-02 -2.2336E-02 -1.8186E-02
      53-      1
      1            8.1796E-02  8.5409E-02 -1.6544E-01  2.5885E-02 -1.6818E-02 -2.1432E-02
      61-      1
      1            1.1111E-01  7.3636E-02 -1.8607E-01  3.5323E-03 -6.1627E-04 -2.8473E-02
      67-      1
      1            7.0305E-02  9.6188E-02 -1.6573E-01  1.5738E-02 -2.6278E-02 -1.3046E-02
      79-      1
      1            4.8834E-02  4.3142E-02 -9.7805E-02  2.5191E-03 -2.4955E-03 -2.3480E-03
      81-      1
      1            6.8541E-02  1.0712E-01 -1.7632E-01  3.3630E-03 -3.1396E-02 -4.4500E-04



 e l e m e n t   s t r e s s   c a l c u l a t i o n s   f o r   t i m e  s t e p      362   ( at time 6.46328E+01 )

 element  materl
     ipt  stress       sig-xx      sig-yy      sig-zz      sig-xy      sig-yz      sig-zx                       yield
           state                                                                                  effsg      function
      45-      1
       1          -1.6863E+08 -1.9744E+08 -3.4793E+08  4.3203E+06 -7.4371E+06 -1.7785E+07    1.7025E+08    1.4694E-01
      47-      1
       1          -1.8630E+08 -1.9595E+08 -3.5055E+08  1.7584E+07 -1.5107E+07 -1.9583E+07    1.6808E+08    1.4030E-01
      53-      1
       1          -1.3271E+08 -1.4023E+08 -3.3625E+08  2.0425E+07 -2.4767E+07 -2.7180E+07    2.1275E+08    1.5874E-01
      61-      1
       1          -8.5255E+07 -1.0729E+08 -3.5411E+08  5.3288E+06 -7.2618E+06 -2.1336E+07    2.6164E+08    1.8808E-01
      67-      1
       1          -1.8123E+08 -1.7747E+08 -3.8506E+08  1.0117E+07 -1.9890E+07 -1.3494E+07    2.1063E+08    1.5062E-01
      79-      1
       1          -2.4825E+08 -2.7258E+08 -5.7618E+08  1.6754E+06 -1.0903E+06 -7.4818E+05    3.1649E+08    1.0344E-01
      81-      1
       1          -1.3399E+08 -1.1498E+08 -3.3228E+08  1.4140E+06 -2.9943E+07 -1.0596E+06    2.1482E+08    1.7381E-01



 e l e m e n t   s t r a i n   c a l c u l a t i o n s   f o r   t i m e  s t e p      362   ( at time  6.46328E+01 )

 element  strain       eps-xx      eps-yy      eps-zz      eps-xy      eps-yz      eps-zx                            yield
 num/ipt   state
      45-      1
      1            1.0681E-01  8.1152E-02 -1.8513E-01  1.7607E-02 -1.1656E-02 -2.5569E-02
      47-      1
      1            8.6601E-02  9.6829E-02 -1.7706E-01  2.7361E-02 -2.3959E-02 -1.9623E-02
      53-      1
      1            9.0482E-02  9.2972E-02 -1.7949E-01  2.8644E-02 -1.8576E-02 -2.2807E-02
      61-      1
      1            1.1856E-01  7.9273E-02 -1.9906E-01  4.0450E-03 -1.3344E-03 -2.9884E-02
      67-      1
      1            7.6333E-02  1.0278E-01 -1.7814E-01  1.6486E-02 -2.7956E-02 -1.3766E-02
      79-      1
      1            5.3779E-02  4.7045E-02 -1.0652E-01  2.5937E-03 -2.5501E-03 -2.4044E-03
      81-      1
      1            7.4207E-02  1.1457E-01 -1.8919E-01  3.3514E-03 -3.2973E-02 -3.4785E-04



 e l e m e n t   s t r e s s   c a l c u l a t i o n s   f o r   t i m e  s t e p      375   ( at time 6.83023E+01 )

 element  materl
     ipt  stress       sig-xx      sig-yy      sig-zz      sig-xy      sig-yz      sig-zx                       yield
           state                                                                                  effsg      function
      45-      1
       1          -1.5645E+08 -1.8946E+08 -3.3129E+08  1.1261E+07 -1.3380E+07 -2.5923E+07    1.6976E+08    1.5591E-01
      47-      1
       1          -1.2462E+08 -1.3803E+08 -2.9254E+08  1.6319E+07 -2.1105E+06 -2.2090E+07    1.6853E+08    1.4988E-01
      53-      1
       1          -1.3383E+08 -1.2644E+08 -2.9039E+08  1.5843E+07 -2.5438E+07 -2.0223E+07    1.7218E+08    1.6734E-01
      61-      1
       1          -1.1072E+08 -1.2563E+08 -3.2240E+08  1.2307E+06 -1.2289E+07 -3.2558E+07    2.1334E+08    1.9969E-01
      67-      1
       1          -2.0429E+08 -2.0141E+08 -3.6943E+08  6.7815E+06 -1.0388E+07 -1.5162E+07    1.7002E+08    1.5844E-01
      79-      1
       1          -1.9206E+08 -2.2219E+08 -5.2478E+08 -3.6976E+06  3.2001E+05 -6.7285E+05    3.1879E+08    1.1482E-01
      81-      1
       1          -1.4264E+08 -1.2883E+08 -3.4519E+08  3.8577E+06 -3.0114E+07 -1.2836E+06    2.1630E+08    1.8325E-01



 e l e m e n t   s t r a i n   c a l c u l a t i o n s   f o r   t i m e  s t e p      375   ( at time  6.83023E+01 )

 element  strain       eps-xx      eps-yy      eps-zz      eps-xy      eps-yz      eps-zx                            yield
 num/ipt   state
      45-      1
      1            1.1855E-01  8.6960E-02 -2.0079E-01  1.9500E-02 -1.2781E-02 -2.8008E-02
      47-      1
      1            9.7310E-02  1.0510E-01 -1.9385E-01  3.0485E-02 -2.5237E-02 -2.1455E-02
      53-      1
      1            1.0015E-01  1.0207E-01 -1.9554E-01  3.1743E-02 -2.1476E-02 -2.3976E-02
      61-      1
      1            1.2858E-01  8.6501E-02 -2.1525E-01  4.2729E-03 -2.3002E-03 -3.1864E-02
      67-      1
      1            8.4237E-02  1.1084E-01 -1.9317E-01  1.7429E-02 -2.9369E-02 -1.4359E-02
      79-      1
      1            6.0428E-02  5.1994E-02 -1.1746E-01  2.3041E-03 -2.5033E-03 -2.3654E-03
      81-      1
      1            8.0743E-02  1.2291E-01 -2.0404E-01  3.2971E-03 -3.4278E-02 -3.0159E-04



 e l e m e n t   s t r e s s   c a l c u l a t i o n s   f o r   t i m e  s t e p      385   ( at time 7.19718E+01 )

 element  materl
     ipt  stress       sig-xx      sig-yy      sig-zz      sig-xy      sig-yz      sig-zx                       yield
           state                                                                                  effsg      function
      45-      1
       1          -1.5418E+08 -1.8212E+08 -3.3395E+08  1.0682E+07 -5.4286E+06 -1.6634E+07    1.7128E+08    1.6362E-01
      47-      1
       1          -8.1113E+07 -9.7281E+07 -2.0860E+08  1.2114E+07 -1.1683E+07 -2.2062E+07    1.2947E+08    1.5703E-01
      53-      1
       1          -9.4832E+07 -9.9178E+07 -2.5515E+08  1.9561E+07 -2.1141E+07 -2.3767E+07    1.7090E+08    1.7571E-01
      61-      1
       1          -7.6258E+07 -1.0177E+08 -3.0108E+08 -7.7896E+04 -9.5449E+06 -1.6334E+07    2.1572E+08    2.0836E-01
      67-      1
       1          -1.2876E+08 -1.3015E+08 -2.9616E+08  1.4936E+07 -1.5461E+07 -1.2856E+07    1.7226E+08    1.6571E-01
      79-      1
       1          -1.8528E+08 -2.0307E+08 -5.1598E+08 -2.0179E+06 -2.7223E+04 -2.7781E+05    3.2220E+08    1.2458E-01
      81-      1
       1          -1.3302E+08 -1.3091E+08 -3.4289E+08  4.8509E+06 -3.1225E+07 -1.5185E+06    2.1794E+08    1.9266E-01



 e l e m e n t   s t r a i n   c a l c u l a t i o n s   f o r   t i m e  s t e p      385   ( at time  7.19718E+01 )

 element  strain       eps-xx      eps-yy      eps-zz      eps-xy      eps-yz      eps-zx                            yield
 num/ipt   state
      45-      1
      1            1.2760E-01  9.2977E-02 -2.1470E-01  2.0950E-02 -1.3822E-02 -2.9690E-02
      47-      1
      1            1.0976E-01  1.1538E-01 -2.0982E-01  3.4269E-02 -2.7647E-02 -2.3601E-02
      53-      1
      1            1.0973E-01  1.1017E-01 -2.1069E-01  3.5685E-02 -2.3856E-02 -2.5696E-02
      61-      1
      1            1.3749E-01  9.1736E-02 -2.2763E-01  4.1008E-03 -2.7912E-03 -3.2705E-02
      67-      1
      1            9.1666E-02  1.1777E-01 -2.0672E-01  1.9945E-02 -3.0797E-02 -1.4871E-02
      79-      1
      1            6.5564E-02  5.6572E-02 -1.2708E-01  2.2477E-03 -2.5265E-03 -2.3753E-03
      81-      1
      1            8.7788E-02  1.3050E-01 -2.1819E-01  3.6088E-03 -3.6040E-02 -2.5294E-04



 e l e m e n t   s t r e s s   c a l c u l a t i o n s   f o r   t i m e  s t e p      398   ( at time 7.56413E+01 )

 element  materl
     ipt  stress       sig-xx      sig-yy      sig-zz      sig-xy      sig-yz      sig-zx                       yield
           state                                                                                  effsg      function
      45-      1
       1          -1.9735E+08 -2.1726E+08 -3.3033E+08  2.0557E+06 -8.5029E+06 -2.0032E+07    1.2986E+08    1.7334E-01
      47-      1
       1          -8.2845E+07 -9.7969E+07 -1.9521E+08  8.8725E+06 -2.4084E+07 -3.3868E+07    1.2874E+08    1.6566E-01
      53-      1
       1          -8.0487E+07 -8.7385E+07 -1.9797E+08  1.2902E+07 -2.3521E+07 -2.9506E+07    1.3346E+08    1.8423E-01
      61-      1
       1          -1.3064E+08 -1.5038E+08 -3.5184E+08  9.2259E+06 -1.5253E+07 -2.1810E+07    2.1756E+08    2.2008E-01
      67-      1
       1          -9.5150E+07 -1.1020E+08 -2.4810E+08  1.1051E+07 -4.2743E+07 -2.2537E+07    1.6938E+08    1.7447E-01
      79-      1
       1          -1.2832E+08 -1.3074E+08 -4.5189E+08 -1.2909E+06  7.0798E+05 -1.3646E+06    3.2238E+08    1.3712E-01
      81-      1
       1          -1.3701E+08 -1.5668E+08 -3.5073E+08  4.8063E+06 -3.3296E+07  6.1094E+05    2.1274E+08    2.0236E-01



 e l e m e n t   s t r a i n   c a l c u l a t i o n s   f o r   t i m e  s t e p      398   ( at time  7.56413E+01 )

 element  strain       eps-xx      eps-yy      eps-zz      eps-xy      eps-yz      eps-zx                            yield
 num/ipt   state
      45-      1
      1            1.4179E-01  1.0277E-01 -2.3461E-01  2.3066E-02 -1.5278E-02 -3.3612E-02
      47-      1
      1            1.2077E-01  1.2741E-01 -2.2779E-01  3.8631E-02 -3.1103E-02 -2.6793E-02
      53-      1
      1            1.2188E-01  1.2098E-01 -2.2890E-01  4.0687E-02 -2.7471E-02 -2.9452E-02
      61-      1
      1            1.4816E-01  9.8340E-02 -2.4453E-01  5.4313E-03 -5.0664E-03 -3.4467E-02
      67-      1
      1            1.0187E-01  1.2689E-01 -2.2208E-01  2.3752E-02 -3.2791E-02 -1.5859E-02
      79-      1
      1            7.1859E-02  6.3021E-02 -1.3901E-01  2.1952E-03 -2.5525E-03 -2.4320E-03
      81-      1
      1            9.5601E-02  1.3666E-01 -2.3257E-01  3.7427E-03 -3.7257E-02 -2.3006E-04



 e l e m e n t   s t r e s s   c a l c u l a t i o n s   f o r   t i m e  s t e p      411   ( at time 7.93108E+01 )

 element  materl
     ipt  stress       sig-xx      sig-yy      sig-zz      sig-xy      sig-yz      sig-zx                       yield
           state                                                                                  effsg      function
      45-      1
       1          -1.6932E+08 -1.8308E+08 -3.0280E+08  6.4033E+06 -1.1815E+07 -1.6208E+07    1.3228E+08    1.8178E-01
      47-      1
       1          -1.1992E+08 -1.3907E+08 -1.9430E+08  5.8647E+06 -1.7669E+07 -3.0069E+07    9.0703E+07    1.7185E-01
      53-      1
       1          -1.0564E+08 -1.3017E+08 -1.9446E+08  5.8825E+06 -1.3358E+07 -2.0296E+07    9.0483E+07    1.9047E-01
      61-      1
       1          -1.3807E+08 -1.3939E+08 -3.5057E+08  8.0846E+06 -1.5530E+07 -2.3319E+07    2.1778E+08    2.3087E-01
      67-      1
       1          -1.2052E+08 -1.3871E+08 -2.3039E+08  9.4219E+06 -3.5794E+07 -2.2734E+07    1.2675E+08    1.8075E-01
      79-      1
       1          -4.7345E+07 -2.1249E+07 -3.6024E+08 -3.7584E+05  6.2655E+05 -2.2210E+06    3.2675E+08    1.5089E-01
      81-      1
       1          -1.2016E+08 -1.4429E+08 -3.3827E+08  5.3630E+06 -3.2636E+07 -1.8426E+06    2.1490E+08    2.1091E-01



 e l e m e n t   s t r a i n   c a l c u l a t i o n s   f o r   t i m e  s t e p      411   ( at time  7.93108E+01 )

 element  strain       eps-xx      eps-yy      eps-zz      eps-xy      eps-yz      eps-zx                            yield
 num/ipt   state
      45-      1
      1            1.5404E-01  1.1167E-01 -2.5376E-01  2.5113E-02 -1.6972E-02 -3.6095E-02
      47-      1
      1            1.3029E-01  1.3868E-01 -2.4458E-01  4.1359E-02 -3.3926E-02 -3.0298E-02
      53-      1
      1            1.3379E-01  1.3013E-01 -2.4747E-01  4.4107E-02 -3.0427E-02 -3.3338E-02
      61-      1
      1            1.5720E-01  1.0603E-01 -2.6044E-01  5.9855E-03 -6.7991E-03 -3.5427E-02
      67-      1
      1            1.1071E-01  1.3460E-01 -2.3552E-01  2.7118E-02 -3.4586E-02 -1.6530E-02
      79-      1
      1            7.7920E-02  7.1226E-02 -1.5207E-01  2.1957E-03 -2.4995E-03 -2.4114E-03
      81-      1
      1            1.0268E-01  1.4259E-01 -2.4578E-01  3.7626E-03 -3.7723E-02 -2.2841E-04



 e l e m e n t   s t r e s s   c a l c u l a t i o n s   f o r   t i m e  s t e p      421   ( at time 8.29803E+01 )

 element  materl
     ipt  stress       sig-xx      sig-yy      sig-zz      sig-xy      sig-yz      sig-zx                       yield
           state                                                                                  effsg      function
      45-      1
       1          -1.0316E+08 -1.2312E+08 -2.4320E+08  6.7986E+06 -1.1682E+07 -1.3627E+07    1.3536E+08    1.8852E-01
      47-      1
       1          -1.0151E+08 -1.0921E+08 -1.8006E+08  7.9966E+06 -1.6421E+07 -2.4567E+07    9.1845E+07    1.7618E-01
      53-      1
       1          -8.2620E+07 -1.0125E+08 -1.7316E+08  5.7513E+06 -1.1925E+07 -1.8316E+07    9.1599E+07    1.9520E-01
      61-      1
       1          -8.9547E+07 -1.0961E+08 -3.1089E+08  1.3990E+07 -1.2074E+07 -1.7787E+07    2.1663E+08    2.4109E-01
      67-      1
       1          -1.1326E+08 -1.2662E+08 -1.9158E+08  1.3027E+07 -2.1980E+07 -1.7770E+07    9.0399E+07    1.8472E-01
      79-      1
       1          -1.3816E+07  1.2349E+07 -3.2774E+08 -2.8896E+05 -7.0812E+05 -2.1919E+06    3.2782E+08    1.5999E-01
      81-      1
       1          -1.2401E+08 -1.3957E+08 -3.3476E+08  1.3759E+07 -3.7510E+07 -6.1701E+06    2.1513E+08    2.1911E-01



 e l e m e n t   s t r a i n   c a l c u l a t i o n s   f o r   t i m e  s t e p      421   ( at time  8.29803E+01 )

 element  strain       eps-xx      eps-yy      eps-zz      eps-xy      eps-yz      eps-zx                            yield
 num/ipt   state
      45-      1
      1            1.6480E-01  1.1831E-01 -2.6888E-01  2.6374E-02 -1.8275E-02 -3.7812E-02
      47-      1
      1            1.3759E-01  1.4758E-01 -2.5844E-01  4.3871E-02 -3.5691E-02 -3.2152E-02
      53-      1
      1            1.4356E-01  1.3705E-01 -2.6312E-01  4.6572E-02 -3.1906E-02 -3.5883E-02
      61-      1
      1            1.6751E-01  1.1204E-01 -2.7462E-01  6.8884E-03 -7.2997E-03 -3.6460E-02
      67-      1
      1            1.1944E-01  1.4255E-01 -2.4812E-01  3.0606E-02 -3.6110E-02 -1.7258E-02
      79-      1
      1            8.1944E-02  7.6307E-02 -1.6076E-01  2.1878E-03 -2.6757E-03 -2.5471E-03
      81-      1
      1            1.0833E-01  1.4828E-01 -2.5713E-01  4.6598E-03 -3.9141E-02 -7.5517E-04



 e l e m e n t   s t r e s s   c a l c u l a t i o n s   f o r   t i m e  s t e p      434   ( at time 8.66498E+01 )

 element  materl
     ipt  stress       sig-xx      sig-yy      sig-zz      sig-xy      sig-yz      sig-zx                       yield
           state                                                                                  effsg      function
      45-      1
       1          -1.3149E+08 -1.5006E+08 -2.6638E+08  7.2876E+06 -1.4338E+07 -1.9435E+07    1.3396E+08    1.9721E-01
      47-      1
       1          -9.8129E+07 -1.0349E+08 -1.7608E+08  6.5913E+06 -1.5917E+07 -2.5972E+07    9.2745E+07    1.8156E-01
      53-      1
       1          -8.7729E+07 -1.0120E+08 -1.7033E+08  5.6089E+06 -1.6758E+07 -2.4736E+07    9.3081E+07    2.0118E-01
      61-      1
       1          -6.0368E+07 -9.9906E+07 -2.9639E+08 -2.3889E+06 -7.2106E+06 -2.8472E+07    2.2482E+08    2.5713E-01
      67-      1
       1          -1.1093E+08 -1.2577E+08 -1.8978E+08  8.2379E+06 -2.3702E+07 -1.9421E+07    9.1035E+07    1.8926E-01
      79-      1
       1           5.7604E+07  7.8370E+07 -2.6339E+08 -4.1284E+05  1.9656E+06 -2.7948E+06    3.3191E+08    1.7287E-01
      81-      1
       1          -8.9954E+07 -1.1653E+08 -3.0558E+08  1.4443E+07 -3.3902E+07 -5.2630E+06    2.1361E+08    2.2859E-01



 e l e m e n t   s t r a i n   c a l c u l a t i o n s   f o r   t i m e  s t e p      434   ( at time  8.66498E+01 )

 element  strain       eps-xx      eps-yy      eps-zz      eps-xy      eps-yz      eps-zx                            yield
 num/ipt   state
      45-      1
      1            1.7643E-01  1.2627E-01 -2.8765E-01  2.8609E-02 -1.9713E-02 -4.0860E-02
      47-      1
      1            1.4663E-01  1.5896E-01 -2.7522E-01  4.7032E-02 -3.7657E-02 -3.4623E-02
      53-      1
      1            1.5406E-01  1.4614E-01 -2.8116E-01  4.9773E-02 -3.4737E-02 -3.9410E-02
      61-      1
      1            1.8285E-01  1.2012E-01 -2.9646E-01  6.6025E-03 -7.2845E-03 -3.9911E-02
      67-      1
      1            1.3011E-01  1.5055E-01 -2.6327E-01  3.4289E-02 -3.7546E-02 -1.7968E-02
      79-      1
      1            8.7986E-02  8.3419E-02 -1.7308E-01  2.1686E-03 -2.6389E-03 -2.6089E-03
      81-      1
      1            1.1574E-01  1.5434E-01 -2.7075E-01  5.2257E-03 -3.9906E-02 -1.0622E-03



 e l e m e n t   s t r e s s   c a l c u l a t i o n s   f o r   t i m e  s t e p      445   ( at time 9.03193E+01 )

 element  materl
     ipt  stress       sig-xx      sig-yy      sig-zz      sig-xy      sig-yz      sig-zx                       yield
           state                                                                                  effsg      function
      45-      1
       1          -1.2413E+08 -1.3359E+08 -2.5706E+08  5.8794E+06 -1.1188E+07 -2.0009E+07    1.3485E+08    2.0252E-01
      47-      1
       1          -8.7503E+07 -9.6742E+07 -1.6833E+08  3.3888E+06 -1.8223E+07 -2.4667E+07    9.3420E+07    1.8559E-01
      53-      1
       1          -8.0160E+07 -9.6373E+07 -1.6758E+08  4.3241E+06 -1.7245E+07 -2.1209E+07    9.3733E+07    2.0493E-01
      61-      1
       1          -5.5986E+07 -7.5505E+07 -2.8332E+08 -3.4911E+06 -2.4880E+06 -2.8525E+07    2.2388E+08    2.6744E-01
      67-      1
       1          -8.6693E+07 -1.0386E+08 -1.7047E+08  4.7951E+06 -2.1695E+07 -1.8561E+07    9.1594E+07    1.9305E-01
      79-      1
       1           1.9913E+08  2.3457E+08 -1.1570E+08  3.2489E+06 -8.2111E+05 -4.3035E+06    3.3409E+08    1.8766E-01
      81-      1
       1          -1.0195E+08 -1.2372E+08 -2.8758E+08  9.6187E+06 -1.9039E+07 -1.1783E+06    1.7960E+08    2.3555E-01



 e l e m e n t   s t r a i n   c a l c u l a t i o n s   f o r   t i m e  s t e p      445   ( at time  9.03193E+01 )

 element  strain       eps-xx      eps-yy      eps-zz      eps-xy      eps-yz      eps-zx                            yield
 num/ipt   state
      45-      1
      1            1.8412E-01  1.3289E-01 -3.0157E-01  2.9604E-02 -1.9773E-02 -4.0748E-02
      47-      1
      1            1.5450E-01  1.6660E-01 -2.8966E-01  4.8300E-02 -3.7985E-02 -3.5238E-02
      53-      1
      1            1.6279E-01  1.5211E-01 -2.9539E-01  5.1180E-02 -3.5356E-02 -3.9864E-02
      61-      1
      1            1.9142E-01  1.2706E-01 -3.1169E-01  6.7325E-03 -6.6005E-03 -4.0108E-02
      67-      1
      1            1.4034E-01  1.5682E-01 -2.7728E-01  3.6114E-02 -3.7724E-02 -1.8105E-02
      79-      1
      1            9.4529E-02  9.2509E-02 -1.8674E-01  2.4414E-03 -2.8155E-03 -2.7902E-03
      81-      1
      1            1.2294E-01  1.6072E-01 -2.8429E-01  5.8084E-03 -4.0213E-02 -6.7150E-04



 e l e m e n t   s t r e s s   c a l c u l a t i o n s   f o r   t i m e  s t e p      455   ( at time 9.39888E+01 )

 element  materl
     ipt  stress       sig-xx      sig-yy      sig-zz      sig-xy      sig-yz      sig-zx                       yield
           state                                                                                  effsg      function
      45-      1
       1          -1.0094E+08 -1.1261E+08 -2.3711E+08  5.6702E+06 -9.7688E+06 -2.0329E+07    1.3679E+08    2.0809E-01
      47-      1
       1          -8.1738E+07 -8.9008E+07 -1.6433E+08  3.8451E+06 -1.7941E+07 -2.2974E+07    9.4167E+07    1.8958E-01
      53-      1
       1          -6.8927E+07 -7.9166E+07 -1.5631E+08  5.0573E+06 -1.7654E+07 -1.8604E+07    9.4316E+07    2.0882E-01
      61-      1
       1          -5.8948E+06 -3.0192E+07 -2.3751E+08 -2.9500E+06 -2.3390E+06 -2.8558E+07    2.2605E+08    2.7813E-01
      67-      1
       1          -8.0294E+07 -7.6402E+07 -1.5803E+08 -3.3624E+05 -2.2920E+07 -1.4061E+07    9.2356E+07    1.9700E-01
      79-      1
       1           1.2079E+08  1.4968E+08 -3.1718E+07  1.8793E+06 -2.6723E+06 -2.8806E+06    1.6899E+08    1.9476E-01
      81-      1
       1          -2.7176E+07 -4.8583E+07 -2.1301E+08  1.3301E+07 -1.7207E+07 -4.4056E+06    1.8026E+08    2.4357E-01



 e l e m e n t   s t r a i n   c a l c u l a t i o n s   f o r   t i m e  s t e p      455   ( at time  9.39888E+01 )

 element  strain       eps-xx      eps-yy      eps-zz      eps-xy      eps-yz      eps-zx                            yield
 num/ipt   state
      45-      1
      1            1.9236E-01  1.3954E-01 -3.1551E-01  3.0852E-02 -1.9913E-02 -4.0966E-02
      47-      1
      1            1.6259E-01  1.7370E-01 -3.0402E-01  5.0069E-02 -3.8354E-02 -3.6142E-02
      53-      1
      1            1.7129E-01  1.5888E-01 -3.0988E-01  5.2566E-02 -3.6252E-02 -4.0512E-02
      61-      1
      1            2.0099E-01  1.3381E-01 -3.2691E-01  6.9563E-03 -6.0500E-03 -4.0681E-02
      67-      1
      1            1.4853E-01  1.6563E-01 -2.9161E-01  3.8128E-02 -3.8738E-02 -1.8366E-02
      79-      1
      1            1.0036E-01  1.0274E-01 -1.9906E-01  2.3424E-03 -2.8326E-03 -3.3914E-03
      81-      1
      1            1.3137E-01  1.6830E-01 -2.9836E-01  7.0127E-03 -4.1032E-02 -9.0983E-04



 e l e m e n t   s t r e s s   c a l c u l a t i o n s   f o r   t i m e  s t e p      466   ( at time 9.76583E+01 )

 element  materl
     ipt  stress       sig-xx      sig-yy      sig-zz      sig-xy      sig-yz      sig-zx                       yield
           state                                                                                  effsg      function
      45-      1
       1          -1.1143E+08 -1.3109E+08 -2.4737E+08  6.2624E+06 -1.3588E+07 -2.4221E+07    1.3648E+08    2.1482E-01
      47-      1
       1          -7.4548E+07 -8.0117E+07 -1.5261E+08  5.2062E+06 -2.0340E+07 -2.5665E+07    9.4808E+07    1.9387E-01
      53-      1
       1          -7.9975E+07 -8.7177E+07 -1.6210E+08  5.0460E+06 -1.9238E+07 -2.3394E+07    9.5041E+07    2.1345E-01
      61-      1
       1          -7.7336E+07 -9.5056E+07 -2.6267E+08 -2.5541E+06 -4.2976E+06 -3.5334E+07    1.8762E+08    2.8795E-01
      67-      1
       1          -6.9177E+07 -7.5255E+07 -1.4488E+08  8.9698E+05 -2.8553E+07 -1.7407E+07    9.3086E+07    2.0183E-01
      79-      1
       1           1.2374E+08  1.3969E+08  5.8753E+06  3.6857E+05 -2.0406E+06 -3.8151E+06    1.2682E+08    1.9993E-01
      81-      1
       1          -6.8523E+07 -9.2025E+07 -1.9448E+08  1.6228E+07 -3.0342E+07 -1.0372E+07    1.3165E+08    2.5210E-01



 e l e m e n t   s t r a i n   c a l c u l a t i o n s   f o r   t i m e  s t e p      466   ( at time  9.76583E+01 )

 element  strain       eps-xx      eps-yy      eps-zz      eps-xy      eps-yz      eps-zx                            yield
 num/ipt   state
      45-      1
      1            2.0225E-01  1.4634E-01 -3.3200E-01  3.2600E-02 -1.9996E-02 -4.1255E-02
      47-      1
      1            1.7049E-01  1.8167E-01 -3.1908E-01  5.2592E-02 -3.8227E-02 -3.6937E-02
      53-      1
      1            1.8087E-01  1.6660E-01 -3.2659E-01  5.4807E-02 -3.6954E-02 -4.1569E-02
      61-      1
      1            2.1187E-01  1.4138E-01 -3.4555E-01  7.4213E-03 -5.5716E-03 -4.1295E-02
      67-      1
      1            1.5761E-01  1.7605E-01 -3.0761E-01  3.9227E-02 -3.9855E-02 -1.8112E-02
      79-      1
      1            1.0694E-01  1.1174E-01 -2.1156E-01  2.0285E-03 -3.0031E-03 -4.0012E-03
      81-      1
      1            1.4199E-01  1.8027E-01 -3.1634E-01  8.0473E-03 -4.2565E-02 -1.3053E-03



 e l e m e n t   s t r e s s   c a l c u l a t i o n s   f o r   t i m e  s t e p      475   ( at time 1.00000E+02 )

 element  materl
     ipt  stress       sig-xx      sig-yy      sig-zz      sig-xy      sig-yz      sig-zx                       yield
           state                                                                                  effsg      function
      45-      1
       1          -1.0591E+08 -1.1666E+08 -2.3420E+08  2.7538E+06 -1.1657E+07 -2.1321E+07    1.3034E+08    2.1795E-01
      47-      1
       1          -1.0292E+08 -1.1024E+08 -1.8471E+08  2.3820E+06 -1.8118E+07 -2.5407E+07    9.5310E+07    1.9611E-01
      53-      1
       1          -8.7331E+07 -9.2033E+07 -2.1598E+08  2.3699E+06 -2.0468E+07 -1.8776E+07    1.3528E+08    2.1598E-01
      61-      1
       1          -4.8978E+07 -7.0298E+07 -2.3080E+08 -2.6508E+06 -5.1457E+06 -3.9231E+07    1.8535E+08    2.9186E-01
      67-      1
       1          -8.3213E+07 -9.7311E+07 -1.6409E+08 -1.0773E+06 -2.7438E+07 -1.7073E+07    9.3465E+07    2.0404E-01
      79-      1
       1           4.9582E+07  5.5545E+07  1.0484E+07  1.1509E+06 -6.4517E+06 -1.1998E+06    4.3938E+07    2.0095E-01
      81-      1
       1          -4.5519E+07 -7.1357E+07 -2.1590E+08  1.0685E+07 -2.9640E+07 -1.2172E+07    1.6947E+08    2.5550E-01



 e l e m e n t   s t r a i n   c a l c u l a t i o n s   f o r   t i m e  s t e p      475   ( at time  1.00000E+02 )

 element  strain       eps-xx      eps-yy      eps-zz      eps-xy      eps-yz      eps-zx                            yield
 num/ipt   state
      45-      1
      1            2.0619E-01  1.4989E-01 -3.3952E-01  3.2677E-02 -1.9967E-02 -4.1024E-02
      47-      1
      1            1.7479E-01  1.8508E-01 -3.2717E-01  5.2927E-02 -3.8596E-02 -3.7613E-02
      53-      1
      1            1.8503E-01  1.7023E-01 -3.3479E-01  5.5063E-02 -3.7391E-02 -4.1888E-02
      61-      1
      1            2.1644E-01  1.4445E-01 -3.5297E-01  7.4940E-03 -5.4622E-03 -4.0723E-02
      67-      1
      1            1.6220E-01  1.7971E-01 -3.1553E-01  3.9029E-02 -4.0191E-02 -1.8189E-02
      79-      1
      1            1.1048E-01  1.1768E-01 -2.1881E-01  1.7547E-03 -2.9199E-03 -3.9766E-03
      81-      1
      1            1.4610E-01  1.8424E-01 -3.2345E-01  8.5868E-03 -4.3002E-02 -1.7983E-03
