 LS-DYNA keyword deck by LS-PrePost                                      
                    ls-dyna smp d R14 R14.1.1s_1_ef50e1 date 06/16/2024

 n o d a l   f o r c e/e n e r g y    o u t p u t  t=   0.00000E+00

 velocity boundary condition forces/rigid body moments 

 nd#     167  xforce=   0.0000E+00   yforce=   0.0000E+00  zforce=   0.0000E+00   energy=   0.0000E+00   setid =     167 xmoment=   0.0000E+00 ymoment=   0.0000E+00 zmoment=   0.0000E+00
 nd#     168  xforce=   0.0000E+00   yforce=   0.0000E+00  zforce=   0.0000E+00   energy=   0.0000E+00   setid =     168 xmoment=   0.0000E+00 ymoment=   0.0000E+00 zmoment=   0.0000E+00
 nd#     169  xforce=   0.0000E+00   yforce=   0.0000E+00  zforce=   0.0000E+00   energy=   0.0000E+00   setid =     169 xmoment=   0.0000E+00 ymoment=   0.0000E+00 zmoment=   0.0000E+00
 nd#     170  xforce=   0.0000E+00   yforce=   0.0000E+00  zforce=   0.0000E+00   energy=   0.0000E+00   setid =     170 xmoment=   0.0000E+00 ymoment=   0.0000E+00 zmoment=   0.0000E+00
 nd#     197  xforce=   0.0000E+00   yforce=   0.0000E+00  zforce=   0.0000E+00   energy=   0.0000E+00   setid =     197 xmoment=   0.0000E+00 ymoment=   0.0000E+00 zmoment=   0.0000E+00
 nd#     198  xforce=   0.0000E+00   yforce=   0.0000E+00  zforce=   0.0000E+00   energy=   0.0000E+00   setid =     198 xmoment=   0.0000E+00 ymoment=   0.0000E+00 zmoment=   0.0000E+00
 nd#     225  xforce=   0.0000E+00   yforce=   0.0000E+00  zforce=   0.0000E+00   energy=   0.0000E+00   setid =     225 xmoment=   0.0000E+00 ymoment=   0.0000E+00 zmoment=   0.0000E+00
 nd#     226  xforce=   0.0000E+00   yforce=   0.0000E+00  zforce=   0.0000E+00   energy=   0.0000E+00   setid =     226 xmoment=   0.0000E+00 ymoment=   0.0000E+00 zmoment=   0.0000E+00
 nd#     279  xforce=   0.0000E+00   yforce=   0.0000E+00  zforce=   0.0000E+00   energy=   0.0000E+00   setid =     279 xmoment=   0.0000E+00 ymoment=   0.0000E+00 zmoment=   0.0000E+00
 nd#     280  xforce=   0.0000E+00   yforce=   0.0000E+00  zforce=   0.0000E+00   energy=   0.0000E+00   setid =     280 xmoment=   0.0000E+00 ymoment=   0.0000E+00 zmoment=   0.0000E+00
 nd#     281  xforce=   0.0000E+00   yforce=   0.0000E+00  zforce=   0.0000E+00   energy=   0.0000E+00   setid =     281 xmoment=   0.0000E+00 ymoment=   0.0000E+00 zmoment=   0.0000E+00
 nd#     282  xforce=   0.0000E+00   yforce=   0.0000E+00  zforce=   0.0000E+00   energy=   0.0000E+00   setid =     282 xmoment=   0.0000E+00 ymoment=   0.0000E+00 zmoment=   0.0000E+00
 nd#     296  xforce=   0.0000E+00   yforce=   0.0000E+00  zforce=   0.0000E+00   energy=   0.0000E+00   setid =     296 xmoment=   0.0000E+00 ymoment=   0.0000E+00 zmoment=   0.0000E+00
 nd#     323  xforce=   0.0000E+00   yforce=   0.0000E+00  zforce=   0.0000E+00   energy=   0.0000E+00   setid =     323 xmoment=   0.0000E+00 ymoment=   0.0000E+00 zmoment=   0.0000E+00
 nd#     324  xforce=   0.0000E+00   yforce=   0.0000E+00  zforce=   0.0000E+00   energy=   0.0000E+00   setid =     324 xmoment=   0.0000E+00 ymoment=   0.0000E+00 zmoment=   0.0000E+00
 nd#     338  xforce=   0.0000E+00   yforce=   0.0000E+00  zforce=   0.0000E+00   energy=   0.0000E+00   setid =     338 xmoment=   0.0000E+00 ymoment=   0.0000E+00 zmoment=   0.0000E+00
 nd#     352  xforce=   0.0000E+00   yforce=   0.0000E+00  zforce=   0.0000E+00   energy=   0.0000E+00   setid =     352 xmoment=   0.0000E+00 ymoment=   0.0000E+00 zmoment=   0.0000E+00
 nd#     366  xforce=   0.0000E+00   yforce=   0.0000E+00  zforce=   0.0000E+00   energy=   0.0000E+00   setid =     366 xmoment=   0.0000E+00 ymoment=   0.0000E+00 zmoment=   0.0000E+00
 nd#     380  xforce=   0.0000E+00   yforce=   0.0000E+00  zforce=   0.0000E+00   energy=   0.0000E+00   setid =     380 xmoment=   0.0000E+00 ymoment=   0.0000E+00 zmoment=   0.0000E+00
 nd#     608  xforce=   0.0000E+00   yforce=   0.0000E+00  zforce=   0.0000E+00   energy=   0.0000E+00   setid =     608 xmoment=   0.0000E+00 ymoment=   0.0000E+00 zmoment=   0.0000E+00
 nd#     609  xforce=   0.0000E+00   yforce=   0.0000E+00  zforce=   0.0000E+00   energy=   0.0000E+00   setid =     609 xmoment=   0.0000E+00 ymoment=   0.0000E+00 zmoment=   0.0000E+00
 nd#     610  xforce=   0.0000E+00   yforce=   0.0000E+00  zforce=   0.0000E+00   energy=   0.0000E+00   setid =     610 xmoment=   0.0000E+00 ymoment=   0.0000E+00 zmoment=   0.0000E+00
 nd#     611  xforce=   0.0000E+00   yforce=   0.0000E+00  zforce=   0.0000E+00   energy=   0.0000E+00   setid =     611 xmoment=   0.0000E+00 ymoment=   0.0000E+00 zmoment=   0.0000E+00
 nd#     804  xforce=   0.0000E+00   yforce=   0.0000E+00  zforce=   0.0000E+00   energy=   0.0000E+00   setid =     804 xmoment=   0.0000E+00 ymoment=   0.0000E+00 zmoment=   0.0000E+00
 nd#     806  xforce=   0.0000E+00   yforce=   0.0000E+00  zforce=   0.0000E+00   energy=   0.0000E+00   setid =     806 xmoment=   0.0000E+00 ymoment=   0.0000E+00 zmoment=   0.0000E+00
 nd#     808  xforce=   0.0000E+00   yforce=   0.0000E+00  zforce=   0.0000E+00   energy=   0.0000E+00   setid =     808 xmoment=   0.0000E+00 ymoment=   0.0000E+00 zmoment=   0.0000E+00
 nd#     810  xforce=   0.0000E+00   yforce=   0.0000E+00  zforce=   0.0000E+00   energy=   0.0000E+00   setid =     810 xmoment=   0.0000E+00 ymoment=   0.0000E+00 zmoment=   0.0000E+00
 nd#     852  xforce=   0.0000E+00   yforce=   0.0000E+00  zforce=   0.0000E+00   energy=   0.0000E+00   setid =     852 xmoment=   0.0000E+00 ymoment=   0.0000E+00 zmoment=   0.0000E+00
 nd#     854  xforce=   0.0000E+00   yforce=   0.0000E+00  zforce=   0.0000E+00   energy=   0.0000E+00   setid =     854 xmoment=   0.0000E+00 ymoment=   0.0000E+00 zmoment=   0.0000E+00
 nd#     856  xforce=   0.0000E+00   yforce=   0.0000E+00  zforce=   0.0000E+00   energy=   0.0000E+00   setid =     856 xmoment=   0.0000E+00 ymoment=   0.0000E+00 zmoment=   0.0000E+00
 nd#     858  xforce=   0.0000E+00   yforce=   0.0000E+00  zforce=   0.0000E+00   energy=   0.0000E+00   setid =     858 xmoment=   0.0000E+00 ymoment=   0.0000E+00 zmoment=   0.0000E+00
 nd#     864  xforce=   0.0000E+00   yforce=   0.0000E+00  zforce=   0.0000E+00   energy=   0.0000E+00   setid =     864 xmoment=   0.0000E+00 ymoment=   0.0000E+00 zmoment=   0.0000E+00
 nd#     866  xforce=   0.0000E+00   yforce=   0.0000E+00  zforce=   0.0000E+00   energy=   0.0000E+00   setid =     866 xmoment=   0.0000E+00 ymoment=   0.0000E+00 zmoment=   0.0000E+00
 nd#     868  xforce=   0.0000E+00   yforce=   0.0000E+00  zforce=   0.0000E+00   energy=   0.0000E+00   setid =     868 xmoment=   0.0000E+00 ymoment=   0.0000E+00 zmoment=   0.0000E+00
 nd#     870  xforce=   0.0000E+00   yforce=   0.0000E+00  zforce=   0.0000E+00   energy=   0.0000E+00   setid =     870 xmoment=   0.0000E+00 ymoment=   0.0000E+00 zmoment=   0.0000E+00
 nd#     880  xforce=   0.0000E+00   yforce=   0.0000E+00  zforce=   0.0000E+00   energy=   0.0000E+00   setid =     880 xmoment=   0.0000E+00 ymoment=   0.0000E+00 zmoment=   0.0000E+00
 nd#     882  xforce=   0.0000E+00   yforce=   0.0000E+00  zforce=   0.0000E+00   energy=   0.0000E+00   setid =     882 xmoment=   0.0000E+00 ymoment=   0.0000E+00 zmoment=   0.0000E+00
 nd#     884  xforce=   0.0000E+00   yforce=   0.0000E+00  zforce=   0.0000E+00   energy=   0.0000E+00   setid =     884 xmoment=   0.0000E+00 ymoment=   0.0000E+00 zmoment=   0.0000E+00
 nd#     886  xforce=   0.0000E+00   yforce=   0.0000E+00  zforce=   0.0000E+00   energy=   0.0000E+00   setid =     886 xmoment=   0.0000E+00 ymoment=   0.0000E+00 zmoment=   0.0000E+00
              xtotal=   0.0000E+00   ytotal=   0.0000E+00  ztotal=   0.0000E+00   etotal=   0.0000E+00

 n o d a l   f o r c e/e n e r g y    o u t p u t  t=   1.29245E+00

 velocity boundary condition forces/rigid body moments 

 nd#     167  xforce=   0.0000E+00   yforce=   0.0000E+00  zforce=  -1.9629E+01   energy=   1.2948E-04   setid =     167 xmoment=   0.0000E+00 ymoment=   0.0000E+00 zmoment=   0.0000E+00
 nd#     168  xforce=   0.0000E+00   yforce=   0.0000E+00  zforce=  -7.5835E+00   energy=   5.2779E-05   setid =     168 xmoment=   0.0000E+00 ymoment=   0.0000E+00 zmoment=   0.0000E+00
 nd#     169  xforce=   0.0000E+00   yforce=   0.0000E+00  zforce=  -1.8970E+01   energy=   1.2504E-04   setid =     169 xmoment=   0.0000E+00 ymoment=   0.0000E+00 zmoment=   0.0000E+00
 nd#     170  xforce=   0.0000E+00   yforce=   0.0000E+00  zforce=  -2.5137E+01   energy=   1.6290E-04   setid =     170 xmoment=   0.0000E+00 ymoment=   0.0000E+00 zmoment=   0.0000E+00
 nd#     197  xforce=   0.0000E+00   yforce=   0.0000E+00  zforce=  -1.1215E+01   energy=   7.8462E-05   setid =     197 xmoment=   0.0000E+00 ymoment=   0.0000E+00 zmoment=   0.0000E+00
 nd#     198  xforce=   0.0000E+00   yforce=   0.0000E+00  zforce=  -2.2603E+01   energy=   1.4710E-04   setid =     198 xmoment=   0.0000E+00 ymoment=   0.0000E+00 zmoment=   0.0000E+00
 nd#     225  xforce=   0.0000E+00   yforce=   0.0000E+00  zforce=  -1.4876E+01   energy=   9.1029E-05   setid =     225 xmoment=   0.0000E+00 ymoment=   0.0000E+00 zmoment=   0.0000E+00
 nd#     226  xforce=   0.0000E+00   yforce=   0.0000E+00  zforce=  -1.5586E+01   energy=   9.6948E-05   setid =     226 xmoment=   0.0000E+00 ymoment=   0.0000E+00 zmoment=   0.0000E+00
 nd#     279  xforce=   0.0000E+00   yforce=   0.0000E+00  zforce=  -1.2670E+01   energy=   7.7530E-05   setid =     279 xmoment=   0.0000E+00 ymoment=   0.0000E+00 zmoment=   0.0000E+00
 nd#     280  xforce=   0.0000E+00   yforce=   0.0000E+00  zforce=  -1.8958E+01   energy=   1.2389E-04   setid =     280 xmoment=   0.0000E+00 ymoment=   0.0000E+00 zmoment=   0.0000E+00
 nd#     281  xforce=   0.0000E+00   yforce=   0.0000E+00  zforce=  -1.5253E+01   energy=   9.3796E-05   setid =     281 xmoment=   0.0000E+00 ymoment=   0.0000E+00 zmoment=   0.0000E+00
 nd#     282  xforce=   0.0000E+00   yforce=   0.0000E+00  zforce=  -9.5185E+00   energy=   5.6606E-05   setid =     282 xmoment=   0.0000E+00 ymoment=   0.0000E+00 zmoment=   0.0000E+00
 nd#     296  xforce=   0.0000E+00   yforce=   0.0000E+00  zforce=  -1.1319E+01   energy=   7.0786E-05   setid =     296 xmoment=   0.0000E+00 ymoment=   0.0000E+00 zmoment=   0.0000E+00
 nd#     323  xforce=   0.0000E+00   yforce=   0.0000E+00  zforce=  -3.6241E+01   energy=   2.3393E-04   setid =     323 xmoment=   0.0000E+00 ymoment=   0.0000E+00 zmoment=   0.0000E+00
 nd#     324  xforce=   0.0000E+00   yforce=   0.0000E+00  zforce=  -3.5495E+01   energy=   2.2996E-04   setid =     324 xmoment=   0.0000E+00 ymoment=   0.0000E+00 zmoment=   0.0000E+00
 nd#     338  xforce=   0.0000E+00   yforce=   0.0000E+00  zforce=  -4.1347E+01   energy=   2.6452E-04   setid =     338 xmoment=   0.0000E+00 ymoment=   0.0000E+00 zmoment=   0.0000E+00
 nd#     352  xforce=   0.0000E+00   yforce=   0.0000E+00  zforce=  -1.5485E+01   energy=   9.7037E-05   setid =     352 xmoment=   0.0000E+00 ymoment=   0.0000E+00 zmoment=   0.0000E+00
 nd#     366  xforce=   0.0000E+00   yforce=   0.0000E+00  zforce=  -2.2797E+01   energy=   1.4320E-04   setid =     366 xmoment=   0.0000E+00 ymoment=   0.0000E+00 zmoment=   0.0000E+00
 nd#     380  xforce=   0.0000E+00   yforce=   0.0000E+00  zforce=  -2.0478E+01   energy=   1.3063E-04   setid =     380 xmoment=   0.0000E+00 ymoment=   0.0000E+00 zmoment=   0.0000E+00
 nd#     608  xforce=   0.0000E+00   yforce=   0.0000E+00  zforce=  -6.2165E+00   energy=   4.2474E-05   setid =     608 xmoment=   0.0000E+00 ymoment=   0.0000E+00 zmoment=   0.0000E+00
 nd#     609  xforce=   0.0000E+00   yforce=   0.0000E+00  zforce=  -3.1607E+01   energy=   2.0609E-04   setid =     609 xmoment=   0.0000E+00 ymoment=   0.0000E+00 zmoment=   0.0000E+00
 nd#     610  xforce=   0.0000E+00   yforce=   0.0000E+00  zforce=  -3.0589E+01   energy=   1.9717E-04   setid =     610 xmoment=   0.0000E+00 ymoment=   0.0000E+00 zmoment=   0.0000E+00
 nd#     611  xforce=   0.0000E+00   yforce=   0.0000E+00  zforce=  -2.7325E+01   energy=   1.7400E-04   setid =     611 xmoment=   0.0000E+00 ymoment=   0.0000E+00 zmoment=   0.0000E+00
 nd#     804  xforce=   0.0000E+00   yforce=   0.0000E+00  zforce=  -5.2597E+01   energy=   3.3871E-04   setid =     804 xmoment=   0.0000E+00 ymoment=   0.0000E+00 zmoment=   0.0000E+00
 nd#     806  xforce=   0.0000E+00   yforce=   0.0000E+00  zforce=  -4.9973E+01   energy=   3.2285E-04   setid =     806 xmoment=   0.0000E+00 ymoment=   0.0000E+00 zmoment=   0.0000E+00
 nd#     808  xforce=   0.0000E+00   yforce=   0.0000E+00  zforce=  -4.9991E+01   energy=   3.2289E-04   setid =     808 xmoment=   0.0000E+00 ymoment=   0.0000E+00 zmoment=   0.0000E+00
 nd#     810  xforce=   0.0000E+00   yforce=   0.0000E+00  zforce=  -2.6768E+01   energy=   1.7156E-04   setid =     810 xmoment=   0.0000E+00 ymoment=   0.0000E+00 zmoment=   0.0000E+00
 nd#     852  xforce=   0.0000E+00   yforce=   0.0000E+00  zforce=  -6.0583E+01   energy=   3.9257E-04   setid =     852 xmoment=   0.0000E+00 ymoment=   0.0000E+00 zmoment=   0.0000E+00
 nd#     854  xforce=   0.0000E+00   yforce=   0.0000E+00  zforce=  -5.9954E+01   energy=   3.8814E-04   setid =     854 xmoment=   0.0000E+00 ymoment=   0.0000E+00 zmoment=   0.0000E+00
 nd#     856  xforce=   0.0000E+00   yforce=   0.0000E+00  zforce=  -6.0071E+01   energy=   3.8826E-04   setid =     856 xmoment=   0.0000E+00 ymoment=   0.0000E+00 zmoment=   0.0000E+00
 nd#     858  xforce=   0.0000E+00   yforce=   0.0000E+00  zforce=  -3.1039E+01   energy=   1.9996E-04   setid =     858 xmoment=   0.0000E+00 ymoment=   0.0000E+00 zmoment=   0.0000E+00
 nd#     864  xforce=   0.0000E+00   yforce=   0.0000E+00  zforce=  -6.4465E+01   energy=   4.2043E-04   setid =     864 xmoment=   0.0000E+00 ymoment=   0.0000E+00 zmoment=   0.0000E+00
 nd#     866  xforce=   0.0000E+00   yforce=   0.0000E+00  zforce=  -6.6110E+01   energy=   4.2886E-04   setid =     866 xmoment=   0.0000E+00 ymoment=   0.0000E+00 zmoment=   0.0000E+00
 nd#     868  xforce=   0.0000E+00   yforce=   0.0000E+00  zforce=  -6.4892E+01   energy=   4.2134E-04   setid =     868 xmoment=   0.0000E+00 ymoment=   0.0000E+00 zmoment=   0.0000E+00
 nd#     870  xforce=   0.0000E+00   yforce=   0.0000E+00  zforce=  -3.2170E+01   energy=   2.0954E-04   setid =     870 xmoment=   0.0000E+00 ymoment=   0.0000E+00 zmoment=   0.0000E+00
 nd#     880  xforce=   0.0000E+00   yforce=   0.0000E+00  zforce=  -1.1561E+01   energy=   8.0707E-05   setid =     880 xmoment=   0.0000E+00 ymoment=   0.0000E+00 zmoment=   0.0000E+00
 nd#     882  xforce=   0.0000E+00   yforce=   0.0000E+00  zforce=  -9.6888E+00   energy=   6.9935E-05   setid =     882 xmoment=   0.0000E+00 ymoment=   0.0000E+00 zmoment=   0.0000E+00
 nd#     884  xforce=   0.0000E+00   yforce=   0.0000E+00  zforce=  -7.0027E+00   energy=   5.5152E-05   setid =     884 xmoment=   0.0000E+00 ymoment=   0.0000E+00 zmoment=   0.0000E+00
 nd#     886  xforce=   0.0000E+00   yforce=   0.0000E+00  zforce=  -2.9220E+00   energy=   2.4944E-05   setid =     886 xmoment=   0.0000E+00 ymoment=   0.0000E+00 zmoment=   0.0000E+00
              xtotal=   0.0000E+00   ytotal=   0.0000E+00  ztotal=  -1.1207E+03   etotal=   7.2612E-03

 n o d a l   f o r c e/e n e r g y    o u t p u t  t=   2.54839E+00

 velocity boundary condition forces/rigid body moments 

 nd#     167  xforce=   0.0000E+00   yforce=   0.0000E+00  zforce=  -3.7327E+01   energy=   4.8715E-04   setid =     167 xmoment=   0.0000E+00 ymoment=   0.0000E+00 zmoment=   0.0000E+00
 nd#     168  xforce=   0.0000E+00   yforce=   0.0000E+00  zforce=  -1.2755E+01   energy=   1.8050E-04   setid =     168 xmoment=   0.0000E+00 ymoment=   0.0000E+00 zmoment=   0.0000E+00
 nd#     169  xforce=   0.0000E+00   yforce=   0.0000E+00  zforce=  -3.3739E+01   energy=   4.5604E-04   setid =     169 xmoment=   0.0000E+00 ymoment=   0.0000E+00 zmoment=   0.0000E+00
 nd#     170  xforce=   0.0000E+00   yforce=   0.0000E+00  zforce=  -4.8162E+01   energy=   6.2320E-04   setid =     170 xmoment=   0.0000E+00 ymoment=   0.0000E+00 zmoment=   0.0000E+00
 nd#     197  xforce=   0.0000E+00   yforce=   0.0000E+00  zforce=  -1.9080E+01   energy=   2.6870E-04   setid =     197 xmoment=   0.0000E+00 ymoment=   0.0000E+00 zmoment=   0.0000E+00
 nd#     198  xforce=   0.0000E+00   yforce=   0.0000E+00  zforce=  -4.3622E+01   energy=   5.6298E-04   setid =     198 xmoment=   0.0000E+00 ymoment=   0.0000E+00 zmoment=   0.0000E+00
 nd#     225  xforce=   0.0000E+00   yforce=   0.0000E+00  zforce=  -3.2291E+01   energy=   3.8722E-04   setid =     225 xmoment=   0.0000E+00 ymoment=   0.0000E+00 zmoment=   0.0000E+00
 nd#     226  xforce=   0.0000E+00   yforce=   0.0000E+00  zforce=  -3.3288E+01   energy=   4.0386E-04   setid =     226 xmoment=   0.0000E+00 ymoment=   0.0000E+00 zmoment=   0.0000E+00
 nd#     279  xforce=   0.0000E+00   yforce=   0.0000E+00  zforce=  -2.8410E+01   energy=   3.3550E-04   setid =     279 xmoment=   0.0000E+00 ymoment=   0.0000E+00 zmoment=   0.0000E+00
 nd#     280  xforce=   0.0000E+00   yforce=   0.0000E+00  zforce=  -3.5432E+01   energy=   4.6544E-04   setid =     280 xmoment=   0.0000E+00 ymoment=   0.0000E+00 zmoment=   0.0000E+00
 nd#     281  xforce=   0.0000E+00   yforce=   0.0000E+00  zforce=  -3.2175E+01   energy=   3.9163E-04   setid =     281 xmoment=   0.0000E+00 ymoment=   0.0000E+00 zmoment=   0.0000E+00
 nd#     282  xforce=   0.0000E+00   yforce=   0.0000E+00  zforce=  -2.1959E+01   energy=   2.5427E-04   setid =     282 xmoment=   0.0000E+00 ymoment=   0.0000E+00 zmoment=   0.0000E+00
 nd#     296  xforce=   0.0000E+00   yforce=   0.0000E+00  zforce=  -2.4050E+01   energy=   2.9289E-04   setid =     296 xmoment=   0.0000E+00 ymoment=   0.0000E+00 zmoment=   0.0000E+00
 nd#     323  xforce=   0.0000E+00   yforce=   0.0000E+00  zforce=  -7.1359E+01   energy=   9.0963E-04   setid =     323 xmoment=   0.0000E+00 ymoment=   0.0000E+00 zmoment=   0.0000E+00
 nd#     324  xforce=   0.0000E+00   yforce=   0.0000E+00  zforce=  -6.9128E+01   energy=   8.8696E-04   setid =     324 xmoment=   0.0000E+00 ymoment=   0.0000E+00 zmoment=   0.0000E+00
 nd#     338  xforce=   0.0000E+00   yforce=   0.0000E+00  zforce=  -8.1522E+01   energy=   1.0361E-03   setid =     338 xmoment=   0.0000E+00 ymoment=   0.0000E+00 zmoment=   0.0000E+00
 nd#     352  xforce=   0.0000E+00   yforce=   0.0000E+00  zforce=  -3.2125E+01   energy=   3.9602E-04   setid =     352 xmoment=   0.0000E+00 ymoment=   0.0000E+00 zmoment=   0.0000E+00
 nd#     366  xforce=   0.0000E+00   yforce=   0.0000E+00  zforce=  -4.7193E+01   energy=   5.8272E-04   setid =     366 xmoment=   0.0000E+00 ymoment=   0.0000E+00 zmoment=   0.0000E+00
 nd#     380  xforce=   0.0000E+00   yforce=   0.0000E+00  zforce=  -4.1046E+01   energy=   5.1699E-04   setid =     380 xmoment=   0.0000E+00 ymoment=   0.0000E+00 zmoment=   0.0000E+00
 nd#     608  xforce=   0.0000E+00   yforce=   0.0000E+00  zforce=  -1.0921E+01   energy=   1.5010E-04   setid =     608 xmoment=   0.0000E+00 ymoment=   0.0000E+00 zmoment=   0.0000E+00
 nd#     609  xforce=   0.0000E+00   yforce=   0.0000E+00  zforce=  -6.0945E+01   energy=   7.8729E-04   setid =     609 xmoment=   0.0000E+00 ymoment=   0.0000E+00 zmoment=   0.0000E+00
 nd#     610  xforce=   0.0000E+00   yforce=   0.0000E+00  zforce=  -6.0223E+01   energy=   7.6744E-04   setid =     610 xmoment=   0.0000E+00 ymoment=   0.0000E+00 zmoment=   0.0000E+00
 nd#     611  xforce=   0.0000E+00   yforce=   0.0000E+00  zforce=  -5.5069E+01   energy=   6.9142E-04   setid =     611 xmoment=   0.0000E+00 ymoment=   0.0000E+00 zmoment=   0.0000E+00
 nd#     804  xforce=   0.0000E+00   yforce=   0.0000E+00  zforce=  -1.0282E+02   energy=   1.3147E-03   setid =     804 xmoment=   0.0000E+00 ymoment=   0.0000E+00 zmoment=   0.0000E+00
 nd#     806  xforce=   0.0000E+00   yforce=   0.0000E+00  zforce=  -9.8069E+01   energy=   1.2525E-03   setid =     806 xmoment=   0.0000E+00 ymoment=   0.0000E+00 zmoment=   0.0000E+00
 nd#     808  xforce=   0.0000E+00   yforce=   0.0000E+00  zforce=  -9.7980E+01   energy=   1.2521E-03   setid =     808 xmoment=   0.0000E+00 ymoment=   0.0000E+00 zmoment=   0.0000E+00
 nd#     810  xforce=   0.0000E+00   yforce=   0.0000E+00  zforce=  -5.3112E+01   energy=   6.7319E-04   setid =     810 xmoment=   0.0000E+00 ymoment=   0.0000E+00 zmoment=   0.0000E+00
 nd#     852  xforce=   0.0000E+00   yforce=   0.0000E+00  zforce=  -1.1737E+02   energy=   1.5101E-03   setid =     852 xmoment=   0.0000E+00 ymoment=   0.0000E+00 zmoment=   0.0000E+00
 nd#     854  xforce=   0.0000E+00   yforce=   0.0000E+00  zforce=  -1.1702E+02   energy=   1.4995E-03   setid =     854 xmoment=   0.0000E+00 ymoment=   0.0000E+00 zmoment=   0.0000E+00
 nd#     856  xforce=   0.0000E+00   yforce=   0.0000E+00  zforce=  -1.1767E+02   energy=   1.5044E-03   setid =     856 xmoment=   0.0000E+00 ymoment=   0.0000E+00 zmoment=   0.0000E+00
 nd#     858  xforce=   0.0000E+00   yforce=   0.0000E+00  zforce=  -6.0976E+01   energy=   7.7779E-04   setid =     858 xmoment=   0.0000E+00 ymoment=   0.0000E+00 zmoment=   0.0000E+00
 nd#     864  xforce=   0.0000E+00   yforce=   0.0000E+00  zforce=  -1.2367E+02   energy=   1.6018E-03   setid =     864 xmoment=   0.0000E+00 ymoment=   0.0000E+00 zmoment=   0.0000E+00
 nd#     866  xforce=   0.0000E+00   yforce=   0.0000E+00  zforce=  -1.2851E+02   energy=   1.6510E-03   setid =     866 xmoment=   0.0000E+00 ymoment=   0.0000E+00 zmoment=   0.0000E+00
 nd#     868  xforce=   0.0000E+00   yforce=   0.0000E+00  zforce=  -1.2615E+02   energy=   1.6210E-03   setid =     868 xmoment=   0.0000E+00 ymoment=   0.0000E+00 zmoment=   0.0000E+00
 nd#     870  xforce=   0.0000E+00   yforce=   0.0000E+00  zforce=  -6.1881E+01   energy=   8.0015E-04   setid =     870 xmoment=   0.0000E+00 ymoment=   0.0000E+00 zmoment=   0.0000E+00
 nd#     880  xforce=   0.0000E+00   yforce=   0.0000E+00  zforce=  -1.9210E+01   energy=   2.7394E-04   setid =     880 xmoment=   0.0000E+00 ymoment=   0.0000E+00 zmoment=   0.0000E+00
 nd#     882  xforce=   0.0000E+00   yforce=   0.0000E+00  zforce=  -1.5114E+01   energy=   2.2569E-04   setid =     882 xmoment=   0.0000E+00 ymoment=   0.0000E+00 zmoment=   0.0000E+00
 nd#     884  xforce=   0.0000E+00   yforce=   0.0000E+00  zforce=  -8.4298E+00   energy=   1.5206E-04   setid =     884 xmoment=   0.0000E+00 ymoment=   0.0000E+00 zmoment=   0.0000E+00
 nd#     886  xforce=   0.0000E+00   yforce=   0.0000E+00  zforce=  -2.1118E+00   energy=   5.6555E-05   setid =     886 xmoment=   0.0000E+00 ymoment=   0.0000E+00 zmoment=   0.0000E+00
              xtotal=   0.0000E+00   ytotal=   0.0000E+00  ztotal=  -2.1819E+03   etotal=   2.8001E-02

 n o d a l   f o r c e/e n e r g y    o u t p u t  t=   4.53893E+00

 velocity boundary condition forces/rigid body moments 

 nd#     167  xforce=   0.0000E+00   yforce=   0.0000E+00  zforce=  -1.2311E+02   energy=   2.0839E-03   setid =     167 xmoment=   0.0000E+00 ymoment=   0.0000E+00 zmoment=   0.0000E+00
 nd#     168  xforce=   0.0000E+00   yforce=   0.0000E+00  zforce=  -2.4806E+01   energy=   5.5434E-04   setid =     168 xmoment=   0.0000E+00 ymoment=   0.0000E+00 zmoment=   0.0000E+00
 nd#     169  xforce=   0.0000E+00   yforce=   0.0000E+00  zforce=   2.2096E+02   energy=  -1.4073E-03   setid =     169 xmoment=   0.0000E+00 ymoment=   0.0000E+00 zmoment=   0.0000E+00
 nd#     170  xforce=   0.0000E+00   yforce=   0.0000E+00  zforce=  -4.6457E+00   energy=   1.1488E-03   setid =     170 xmoment=   0.0000E+00 ymoment=   0.0000E+00 zmoment=   0.0000E+00
 nd#     197  xforce=   0.0000E+00   yforce=   0.0000E+00  zforce=  -2.6396E+01   energy=   7.2131E-04   setid =     197 xmoment=   0.0000E+00 ymoment=   0.0000E+00 zmoment=   0.0000E+00
 nd#     198  xforce=   0.0000E+00   yforce=   0.0000E+00  zforce=  -2.3205E+01   energy=   1.2281E-03   setid =     198 xmoment=   0.0000E+00 ymoment=   0.0000E+00 zmoment=   0.0000E+00
 nd#     225  xforce=   0.0000E+00   yforce=   0.0000E+00  zforce=  -1.0860E+02   energy=   1.7894E-03   setid =     225 xmoment=   0.0000E+00 ymoment=   0.0000E+00 zmoment=   0.0000E+00
 nd#     226  xforce=   0.0000E+00   yforce=   0.0000E+00  zforce=  -1.6809E+02   energy=   2.4082E-03   setid =     226 xmoment=   0.0000E+00 ymoment=   0.0000E+00 zmoment=   0.0000E+00
 nd#     279  xforce=   0.0000E+00   yforce=   0.0000E+00  zforce=  -2.0021E+02   energy=   2.6109E-03   setid =     279 xmoment=   0.0000E+00 ymoment=   0.0000E+00 zmoment=   0.0000E+00
 nd#     280  xforce=   0.0000E+00   yforce=   0.0000E+00  zforce=   9.6022E+01   energy=  -1.3759E-04   setid =     280 xmoment=   0.0000E+00 ymoment=   0.0000E+00 zmoment=   0.0000E+00
 nd#     281  xforce=   0.0000E+00   yforce=   0.0000E+00  zforce=  -2.2499E+01   energy=   9.3577E-04   setid =     281 xmoment=   0.0000E+00 ymoment=   0.0000E+00 zmoment=   0.0000E+00
 nd#     282  xforce=   0.0000E+00   yforce=   0.0000E+00  zforce=  -1.3632E+02   energy=   1.8296E-03   setid =     282 xmoment=   0.0000E+00 ymoment=   0.0000E+00 zmoment=   0.0000E+00
 nd#     296  xforce=   0.0000E+00   yforce=   0.0000E+00  zforce=  -1.1253E+02   energy=   1.6522E-03   setid =     296 xmoment=   0.0000E+00 ymoment=   0.0000E+00 zmoment=   0.0000E+00
 nd#     323  xforce=   0.0000E+00   yforce=   0.0000E+00  zforce=  -1.4412E+02   energy=   3.0542E-03   setid =     323 xmoment=   0.0000E+00 ymoment=   0.0000E+00 zmoment=   0.0000E+00
 nd#     324  xforce=   0.0000E+00   yforce=   0.0000E+00  zforce=  -6.6143E+01   energy=   2.2333E-03   setid =     324 xmoment=   0.0000E+00 ymoment=   0.0000E+00 zmoment=   0.0000E+00
 nd#     338  xforce=   0.0000E+00   yforce=   0.0000E+00  zforce=  -4.6654E+01   energy=   2.3118E-03   setid =     338 xmoment=   0.0000E+00 ymoment=   0.0000E+00 zmoment=   0.0000E+00
 nd#     352  xforce=   0.0000E+00   yforce=   0.0000E+00  zforce=  -8.9943E+01   energy=   1.6109E-03   setid =     352 xmoment=   0.0000E+00 ymoment=   0.0000E+00 zmoment=   0.0000E+00
 nd#     366  xforce=   0.0000E+00   yforce=   0.0000E+00  zforce=  -1.3194E+02   energy=   2.3656E-03   setid =     366 xmoment=   0.0000E+00 ymoment=   0.0000E+00 zmoment=   0.0000E+00
 nd#     380  xforce=   0.0000E+00   yforce=   0.0000E+00  zforce=  -7.8412E+01   energy=   1.7059E-03   setid =     380 xmoment=   0.0000E+00 ymoment=   0.0000E+00 zmoment=   0.0000E+00
 nd#     608  xforce=   0.0000E+00   yforce=   0.0000E+00  zforce=   5.6393E+00   energy=   2.0267E-04   setid =     608 xmoment=   0.0000E+00 ymoment=   0.0000E+00 zmoment=   0.0000E+00
 nd#     609  xforce=   0.0000E+00   yforce=   0.0000E+00  zforce=  -7.2237E+01   energy=   2.1128E-03   setid =     609 xmoment=   0.0000E+00 ymoment=   0.0000E+00 zmoment=   0.0000E+00
 nd#     610  xforce=   0.0000E+00   yforce=   0.0000E+00  zforce=  -9.5558E+01   energy=   2.3179E-03   setid =     610 xmoment=   0.0000E+00 ymoment=   0.0000E+00 zmoment=   0.0000E+00
 nd#     611  xforce=   0.0000E+00   yforce=   0.0000E+00  zforce=  -1.1462E+02   energy=   2.3802E-03   setid =     611 xmoment=   0.0000E+00 ymoment=   0.0000E+00 zmoment=   0.0000E+00
 nd#     804  xforce=   0.0000E+00   yforce=   0.0000E+00  zforce=  -7.9852E+01   energy=   3.1327E-03   setid =     804 xmoment=   0.0000E+00 ymoment=   0.0000E+00 zmoment=   0.0000E+00
 nd#     806  xforce=   0.0000E+00   yforce=   0.0000E+00  zforce=  -1.6366E+02   energy=   3.8574E-03   setid =     806 xmoment=   0.0000E+00 ymoment=   0.0000E+00 zmoment=   0.0000E+00
 nd#     808  xforce=   0.0000E+00   yforce=   0.0000E+00  zforce=  -1.3004E+02   energy=   3.5215E-03   setid =     808 xmoment=   0.0000E+00 ymoment=   0.0000E+00 zmoment=   0.0000E+00
 nd#     810  xforce=   0.0000E+00   yforce=   0.0000E+00  zforce=  -8.4446E+01   energy=   2.0423E-03   setid =     810 xmoment=   0.0000E+00 ymoment=   0.0000E+00 zmoment=   0.0000E+00
 nd#     852  xforce=   0.0000E+00   yforce=   0.0000E+00  zforce=  -1.0093E+02   energy=   3.6827E-03   setid =     852 xmoment=   0.0000E+00 ymoment=   0.0000E+00 zmoment=   0.0000E+00
 nd#     854  xforce=   0.0000E+00   yforce=   0.0000E+00  zforce=  -1.6577E+02   energy=   4.3139E-03   setid =     854 xmoment=   0.0000E+00 ymoment=   0.0000E+00 zmoment=   0.0000E+00
 nd#     856  xforce=   0.0000E+00   yforce=   0.0000E+00  zforce=  -1.6901E+02   energy=   4.3576E-03   setid =     856 xmoment=   0.0000E+00 ymoment=   0.0000E+00 zmoment=   0.0000E+00
 nd#     858  xforce=   0.0000E+00   yforce=   0.0000E+00  zforce=  -7.5267E+01   energy=   2.1338E-03   setid =     858 xmoment=   0.0000E+00 ymoment=   0.0000E+00 zmoment=   0.0000E+00
 nd#     864  xforce=   0.0000E+00   yforce=   0.0000E+00  zforce=  -9.8138E+01   energy=   3.8094E-03   setid =     864 xmoment=   0.0000E+00 ymoment=   0.0000E+00 zmoment=   0.0000E+00
 nd#     866  xforce=   0.0000E+00   yforce=   0.0000E+00  zforce=  -1.6286E+02   energy=   4.5509E-03   setid =     866 xmoment=   0.0000E+00 ymoment=   0.0000E+00 zmoment=   0.0000E+00
 nd#     868  xforce=   0.0000E+00   yforce=   0.0000E+00  zforce=  -1.6618E+02   energy=   4.5305E-03   setid =     868 xmoment=   0.0000E+00 ymoment=   0.0000E+00 zmoment=   0.0000E+00
 nd#     870  xforce=   0.0000E+00   yforce=   0.0000E+00  zforce=  -3.4596E+01   energy=   1.7604E-03   setid =     870 xmoment=   0.0000E+00 ymoment=   0.0000E+00 zmoment=   0.0000E+00
 nd#     880  xforce=   0.0000E+00   yforce=   0.0000E+00  zforce=   4.2456E+01   energy=   4.2582E-05   setid =     880 xmoment=   0.0000E+00 ymoment=   0.0000E+00 zmoment=   0.0000E+00
 nd#     882  xforce=   0.0000E+00   yforce=   0.0000E+00  zforce=   3.4861E+01   energy=   2.9156E-05   setid =     882 xmoment=   0.0000E+00 ymoment=   0.0000E+00 zmoment=   0.0000E+00
 nd#     884  xforce=   0.0000E+00   yforce=   0.0000E+00  zforce=   7.0883E+01   energy=  -4.6952E-04   setid =     884 xmoment=   0.0000E+00 ymoment=   0.0000E+00 zmoment=   0.0000E+00
 nd#     886  xforce=   0.0000E+00   yforce=   0.0000E+00  zforce=   6.4734E+01   energy=  -5.6671E-04   setid =     886 xmoment=   0.0000E+00 ymoment=   0.0000E+00 zmoment=   0.0000E+00
              xtotal=   0.0000E+00   ytotal=   0.0000E+00  ztotal=  -2.6852E+03   etotal=   7.6441E-02

 n o d a l   f o r c e/e n e r g y    o u t p u t  t=   6.52946E+00

 velocity boundary condition forces/rigid body moments 

 nd#     167  xforce=   0.0000E+00   yforce=   0.0000E+00  zforce=  -1.2018E+02   energy=   4.5053E-03   setid =     167 xmoment=   0.0000E+00 ymoment=   0.0000E+00 zmoment=   0.0000E+00
 nd#     168  xforce=   0.0000E+00   yforce=   0.0000E+00  zforce=  -2.2112E+01   energy=   1.0213E-03   setid =     168 xmoment=   0.0000E+00 ymoment=   0.0000E+00 zmoment=   0.0000E+00
 nd#     169  xforce=   0.0000E+00   yforce=   0.0000E+00  zforce=   2.2664E+02   energy=  -5.8621E-03   setid =     169 xmoment=   0.0000E+00 ymoment=   0.0000E+00 zmoment=   0.0000E+00
 nd#     170  xforce=   0.0000E+00   yforce=   0.0000E+00  zforce=  -1.2499E+01   energy=   1.3194E-03   setid =     170 xmoment=   0.0000E+00 ymoment=   0.0000E+00 zmoment=   0.0000E+00
 nd#     197  xforce=   0.0000E+00   yforce=   0.0000E+00  zforce=  -1.6654E+01   energy=   1.1498E-03   setid =     197 xmoment=   0.0000E+00 ymoment=   0.0000E+00 zmoment=   0.0000E+00
 nd#     198  xforce=   0.0000E+00   yforce=   0.0000E+00  zforce=  -2.6066E+01   energy=   1.7185E-03   setid =     198 xmoment=   0.0000E+00 ymoment=   0.0000E+00 zmoment=   0.0000E+00
 nd#     225  xforce=   0.0000E+00   yforce=   0.0000E+00  zforce=  -1.1182E+02   energy=   3.9832E-03   setid =     225 xmoment=   0.0000E+00 ymoment=   0.0000E+00 zmoment=   0.0000E+00
 nd#     226  xforce=   0.0000E+00   yforce=   0.0000E+00  zforce=  -1.6803E+02   energy=   5.7534E-03   setid =     226 xmoment=   0.0000E+00 ymoment=   0.0000E+00 zmoment=   0.0000E+00
 nd#     279  xforce=   0.0000E+00   yforce=   0.0000E+00  zforce=  -2.0535E+02   energy=   6.6473E-03   setid =     279 xmoment=   0.0000E+00 ymoment=   0.0000E+00 zmoment=   0.0000E+00
 nd#     280  xforce=   0.0000E+00   yforce=   0.0000E+00  zforce=   8.9010E+01   energy=  -1.9792E-03   setid =     280 xmoment=   0.0000E+00 ymoment=   0.0000E+00 zmoment=   0.0000E+00
 nd#     281  xforce=   0.0000E+00   yforce=   0.0000E+00  zforce=  -3.4618E+01   energy=   1.5042E-03   setid =     281 xmoment=   0.0000E+00 ymoment=   0.0000E+00 zmoment=   0.0000E+00
 nd#     282  xforce=   0.0000E+00   yforce=   0.0000E+00  zforce=  -1.4258E+02   energy=   4.6054E-03   setid =     282 xmoment=   0.0000E+00 ymoment=   0.0000E+00 zmoment=   0.0000E+00
 nd#     296  xforce=   0.0000E+00   yforce=   0.0000E+00  zforce=  -1.0911E+02   energy=   3.8580E-03   setid =     296 xmoment=   0.0000E+00 ymoment=   0.0000E+00 zmoment=   0.0000E+00
 nd#     323  xforce=   0.0000E+00   yforce=   0.0000E+00  zforce=  -1.4155E+02   energy=   5.8974E-03   setid =     323 xmoment=   0.0000E+00 ymoment=   0.0000E+00 zmoment=   0.0000E+00
 nd#     324  xforce=   0.0000E+00   yforce=   0.0000E+00  zforce=  -7.3954E+01   energy=   3.6276E-03   setid =     324 xmoment=   0.0000E+00 ymoment=   0.0000E+00 zmoment=   0.0000E+00
 nd#     338  xforce=   0.0000E+00   yforce=   0.0000E+00  zforce=  -6.1492E+01   energy=   3.3881E-03   setid =     338 xmoment=   0.0000E+00 ymoment=   0.0000E+00 zmoment=   0.0000E+00
 nd#     352  xforce=   0.0000E+00   yforce=   0.0000E+00  zforce=  -9.2323E+01   energy=   3.4250E-03   setid =     352 xmoment=   0.0000E+00 ymoment=   0.0000E+00 zmoment=   0.0000E+00
 nd#     366  xforce=   0.0000E+00   yforce=   0.0000E+00  zforce=  -1.3699E+02   energy=   5.0422E-03   setid =     366 xmoment=   0.0000E+00 ymoment=   0.0000E+00 zmoment=   0.0000E+00
 nd#     380  xforce=   0.0000E+00   yforce=   0.0000E+00  zforce=  -8.1621E+01   energy=   3.2987E-03   setid =     380 xmoment=   0.0000E+00 ymoment=   0.0000E+00 zmoment=   0.0000E+00
 nd#     608  xforce=   0.0000E+00   yforce=   0.0000E+00  zforce=   6.4933E+00   energy=   8.1915E-05   setid =     608 xmoment=   0.0000E+00 ymoment=   0.0000E+00 zmoment=   0.0000E+00
 nd#     609  xforce=   0.0000E+00   yforce=   0.0000E+00  zforce=  -7.3153E+01   energy=   3.5598E-03   setid =     609 xmoment=   0.0000E+00 ymoment=   0.0000E+00 zmoment=   0.0000E+00
 nd#     610  xforce=   0.0000E+00   yforce=   0.0000E+00  zforce=  -9.8650E+01   energy=   4.2508E-03   setid =     610 xmoment=   0.0000E+00 ymoment=   0.0000E+00 zmoment=   0.0000E+00
 nd#     611  xforce=   0.0000E+00   yforce=   0.0000E+00  zforce=  -1.1862E+02   energy=   4.7015E-03   setid =     611 xmoment=   0.0000E+00 ymoment=   0.0000E+00 zmoment=   0.0000E+00
 nd#     804  xforce=   0.0000E+00   yforce=   0.0000E+00  zforce=  -9.2887E+01   energy=   4.8519E-03   setid =     804 xmoment=   0.0000E+00 ymoment=   0.0000E+00 zmoment=   0.0000E+00
 nd#     806  xforce=   0.0000E+00   yforce=   0.0000E+00  zforce=  -1.6442E+02   energy=   7.1227E-03   setid =     806 xmoment=   0.0000E+00 ymoment=   0.0000E+00 zmoment=   0.0000E+00
 nd#     808  xforce=   0.0000E+00   yforce=   0.0000E+00  zforce=  -1.3812E+02   energy=   6.1904E-03   setid =     808 xmoment=   0.0000E+00 ymoment=   0.0000E+00 zmoment=   0.0000E+00
 nd#     810  xforce=   0.0000E+00   yforce=   0.0000E+00  zforce=  -8.9214E+01   energy=   3.7706E-03   setid =     810 xmoment=   0.0000E+00 ymoment=   0.0000E+00 zmoment=   0.0000E+00
 nd#     852  xforce=   0.0000E+00   yforce=   0.0000E+00  zforce=  -1.1210E+02   energy=   5.8029E-03   setid =     852 xmoment=   0.0000E+00 ymoment=   0.0000E+00 zmoment=   0.0000E+00
 nd#     854  xforce=   0.0000E+00   yforce=   0.0000E+00  zforce=  -1.7033E+02   energy=   7.6590E-03   setid =     854 xmoment=   0.0000E+00 ymoment=   0.0000E+00 zmoment=   0.0000E+00
 nd#     856  xforce=   0.0000E+00   yforce=   0.0000E+00  zforce=  -1.7669E+02   energy=   7.7983E-03   setid =     856 xmoment=   0.0000E+00 ymoment=   0.0000E+00 zmoment=   0.0000E+00
 nd#     858  xforce=   0.0000E+00   yforce=   0.0000E+00  zforce=  -7.8738E+01   energy=   3.6666E-03   setid =     858 xmoment=   0.0000E+00 ymoment=   0.0000E+00 zmoment=   0.0000E+00
 nd#     864  xforce=   0.0000E+00   yforce=   0.0000E+00  zforce=  -1.0430E+02   energy=   5.8242E-03   setid =     864 xmoment=   0.0000E+00 ymoment=   0.0000E+00 zmoment=   0.0000E+00
 nd#     866  xforce=   0.0000E+00   yforce=   0.0000E+00  zforce=  -1.6777E+02   energy=   7.8415E-03   setid =     866 xmoment=   0.0000E+00 ymoment=   0.0000E+00 zmoment=   0.0000E+00
 nd#     868  xforce=   0.0000E+00   yforce=   0.0000E+00  zforce=  -1.6637E+02   energy=   7.8402E-03   setid =     868 xmoment=   0.0000E+00 ymoment=   0.0000E+00 zmoment=   0.0000E+00
 nd#     870  xforce=   0.0000E+00   yforce=   0.0000E+00  zforce=  -3.5299E+01   energy=   2.4560E-03   setid =     870 xmoment=   0.0000E+00 ymoment=   0.0000E+00 zmoment=   0.0000E+00
 nd#     880  xforce=   0.0000E+00   yforce=   0.0000E+00  zforce=   4.4724E+01   energy=  -8.2509E-04   setid =     880 xmoment=   0.0000E+00 ymoment=   0.0000E+00 zmoment=   0.0000E+00
 nd#     882  xforce=   0.0000E+00   yforce=   0.0000E+00  zforce=   4.0522E+01   energy=  -7.2111E-04   setid =     882 xmoment=   0.0000E+00 ymoment=   0.0000E+00 zmoment=   0.0000E+00
 nd#     884  xforce=   0.0000E+00   yforce=   0.0000E+00  zforce=   7.9484E+01   energy=  -1.9661E-03   setid =     884 xmoment=   0.0000E+00 ymoment=   0.0000E+00 zmoment=   0.0000E+00
 nd#     886  xforce=   0.0000E+00   yforce=   0.0000E+00  zforce=   6.7097E+01   energy=  -1.8788E-03   setid =     886 xmoment=   0.0000E+00 ymoment=   0.0000E+00 zmoment=   0.0000E+00
              xtotal=   0.0000E+00   ytotal=   0.0000E+00  ztotal=  -2.7896E+03   etotal=   1.3093E-01

 n o d a l   f o r c e/e n e r g y    o u t p u t  t=   9.68425E+00

 velocity boundary condition forces/rigid body moments 

 nd#     167  xforce=   0.0000E+00   yforce=   0.0000E+00  zforce=  -1.4222E+02   energy=   8.6444E-03   setid =     167 xmoment=   0.0000E+00 ymoment=   0.0000E+00 zmoment=   0.0000E+00
 nd#     168  xforce=   0.0000E+00   yforce=   0.0000E+00  zforce=  -3.1907E+01   energy=   1.8734E-03   setid =     168 xmoment=   0.0000E+00 ymoment=   0.0000E+00 zmoment=   0.0000E+00
 nd#     169  xforce=   0.0000E+00   yforce=   0.0000E+00  zforce=   2.5897E+02   energy=  -1.3522E-02   setid =     169 xmoment=   0.0000E+00 ymoment=   0.0000E+00 zmoment=   0.0000E+00
 nd#     170  xforce=   0.0000E+00   yforce=   0.0000E+00  zforce=  -2.0322E+00   energy=   1.5486E-03   setid =     170 xmoment=   0.0000E+00 ymoment=   0.0000E+00 zmoment=   0.0000E+00
 nd#     197  xforce=   0.0000E+00   yforce=   0.0000E+00  zforce=  -1.6259E+01   energy=   1.6689E-03   setid =     197 xmoment=   0.0000E+00 ymoment=   0.0000E+00 zmoment=   0.0000E+00
 nd#     198  xforce=   0.0000E+00   yforce=   0.0000E+00  zforce=  -3.6477E+01   energy=   2.7050E-03   setid =     198 xmoment=   0.0000E+00 ymoment=   0.0000E+00 zmoment=   0.0000E+00
 nd#     225  xforce=   0.0000E+00   yforce=   0.0000E+00  zforce=  -1.2952E+02   energy=   7.7901E-03   setid =     225 xmoment=   0.0000E+00 ymoment=   0.0000E+00 zmoment=   0.0000E+00
 nd#     226  xforce=   0.0000E+00   yforce=   0.0000E+00  zforce=  -1.8776E+02   energy=   1.1366E-02   setid =     226 xmoment=   0.0000E+00 ymoment=   0.0000E+00 zmoment=   0.0000E+00
 nd#     279  xforce=   0.0000E+00   yforce=   0.0000E+00  zforce=  -2.4022E+02   energy=   1.3676E-02   setid =     279 xmoment=   0.0000E+00 ymoment=   0.0000E+00 zmoment=   0.0000E+00
 nd#     280  xforce=   0.0000E+00   yforce=   0.0000E+00  zforce=   9.9698E+01   energy=  -4.9558E-03   setid =     280 xmoment=   0.0000E+00 ymoment=   0.0000E+00 zmoment=   0.0000E+00
 nd#     281  xforce=   0.0000E+00   yforce=   0.0000E+00  zforce=  -3.7065E+01   energy=   2.6350E-03   setid =     281 xmoment=   0.0000E+00 ymoment=   0.0000E+00 zmoment=   0.0000E+00
 nd#     282  xforce=   0.0000E+00   yforce=   0.0000E+00  zforce=  -1.6381E+02   energy=   9.4383E-03   setid =     282 xmoment=   0.0000E+00 ymoment=   0.0000E+00 zmoment=   0.0000E+00
 nd#     296  xforce=   0.0000E+00   yforce=   0.0000E+00  zforce=  -1.1352E+02   energy=   7.3698E-03   setid =     296 xmoment=   0.0000E+00 ymoment=   0.0000E+00 zmoment=   0.0000E+00
 nd#     323  xforce=   0.0000E+00   yforce=   0.0000E+00  zforce=  -1.7197E+02   energy=   1.0843E-02   setid =     323 xmoment=   0.0000E+00 ymoment=   0.0000E+00 zmoment=   0.0000E+00
 nd#     324  xforce=   0.0000E+00   yforce=   0.0000E+00  zforce=  -8.9784E+01   energy=   6.2104E-03   setid =     324 xmoment=   0.0000E+00 ymoment=   0.0000E+00 zmoment=   0.0000E+00
 nd#     338  xforce=   0.0000E+00   yforce=   0.0000E+00  zforce=  -7.0118E+01   energy=   5.4641E-03   setid =     338 xmoment=   0.0000E+00 ymoment=   0.0000E+00 zmoment=   0.0000E+00
 nd#     352  xforce=   0.0000E+00   yforce=   0.0000E+00  zforce=  -1.0061E+02   energy=   6.4683E-03   setid =     352 xmoment=   0.0000E+00 ymoment=   0.0000E+00 zmoment=   0.0000E+00
 nd#     366  xforce=   0.0000E+00   yforce=   0.0000E+00  zforce=  -1.5172E+02   energy=   9.5963E-03   setid =     366 xmoment=   0.0000E+00 ymoment=   0.0000E+00 zmoment=   0.0000E+00
 nd#     380  xforce=   0.0000E+00   yforce=   0.0000E+00  zforce=  -8.9577E+01   energy=   5.9991E-03   setid =     380 xmoment=   0.0000E+00 ymoment=   0.0000E+00 zmoment=   0.0000E+00
 nd#     608  xforce=   0.0000E+00   yforce=   0.0000E+00  zforce=   6.1062E+00   energy=  -1.1683E-04   setid =     608 xmoment=   0.0000E+00 ymoment=   0.0000E+00 zmoment=   0.0000E+00
 nd#     609  xforce=   0.0000E+00   yforce=   0.0000E+00  zforce=  -8.4655E+01   energy=   6.0491E-03   setid =     609 xmoment=   0.0000E+00 ymoment=   0.0000E+00 zmoment=   0.0000E+00
 nd#     610  xforce=   0.0000E+00   yforce=   0.0000E+00  zforce=  -1.0937E+02   energy=   7.5321E-03   setid =     610 xmoment=   0.0000E+00 ymoment=   0.0000E+00 zmoment=   0.0000E+00
 nd#     611  xforce=   0.0000E+00   yforce=   0.0000E+00  zforce=  -1.3230E+02   energy=   8.6594E-03   setid =     611 xmoment=   0.0000E+00 ymoment=   0.0000E+00 zmoment=   0.0000E+00
 nd#     804  xforce=   0.0000E+00   yforce=   0.0000E+00  zforce=  -1.0364E+02   energy=   7.9519E-03   setid =     804 xmoment=   0.0000E+00 ymoment=   0.0000E+00 zmoment=   0.0000E+00
 nd#     806  xforce=   0.0000E+00   yforce=   0.0000E+00  zforce=  -1.9254E+02   energy=   1.2754E-02   setid =     806 xmoment=   0.0000E+00 ymoment=   0.0000E+00 zmoment=   0.0000E+00
 nd#     808  xforce=   0.0000E+00   yforce=   0.0000E+00  zforce=  -1.6348E+02   energy=   1.0948E-02   setid =     808 xmoment=   0.0000E+00 ymoment=   0.0000E+00 zmoment=   0.0000E+00
 nd#     810  xforce=   0.0000E+00   yforce=   0.0000E+00  zforce=  -9.4115E+01   energy=   6.6625E-03   setid =     810 xmoment=   0.0000E+00 ymoment=   0.0000E+00 zmoment=   0.0000E+00
 nd#     852  xforce=   0.0000E+00   yforce=   0.0000E+00  zforce=  -1.2123E+02   energy=   9.4834E-03   setid =     852 xmoment=   0.0000E+00 ymoment=   0.0000E+00 zmoment=   0.0000E+00
 nd#     854  xforce=   0.0000E+00   yforce=   0.0000E+00  zforce=  -1.9495E+02   energy=   1.3421E-02   setid =     854 xmoment=   0.0000E+00 ymoment=   0.0000E+00 zmoment=   0.0000E+00
 nd#     856  xforce=   0.0000E+00   yforce=   0.0000E+00  zforce=  -2.0011E+02   energy=   1.3742E-02   setid =     856 xmoment=   0.0000E+00 ymoment=   0.0000E+00 zmoment=   0.0000E+00
 nd#     858  xforce=   0.0000E+00   yforce=   0.0000E+00  zforce=  -8.2804E+01   energy=   6.2147E-03   setid =     858 xmoment=   0.0000E+00 ymoment=   0.0000E+00 zmoment=   0.0000E+00
 nd#     864  xforce=   0.0000E+00   yforce=   0.0000E+00  zforce=  -1.1863E+02   energy=   9.3407E-03   setid =     864 xmoment=   0.0000E+00 ymoment=   0.0000E+00 zmoment=   0.0000E+00
 nd#     866  xforce=   0.0000E+00   yforce=   0.0000E+00  zforce=  -1.9567E+02   energy=   1.3574E-02   setid =     866 xmoment=   0.0000E+00 ymoment=   0.0000E+00 zmoment=   0.0000E+00
 nd#     868  xforce=   0.0000E+00   yforce=   0.0000E+00  zforce=  -1.8475E+02   energy=   1.3379E-02   setid =     868 xmoment=   0.0000E+00 ymoment=   0.0000E+00 zmoment=   0.0000E+00
 nd#     870  xforce=   0.0000E+00   yforce=   0.0000E+00  zforce=  -3.7841E+01   energy=   3.6097E-03   setid =     870 xmoment=   0.0000E+00 ymoment=   0.0000E+00 zmoment=   0.0000E+00
 nd#     880  xforce=   0.0000E+00   yforce=   0.0000E+00  zforce=   4.9383E+01   energy=  -2.3095E-03   setid =     880 xmoment=   0.0000E+00 ymoment=   0.0000E+00 zmoment=   0.0000E+00
 nd#     882  xforce=   0.0000E+00   yforce=   0.0000E+00  zforce=   4.1042E+01   energy=  -2.0077E-03   setid =     882 xmoment=   0.0000E+00 ymoment=   0.0000E+00 zmoment=   0.0000E+00
 nd#     884  xforce=   0.0000E+00   yforce=   0.0000E+00  zforce=   9.1253E+01   energy=  -4.6593E-03   setid =     884 xmoment=   0.0000E+00 ymoment=   0.0000E+00 zmoment=   0.0000E+00
 nd#     886  xforce=   0.0000E+00   yforce=   0.0000E+00  zforce=   7.2431E+01   energy=  -4.0797E-03   setid =     886 xmoment=   0.0000E+00 ymoment=   0.0000E+00 zmoment=   0.0000E+00
              xtotal=   0.0000E+00   ytotal=   0.0000E+00  ztotal=  -3.1718E+03   etotal=   2.2497E-01

 n o d a l   f o r c e/e n e r g y    o u t p u t  t=   1.28390E+01

 velocity boundary condition forces/rigid body moments 

 nd#     167  xforce=   0.0000E+00   yforce=   0.0000E+00  zforce=  -1.5106E+02   energy=   1.3271E-02   setid =     167 xmoment=   0.0000E+00 ymoment=   0.0000E+00 zmoment=   0.0000E+00
 nd#     168  xforce=   0.0000E+00   yforce=   0.0000E+00  zforce=  -3.2907E+01   energy=   2.8958E-03   setid =     168 xmoment=   0.0000E+00 ymoment=   0.0000E+00 zmoment=   0.0000E+00
 nd#     169  xforce=   0.0000E+00   yforce=   0.0000E+00  zforce=   2.6390E+02   energy=  -2.1770E-02   setid =     169 xmoment=   0.0000E+00 ymoment=   0.0000E+00 zmoment=   0.0000E+00
 nd#     170  xforce=   0.0000E+00   yforce=   0.0000E+00  zforce=  -4.9405E+00   energy=   1.6586E-03   setid =     170 xmoment=   0.0000E+00 ymoment=   0.0000E+00 zmoment=   0.0000E+00
 nd#     197  xforce=   0.0000E+00   yforce=   0.0000E+00  zforce=  -1.0126E+01   energy=   2.0851E-03   setid =     197 xmoment=   0.0000E+00 ymoment=   0.0000E+00 zmoment=   0.0000E+00
 nd#     198  xforce=   0.0000E+00   yforce=   0.0000E+00  zforce=  -3.9409E+01   energy=   3.9021E-03   setid =     198 xmoment=   0.0000E+00 ymoment=   0.0000E+00 zmoment=   0.0000E+00
 nd#     225  xforce=   0.0000E+00   yforce=   0.0000E+00  zforce=  -1.5107E+02   energy=   1.2216E-02   setid =     225 xmoment=   0.0000E+00 ymoment=   0.0000E+00 zmoment=   0.0000E+00
 nd#     226  xforce=   0.0000E+00   yforce=   0.0000E+00  zforce=  -1.9360E+02   energy=   1.7381E-02   setid =     226 xmoment=   0.0000E+00 ymoment=   0.0000E+00 zmoment=   0.0000E+00
 nd#     279  xforce=   0.0000E+00   yforce=   0.0000E+00  zforce=  -2.4785E+02   energy=   2.1375E-02   setid =     279 xmoment=   0.0000E+00 ymoment=   0.0000E+00 zmoment=   0.0000E+00
 nd#     280  xforce=   0.0000E+00   yforce=   0.0000E+00  zforce=   9.4994E+01   energy=  -8.0269E-03   setid =     280 xmoment=   0.0000E+00 ymoment=   0.0000E+00 zmoment=   0.0000E+00
 nd#     281  xforce=   0.0000E+00   yforce=   0.0000E+00  zforce=  -4.8573E+01   energy=   3.9858E-03   setid =     281 xmoment=   0.0000E+00 ymoment=   0.0000E+00 zmoment=   0.0000E+00
 nd#     282  xforce=   0.0000E+00   yforce=   0.0000E+00  zforce=  -1.7007E+02   energy=   1.4705E-02   setid =     282 xmoment=   0.0000E+00 ymoment=   0.0000E+00 zmoment=   0.0000E+00
 nd#     296  xforce=   0.0000E+00   yforce=   0.0000E+00  zforce=  -1.1099E+02   energy=   1.0911E-02   setid =     296 xmoment=   0.0000E+00 ymoment=   0.0000E+00 zmoment=   0.0000E+00
 nd#     323  xforce=   0.0000E+00   yforce=   0.0000E+00  zforce=  -1.8295E+02   energy=   1.6441E-02   setid =     323 xmoment=   0.0000E+00 ymoment=   0.0000E+00 zmoment=   0.0000E+00
 nd#     324  xforce=   0.0000E+00   yforce=   0.0000E+00  zforce=  -9.9515E+01   energy=   9.1964E-03   setid =     324 xmoment=   0.0000E+00 ymoment=   0.0000E+00 zmoment=   0.0000E+00
 nd#     338  xforce=   0.0000E+00   yforce=   0.0000E+00  zforce=  -8.4733E+01   energy=   7.9067E-03   setid =     338 xmoment=   0.0000E+00 ymoment=   0.0000E+00 zmoment=   0.0000E+00
 nd#     352  xforce=   0.0000E+00   yforce=   0.0000E+00  zforce=  -1.0279E+02   energy=   9.6769E-03   setid =     352 xmoment=   0.0000E+00 ymoment=   0.0000E+00 zmoment=   0.0000E+00
 nd#     366  xforce=   0.0000E+00   yforce=   0.0000E+00  zforce=  -1.5615E+02   energy=   1.4453E-02   setid =     366 xmoment=   0.0000E+00 ymoment=   0.0000E+00 zmoment=   0.0000E+00
 nd#     380  xforce=   0.0000E+00   yforce=   0.0000E+00  zforce=  -9.3963E+01   energy=   8.8943E-03   setid =     380 xmoment=   0.0000E+00 ymoment=   0.0000E+00 zmoment=   0.0000E+00
 nd#     608  xforce=   0.0000E+00   yforce=   0.0000E+00  zforce=   7.6817E+00   energy=  -3.3432E-04   setid =     608 xmoment=   0.0000E+00 ymoment=   0.0000E+00 zmoment=   0.0000E+00
 nd#     609  xforce=   0.0000E+00   yforce=   0.0000E+00  zforce=  -8.7784E+01   energy=   8.7691E-03   setid =     609 xmoment=   0.0000E+00 ymoment=   0.0000E+00 zmoment=   0.0000E+00
 nd#     610  xforce=   0.0000E+00   yforce=   0.0000E+00  zforce=  -1.1360E+02   energy=   1.1049E-02   setid =     610 xmoment=   0.0000E+00 ymoment=   0.0000E+00 zmoment=   0.0000E+00
 nd#     611  xforce=   0.0000E+00   yforce=   0.0000E+00  zforce=  -1.3572E+02   energy=   1.2887E-02   setid =     611 xmoment=   0.0000E+00 ymoment=   0.0000E+00 zmoment=   0.0000E+00
 nd#     804  xforce=   0.0000E+00   yforce=   0.0000E+00  zforce=  -1.1553E+02   energy=   1.1409E-02   setid =     804 xmoment=   0.0000E+00 ymoment=   0.0000E+00 zmoment=   0.0000E+00
 nd#     806  xforce=   0.0000E+00   yforce=   0.0000E+00  zforce=  -2.0446E+02   energy=   1.9016E-02   setid =     806 xmoment=   0.0000E+00 ymoment=   0.0000E+00 zmoment=   0.0000E+00
 nd#     808  xforce=   0.0000E+00   yforce=   0.0000E+00  zforce=  -1.7599E+02   energy=   1.6302E-02   setid =     808 xmoment=   0.0000E+00 ymoment=   0.0000E+00 zmoment=   0.0000E+00
 nd#     810  xforce=   0.0000E+00   yforce=   0.0000E+00  zforce=  -9.6534E+01   energy=   9.6697E-03   setid =     810 xmoment=   0.0000E+00 ymoment=   0.0000E+00 zmoment=   0.0000E+00
 nd#     852  xforce=   0.0000E+00   yforce=   0.0000E+00  zforce=  -1.3168E+02   energy=   1.3473E-02   setid =     852 xmoment=   0.0000E+00 ymoment=   0.0000E+00 zmoment=   0.0000E+00
 nd#     854  xforce=   0.0000E+00   yforce=   0.0000E+00  zforce=  -2.0769E+02   energy=   1.9772E-02   setid =     854 xmoment=   0.0000E+00 ymoment=   0.0000E+00 zmoment=   0.0000E+00
 nd#     856  xforce=   0.0000E+00   yforce=   0.0000E+00  zforce=  -2.1062E+02   energy=   2.0221E-02   setid =     856 xmoment=   0.0000E+00 ymoment=   0.0000E+00 zmoment=   0.0000E+00
 nd#     858  xforce=   0.0000E+00   yforce=   0.0000E+00  zforce=  -8.4996E+01   energy=   8.8616E-03   setid =     858 xmoment=   0.0000E+00 ymoment=   0.0000E+00 zmoment=   0.0000E+00
 nd#     864  xforce=   0.0000E+00   yforce=   0.0000E+00  zforce=  -1.2661E+02   energy=   1.3209E-02   setid =     864 xmoment=   0.0000E+00 ymoment=   0.0000E+00 zmoment=   0.0000E+00
 nd#     866  xforce=   0.0000E+00   yforce=   0.0000E+00  zforce=  -2.0827E+02   energy=   1.9946E-02   setid =     866 xmoment=   0.0000E+00 ymoment=   0.0000E+00 zmoment=   0.0000E+00
 nd#     868  xforce=   0.0000E+00   yforce=   0.0000E+00  zforce=  -1.8985E+02   energy=   1.9288E-02   setid =     868 xmoment=   0.0000E+00 ymoment=   0.0000E+00 zmoment=   0.0000E+00
 nd#     870  xforce=   0.0000E+00   yforce=   0.0000E+00  zforce=  -3.8402E+01   energy=   4.8124E-03   setid =     870 xmoment=   0.0000E+00 ymoment=   0.0000E+00 zmoment=   0.0000E+00
 nd#     880  xforce=   0.0000E+00   yforce=   0.0000E+00  zforce=   5.3561E+01   energy=  -3.9334E-03   setid =     880 xmoment=   0.0000E+00 ymoment=   0.0000E+00 zmoment=   0.0000E+00
 nd#     882  xforce=   0.0000E+00   yforce=   0.0000E+00  zforce=   4.6774E+01   energy=  -3.3929E-03   setid =     882 xmoment=   0.0000E+00 ymoment=   0.0000E+00 zmoment=   0.0000E+00
 nd#     884  xforce=   0.0000E+00   yforce=   0.0000E+00  zforce=   1.0160E+02   energy=  -7.7013E-03   setid =     884 xmoment=   0.0000E+00 ymoment=   0.0000E+00 zmoment=   0.0000E+00
 nd#     886  xforce=   0.0000E+00   yforce=   0.0000E+00  zforce=   7.6520E+01   energy=  -6.4292E-03   setid =     886 xmoment=   0.0000E+00 ymoment=   0.0000E+00 zmoment=   0.0000E+00
              xtotal=   0.0000E+00   ytotal=   0.0000E+00  ztotal=  -3.3634E+03   etotal=   3.2805E-01

 n o d a l   f o r c e/e n e r g y    o u t p u t  t=   1.59938E+01

 velocity boundary condition forces/rigid body moments 

 nd#     167  xforce=   0.0000E+00   yforce=   0.0000E+00  zforce=  -1.5606E+02   energy=   1.8115E-02   setid =     167 xmoment=   0.0000E+00 ymoment=   0.0000E+00 zmoment=   0.0000E+00
 nd#     168  xforce=   0.0000E+00   yforce=   0.0000E+00  zforce=  -3.2615E+01   energy=   3.9293E-03   setid =     168 xmoment=   0.0000E+00 ymoment=   0.0000E+00 zmoment=   0.0000E+00
 nd#     169  xforce=   0.0000E+00   yforce=   0.0000E+00  zforce=   2.5882E+02   energy=  -3.0015E-02   setid =     169 xmoment=   0.0000E+00 ymoment=   0.0000E+00 zmoment=   0.0000E+00
 nd#     170  xforce=   0.0000E+00   yforce=   0.0000E+00  zforce=  -8.8949E+00   energy=   1.8768E-03   setid =     170 xmoment=   0.0000E+00 ymoment=   0.0000E+00 zmoment=   0.0000E+00
 nd#     197  xforce=   0.0000E+00   yforce=   0.0000E+00  zforce=  -4.3663E+00   energy=   2.3137E-03   setid =     197 xmoment=   0.0000E+00 ymoment=   0.0000E+00 zmoment=   0.0000E+00
 nd#     198  xforce=   0.0000E+00   yforce=   0.0000E+00  zforce=  -4.1960E+01   energy=   5.1856E-03   setid =     198 xmoment=   0.0000E+00 ymoment=   0.0000E+00 zmoment=   0.0000E+00
 nd#     225  xforce=   0.0000E+00   yforce=   0.0000E+00  zforce=  -1.5140E+02   energy=   1.6987E-02   setid =     225 xmoment=   0.0000E+00 ymoment=   0.0000E+00 zmoment=   0.0000E+00
 nd#     226  xforce=   0.0000E+00   yforce=   0.0000E+00  zforce=  -1.9568E+02   energy=   2.3522E-02   setid =     226 xmoment=   0.0000E+00 ymoment=   0.0000E+00 zmoment=   0.0000E+00
 nd#     279  xforce=   0.0000E+00   yforce=   0.0000E+00  zforce=  -2.4857E+02   energy=   2.9205E-02   setid =     279 xmoment=   0.0000E+00 ymoment=   0.0000E+00 zmoment=   0.0000E+00
 nd#     280  xforce=   0.0000E+00   yforce=   0.0000E+00  zforce=   9.2003E+01   energy=  -1.0977E-02   setid =     280 xmoment=   0.0000E+00 ymoment=   0.0000E+00 zmoment=   0.0000E+00
 nd#     281  xforce=   0.0000E+00   yforce=   0.0000E+00  zforce=  -5.8580E+01   energy=   5.6760E-03   setid =     281 xmoment=   0.0000E+00 ymoment=   0.0000E+00 zmoment=   0.0000E+00
 nd#     282  xforce=   0.0000E+00   yforce=   0.0000E+00  zforce=  -1.7178E+02   energy=   2.0097E-02   setid =     282 xmoment=   0.0000E+00 ymoment=   0.0000E+00 zmoment=   0.0000E+00
 nd#     296  xforce=   0.0000E+00   yforce=   0.0000E+00  zforce=  -1.0841E+02   energy=   1.4372E-02   setid =     296 xmoment=   0.0000E+00 ymoment=   0.0000E+00 zmoment=   0.0000E+00
 nd#     323  xforce=   0.0000E+00   yforce=   0.0000E+00  zforce=  -1.8909E+02   energy=   2.2310E-02   setid =     323 xmoment=   0.0000E+00 ymoment=   0.0000E+00 zmoment=   0.0000E+00
 nd#     324  xforce=   0.0000E+00   yforce=   0.0000E+00  zforce=  -1.0881E+02   energy=   1.2482E-02   setid =     324 xmoment=   0.0000E+00 ymoment=   0.0000E+00 zmoment=   0.0000E+00
 nd#     338  xforce=   0.0000E+00   yforce=   0.0000E+00  zforce=  -9.1073E+01   energy=   1.0680E-02   setid =     338 xmoment=   0.0000E+00 ymoment=   0.0000E+00 zmoment=   0.0000E+00
 nd#     352  xforce=   0.0000E+00   yforce=   0.0000E+00  zforce=  -1.0283E+02   energy=   1.2920E-02   setid =     352 xmoment=   0.0000E+00 ymoment=   0.0000E+00 zmoment=   0.0000E+00
 nd#     366  xforce=   0.0000E+00   yforce=   0.0000E+00  zforce=  -1.5604E+02   energy=   1.9377E-02   setid =     366 xmoment=   0.0000E+00 ymoment=   0.0000E+00 zmoment=   0.0000E+00
 nd#     380  xforce=   0.0000E+00   yforce=   0.0000E+00  zforce=  -9.4686E+01   energy=   1.1870E-02   setid =     380 xmoment=   0.0000E+00 ymoment=   0.0000E+00 zmoment=   0.0000E+00
 nd#     608  xforce=   0.0000E+00   yforce=   0.0000E+00  zforce=   8.7484E+00   energy=  -5.9349E-04   setid =     608 xmoment=   0.0000E+00 ymoment=   0.0000E+00 zmoment=   0.0000E+00
 nd#     609  xforce=   0.0000E+00   yforce=   0.0000E+00  zforce=  -8.7645E+01   energy=   1.1536E-02   setid =     609 xmoment=   0.0000E+00 ymoment=   0.0000E+00 zmoment=   0.0000E+00
 nd#     610  xforce=   0.0000E+00   yforce=   0.0000E+00  zforce=  -1.1356E+02   energy=   1.4632E-02   setid =     610 xmoment=   0.0000E+00 ymoment=   0.0000E+00 zmoment=   0.0000E+00
 nd#     611  xforce=   0.0000E+00   yforce=   0.0000E+00  zforce=  -1.3541E+02   energy=   1.7164E-02   setid =     611 xmoment=   0.0000E+00 ymoment=   0.0000E+00 zmoment=   0.0000E+00
 nd#     804  xforce=   0.0000E+00   yforce=   0.0000E+00  zforce=  -1.2064E+02   energy=   1.5135E-02   setid =     804 xmoment=   0.0000E+00 ymoment=   0.0000E+00 zmoment=   0.0000E+00
 nd#     806  xforce=   0.0000E+00   yforce=   0.0000E+00  zforce=  -2.1113E+02   energy=   2.5571E-02   setid =     806 xmoment=   0.0000E+00 ymoment=   0.0000E+00 zmoment=   0.0000E+00
 nd#     808  xforce=   0.0000E+00   yforce=   0.0000E+00  zforce=  -1.8036E+02   energy=   2.1923E-02   setid =     808 xmoment=   0.0000E+00 ymoment=   0.0000E+00 zmoment=   0.0000E+00
 nd#     810  xforce=   0.0000E+00   yforce=   0.0000E+00  zforce=  -9.5228E+01   energy=   1.2695E-02   setid =     810 xmoment=   0.0000E+00 ymoment=   0.0000E+00 zmoment=   0.0000E+00
 nd#     852  xforce=   0.0000E+00   yforce=   0.0000E+00  zforce=  -1.3568E+02   energy=   1.7690E-02   setid =     852 xmoment=   0.0000E+00 ymoment=   0.0000E+00 zmoment=   0.0000E+00
 nd#     854  xforce=   0.0000E+00   yforce=   0.0000E+00  zforce=  -2.1453E+02   energy=   2.6432E-02   setid =     854 xmoment=   0.0000E+00 ymoment=   0.0000E+00 zmoment=   0.0000E+00
 nd#     856  xforce=   0.0000E+00   yforce=   0.0000E+00  zforce=  -2.1743E+02   energy=   2.6973E-02   setid =     856 xmoment=   0.0000E+00 ymoment=   0.0000E+00 zmoment=   0.0000E+00
 nd#     858  xforce=   0.0000E+00   yforce=   0.0000E+00  zforce=  -8.5070E+01   energy=   1.1544E-02   setid =     858 xmoment=   0.0000E+00 ymoment=   0.0000E+00 zmoment=   0.0000E+00
 nd#     864  xforce=   0.0000E+00   yforce=   0.0000E+00  zforce=  -1.3043E+02   energy=   1.7264E-02   setid =     864 xmoment=   0.0000E+00 ymoment=   0.0000E+00 zmoment=   0.0000E+00
 nd#     866  xforce=   0.0000E+00   yforce=   0.0000E+00  zforce=  -2.1459E+02   energy=   2.6616E-02   setid =     866 xmoment=   0.0000E+00 ymoment=   0.0000E+00 zmoment=   0.0000E+00
 nd#     868  xforce=   0.0000E+00   yforce=   0.0000E+00  zforce=  -1.8890E+02   energy=   2.5262E-02   setid =     868 xmoment=   0.0000E+00 ymoment=   0.0000E+00 zmoment=   0.0000E+00
 nd#     870  xforce=   0.0000E+00   yforce=   0.0000E+00  zforce=  -3.7715E+01   energy=   6.0130E-03   setid =     870 xmoment=   0.0000E+00 ymoment=   0.0000E+00 zmoment=   0.0000E+00
 nd#     880  xforce=   0.0000E+00   yforce=   0.0000E+00  zforce=   5.6131E+01   energy=  -5.6636E-03   setid =     880 xmoment=   0.0000E+00 ymoment=   0.0000E+00 zmoment=   0.0000E+00
 nd#     882  xforce=   0.0000E+00   yforce=   0.0000E+00  zforce=   4.9677E+01   energy=  -4.9143E-03   setid =     882 xmoment=   0.0000E+00 ymoment=   0.0000E+00 zmoment=   0.0000E+00
 nd#     884  xforce=   0.0000E+00   yforce=   0.0000E+00  zforce=   1.0716E+02   energy=  -1.0994E-02   setid =     884 xmoment=   0.0000E+00 ymoment=   0.0000E+00 zmoment=   0.0000E+00
 nd#     886  xforce=   0.0000E+00   yforce=   0.0000E+00  zforce=   7.9053E+01   energy=  -8.8832E-03   setid =     886 xmoment=   0.0000E+00 ymoment=   0.0000E+00 zmoment=   0.0000E+00
              xtotal=   0.0000E+00   ytotal=   0.0000E+00  ztotal=  -3.4376E+03   etotal=   4.3533E-01

 n o d a l   f o r c e/e n e r g y    o u t p u t  t=   1.91486E+01

 velocity boundary condition forces/rigid body moments 

 nd#     167  xforce=   0.0000E+00   yforce=   0.0000E+00  zforce=  -1.6068E+02   energy=   2.3111E-02   setid =     167 xmoment=   0.0000E+00 ymoment=   0.0000E+00 zmoment=   0.0000E+00
 nd#     168  xforce=   0.0000E+00   yforce=   0.0000E+00  zforce=  -4.2791E+01   energy=   5.1187E-03   setid =     168 xmoment=   0.0000E+00 ymoment=   0.0000E+00 zmoment=   0.0000E+00
 nd#     169  xforce=   0.0000E+00   yforce=   0.0000E+00  zforce=   2.3836E+02   energy=  -3.7857E-02   setid =     169 xmoment=   0.0000E+00 ymoment=   0.0000E+00 zmoment=   0.0000E+00
 nd#     170  xforce=   0.0000E+00   yforce=   0.0000E+00  zforce=  -1.3985E+01   energy=   2.2378E-03   setid =     170 xmoment=   0.0000E+00 ymoment=   0.0000E+00 zmoment=   0.0000E+00
 nd#     197  xforce=   0.0000E+00   yforce=   0.0000E+00  zforce=  -7.9214E+00   energy=   2.5076E-03   setid =     197 xmoment=   0.0000E+00 ymoment=   0.0000E+00 zmoment=   0.0000E+00
 nd#     198  xforce=   0.0000E+00   yforce=   0.0000E+00  zforce=  -4.4177E+01   energy=   6.5443E-03   setid =     198 xmoment=   0.0000E+00 ymoment=   0.0000E+00 zmoment=   0.0000E+00
 nd#     225  xforce=   0.0000E+00   yforce=   0.0000E+00  zforce=  -1.2064E+02   energy=   2.1278E-02   setid =     225 xmoment=   0.0000E+00 ymoment=   0.0000E+00 zmoment=   0.0000E+00
 nd#     226  xforce=   0.0000E+00   yforce=   0.0000E+00  zforce=  -1.7204E+02   energy=   2.9322E-02   setid =     226 xmoment=   0.0000E+00 ymoment=   0.0000E+00 zmoment=   0.0000E+00
 nd#     279  xforce=   0.0000E+00   yforce=   0.0000E+00  zforce=  -2.1189E+02   energy=   3.6468E-02   setid =     279 xmoment=   0.0000E+00 ymoment=   0.0000E+00 zmoment=   0.0000E+00
 nd#     280  xforce=   0.0000E+00   yforce=   0.0000E+00  zforce=   7.0946E+01   energy=  -1.3547E-02   setid =     280 xmoment=   0.0000E+00 ymoment=   0.0000E+00 zmoment=   0.0000E+00
 nd#     281  xforce=   0.0000E+00   yforce=   0.0000E+00  zforce=  -6.8114E+01   energy=   7.6745E-03   setid =     281 xmoment=   0.0000E+00 ymoment=   0.0000E+00 zmoment=   0.0000E+00
 nd#     282  xforce=   0.0000E+00   yforce=   0.0000E+00  zforce=  -1.5561E+02   energy=   2.5261E-02   setid =     282 xmoment=   0.0000E+00 ymoment=   0.0000E+00 zmoment=   0.0000E+00
 nd#     296  xforce=   0.0000E+00   yforce=   0.0000E+00  zforce=  -9.2756E+01   energy=   1.7545E-02   setid =     296 xmoment=   0.0000E+00 ymoment=   0.0000E+00 zmoment=   0.0000E+00
 nd#     323  xforce=   0.0000E+00   yforce=   0.0000E+00  zforce=  -1.8626E+02   energy=   2.8231E-02   setid =     323 xmoment=   0.0000E+00 ymoment=   0.0000E+00 zmoment=   0.0000E+00
 nd#     324  xforce=   0.0000E+00   yforce=   0.0000E+00  zforce=  -1.0721E+02   energy=   1.5890E-02   setid =     324 xmoment=   0.0000E+00 ymoment=   0.0000E+00 zmoment=   0.0000E+00
 nd#     338  xforce=   0.0000E+00   yforce=   0.0000E+00  zforce=  -9.3854E+01   energy=   1.3597E-02   setid =     338 xmoment=   0.0000E+00 ymoment=   0.0000E+00 zmoment=   0.0000E+00
 nd#     352  xforce=   0.0000E+00   yforce=   0.0000E+00  zforce=  -9.4758E+01   energy=   1.6037E-02   setid =     352 xmoment=   0.0000E+00 ymoment=   0.0000E+00 zmoment=   0.0000E+00
 nd#     366  xforce=   0.0000E+00   yforce=   0.0000E+00  zforce=  -1.4193E+02   energy=   2.4077E-02   setid =     366 xmoment=   0.0000E+00 ymoment=   0.0000E+00 zmoment=   0.0000E+00
 nd#     380  xforce=   0.0000E+00   yforce=   0.0000E+00  zforce=  -8.6197E+01   energy=   1.4723E-02   setid =     380 xmoment=   0.0000E+00 ymoment=   0.0000E+00 zmoment=   0.0000E+00
 nd#     608  xforce=   0.0000E+00   yforce=   0.0000E+00  zforce=   1.0519E+01   energy=  -8.9741E-04   setid =     608 xmoment=   0.0000E+00 ymoment=   0.0000E+00 zmoment=   0.0000E+00
 nd#     609  xforce=   0.0000E+00   yforce=   0.0000E+00  zforce=  -8.4743E+01   energy=   1.4256E-02   setid =     609 xmoment=   0.0000E+00 ymoment=   0.0000E+00 zmoment=   0.0000E+00
 nd#     610  xforce=   0.0000E+00   yforce=   0.0000E+00  zforce=  -1.0766E+02   energy=   1.8122E-02   setid =     610 xmoment=   0.0000E+00 ymoment=   0.0000E+00 zmoment=   0.0000E+00
 nd#     611  xforce=   0.0000E+00   yforce=   0.0000E+00  zforce=  -1.2354E+02   energy=   2.1249E-02   setid =     611 xmoment=   0.0000E+00 ymoment=   0.0000E+00 zmoment=   0.0000E+00
 nd#     804  xforce=   0.0000E+00   yforce=   0.0000E+00  zforce=  -1.1668E+02   energy=   1.8878E-02   setid =     804 xmoment=   0.0000E+00 ymoment=   0.0000E+00 zmoment=   0.0000E+00
 nd#     806  xforce=   0.0000E+00   yforce=   0.0000E+00  zforce=  -2.0301E+02   energy=   3.2104E-02   setid =     806 xmoment=   0.0000E+00 ymoment=   0.0000E+00 zmoment=   0.0000E+00
 nd#     808  xforce=   0.0000E+00   yforce=   0.0000E+00  zforce=  -1.7525E+02   energy=   2.7533E-02   setid =     808 xmoment=   0.0000E+00 ymoment=   0.0000E+00 zmoment=   0.0000E+00
 nd#     810  xforce=   0.0000E+00   yforce=   0.0000E+00  zforce=  -8.9210E+01   energy=   1.5604E-02   setid =     810 xmoment=   0.0000E+00 ymoment=   0.0000E+00 zmoment=   0.0000E+00
 nd#     852  xforce=   0.0000E+00   yforce=   0.0000E+00  zforce=  -1.3516E+02   energy=   2.1962E-02   setid =     852 xmoment=   0.0000E+00 ymoment=   0.0000E+00 zmoment=   0.0000E+00
 nd#     854  xforce=   0.0000E+00   yforce=   0.0000E+00  zforce=  -2.0727E+02   energy=   3.3086E-02   setid =     854 xmoment=   0.0000E+00 ymoment=   0.0000E+00 zmoment=   0.0000E+00
 nd#     856  xforce=   0.0000E+00   yforce=   0.0000E+00  zforce=  -2.1133E+02   energy=   3.3736E-02   setid =     856 xmoment=   0.0000E+00 ymoment=   0.0000E+00 zmoment=   0.0000E+00
 nd#     858  xforce=   0.0000E+00   yforce=   0.0000E+00  zforce=  -7.9361E+01   energy=   1.4138E-02   setid =     858 xmoment=   0.0000E+00 ymoment=   0.0000E+00 zmoment=   0.0000E+00
 nd#     864  xforce=   0.0000E+00   yforce=   0.0000E+00  zforce=  -1.2852E+02   energy=   2.1348E-02   setid =     864 xmoment=   0.0000E+00 ymoment=   0.0000E+00 zmoment=   0.0000E+00
 nd#     866  xforce=   0.0000E+00   yforce=   0.0000E+00  zforce=  -2.0711E+02   energy=   3.3268E-02   setid =     866 xmoment=   0.0000E+00 ymoment=   0.0000E+00 zmoment=   0.0000E+00
 nd#     868  xforce=   0.0000E+00   yforce=   0.0000E+00  zforce=  -1.8723E+02   energy=   3.1195E-02   setid =     868 xmoment=   0.0000E+00 ymoment=   0.0000E+00 zmoment=   0.0000E+00
 nd#     870  xforce=   0.0000E+00   yforce=   0.0000E+00  zforce=  -3.5396E+01   energy=   7.1663E-03   setid =     870 xmoment=   0.0000E+00 ymoment=   0.0000E+00 zmoment=   0.0000E+00
 nd#     880  xforce=   0.0000E+00   yforce=   0.0000E+00  zforce=   5.5974E+01   energy=  -7.4320E-03   setid =     880 xmoment=   0.0000E+00 ymoment=   0.0000E+00 zmoment=   0.0000E+00
 nd#     882  xforce=   0.0000E+00   yforce=   0.0000E+00  zforce=   4.8682E+01   energy=  -6.4658E-03   setid =     882 xmoment=   0.0000E+00 ymoment=   0.0000E+00 zmoment=   0.0000E+00
 nd#     884  xforce=   0.0000E+00   yforce=   0.0000E+00  zforce=   1.0100E+02   energy=  -1.4278E-02   setid =     884 xmoment=   0.0000E+00 ymoment=   0.0000E+00 zmoment=   0.0000E+00
 nd#     886  xforce=   0.0000E+00   yforce=   0.0000E+00  zforce=   7.8094E+01   energy=  -1.1362E-02   setid =     886 xmoment=   0.0000E+00 ymoment=   0.0000E+00 zmoment=   0.0000E+00
              xtotal=   0.0000E+00   ytotal=   0.0000E+00  ztotal=  -3.2887E+03   etotal=   5.4143E-01

 n o d a l   f o r c e/e n e r g y    o u t p u t  t=   2.23034E+01

 velocity boundary condition forces/rigid body moments 

 nd#     167  xforce=   0.0000E+00   yforce=   0.0000E+00  zforce=  -1.4557E+02   energy=   2.7942E-02   setid =     167 xmoment=   0.0000E+00 ymoment=   0.0000E+00 zmoment=   0.0000E+00
 nd#     168  xforce=   0.0000E+00   yforce=   0.0000E+00  zforce=  -2.4379E+01   energy=   6.1783E-03   setid =     168 xmoment=   0.0000E+00 ymoment=   0.0000E+00 zmoment=   0.0000E+00
 nd#     169  xforce=   0.0000E+00   yforce=   0.0000E+00  zforce=   2.0004E+02   energy=  -4.4773E-02   setid =     169 xmoment=   0.0000E+00 ymoment=   0.0000E+00 zmoment=   0.0000E+00
 nd#     170  xforce=   0.0000E+00   yforce=   0.0000E+00  zforce=  -1.8915E+01   energy=   2.7567E-03   setid =     170 xmoment=   0.0000E+00 ymoment=   0.0000E+00 zmoment=   0.0000E+00
 nd#     197  xforce=   0.0000E+00   yforce=   0.0000E+00  zforce=   1.8901E+01   energy=   2.3344E-03   setid =     197 xmoment=   0.0000E+00 ymoment=   0.0000E+00 zmoment=   0.0000E+00
 nd#     198  xforce=   0.0000E+00   yforce=   0.0000E+00  zforce=  -5.2760E+01   energy=   8.0734E-03   setid =     198 xmoment=   0.0000E+00 ymoment=   0.0000E+00 zmoment=   0.0000E+00
 nd#     225  xforce=   0.0000E+00   yforce=   0.0000E+00  zforce=  -1.2442E+02   energy=   2.5144E-02   setid =     225 xmoment=   0.0000E+00 ymoment=   0.0000E+00 zmoment=   0.0000E+00
 nd#     226  xforce=   0.0000E+00   yforce=   0.0000E+00  zforce=  -1.6755E+02   energy=   3.4678E-02   setid =     226 xmoment=   0.0000E+00 ymoment=   0.0000E+00 zmoment=   0.0000E+00
 nd#     279  xforce=   0.0000E+00   yforce=   0.0000E+00  zforce=  -1.9772E+02   energy=   4.2930E-02   setid =     279 xmoment=   0.0000E+00 ymoment=   0.0000E+00 zmoment=   0.0000E+00
 nd#     280  xforce=   0.0000E+00   yforce=   0.0000E+00  zforce=   4.8430E+01   energy=  -1.5430E-02   setid =     280 xmoment=   0.0000E+00 ymoment=   0.0000E+00 zmoment=   0.0000E+00
 nd#     281  xforce=   0.0000E+00   yforce=   0.0000E+00  zforce=  -9.1169E+01   energy=   1.0187E-02   setid =     281 xmoment=   0.0000E+00 ymoment=   0.0000E+00 zmoment=   0.0000E+00
 nd#     282  xforce=   0.0000E+00   yforce=   0.0000E+00  zforce=  -1.5233E+02   energy=   3.0119E-02   setid =     282 xmoment=   0.0000E+00 ymoment=   0.0000E+00 zmoment=   0.0000E+00
 nd#     296  xforce=   0.0000E+00   yforce=   0.0000E+00  zforce=  -9.3104E+01   energy=   2.0477E-02   setid =     296 xmoment=   0.0000E+00 ymoment=   0.0000E+00 zmoment=   0.0000E+00
 nd#     323  xforce=   0.0000E+00   yforce=   0.0000E+00  zforce=  -1.9301E+02   energy=   3.4213E-02   setid =     323 xmoment=   0.0000E+00 ymoment=   0.0000E+00 zmoment=   0.0000E+00
 nd#     324  xforce=   0.0000E+00   yforce=   0.0000E+00  zforce=  -1.1893E+02   energy=   1.9457E-02   setid =     324 xmoment=   0.0000E+00 ymoment=   0.0000E+00 zmoment=   0.0000E+00
 nd#     338  xforce=   0.0000E+00   yforce=   0.0000E+00  zforce=  -1.1085E+02   energy=   1.6826E-02   setid =     338 xmoment=   0.0000E+00 ymoment=   0.0000E+00 zmoment=   0.0000E+00
 nd#     352  xforce=   0.0000E+00   yforce=   0.0000E+00  zforce=  -1.0294E+02   energy=   1.9156E-02   setid =     352 xmoment=   0.0000E+00 ymoment=   0.0000E+00 zmoment=   0.0000E+00
 nd#     366  xforce=   0.0000E+00   yforce=   0.0000E+00  zforce=  -1.4708E+02   energy=   2.8636E-02   setid =     366 xmoment=   0.0000E+00 ymoment=   0.0000E+00 zmoment=   0.0000E+00
 nd#     380  xforce=   0.0000E+00   yforce=   0.0000E+00  zforce=  -9.0110E+01   energy=   1.7504E-02   setid =     380 xmoment=   0.0000E+00 ymoment=   0.0000E+00 zmoment=   0.0000E+00
 nd#     608  xforce=   0.0000E+00   yforce=   0.0000E+00  zforce=   8.7460E+00   energy=  -1.2013E-03   setid =     608 xmoment=   0.0000E+00 ymoment=   0.0000E+00 zmoment=   0.0000E+00
 nd#     609  xforce=   0.0000E+00   yforce=   0.0000E+00  zforce=  -8.6422E+01   energy=   1.6956E-02   setid =     609 xmoment=   0.0000E+00 ymoment=   0.0000E+00 zmoment=   0.0000E+00
 nd#     610  xforce=   0.0000E+00   yforce=   0.0000E+00  zforce=  -1.1024E+02   energy=   2.1559E-02   setid =     610 xmoment=   0.0000E+00 ymoment=   0.0000E+00 zmoment=   0.0000E+00
 nd#     611  xforce=   0.0000E+00   yforce=   0.0000E+00  zforce=  -1.2880E+02   energy=   2.5229E-02   setid =     611 xmoment=   0.0000E+00 ymoment=   0.0000E+00 zmoment=   0.0000E+00
 nd#     804  xforce=   0.0000E+00   yforce=   0.0000E+00  zforce=  -1.2975E+02   energy=   2.2765E-02   setid =     804 xmoment=   0.0000E+00 ymoment=   0.0000E+00 zmoment=   0.0000E+00
 nd#     806  xforce=   0.0000E+00   yforce=   0.0000E+00  zforce=  -2.1111E+02   energy=   3.8636E-02   setid =     806 xmoment=   0.0000E+00 ymoment=   0.0000E+00 zmoment=   0.0000E+00
 nd#     808  xforce=   0.0000E+00   yforce=   0.0000E+00  zforce=  -1.8415E+02   energy=   3.3202E-02   setid =     808 xmoment=   0.0000E+00 ymoment=   0.0000E+00 zmoment=   0.0000E+00
 nd#     810  xforce=   0.0000E+00   yforce=   0.0000E+00  zforce=  -9.2339E+01   energy=   1.8468E-02   setid =     810 xmoment=   0.0000E+00 ymoment=   0.0000E+00 zmoment=   0.0000E+00
 nd#     852  xforce=   0.0000E+00   yforce=   0.0000E+00  zforce=  -1.4164E+02   energy=   2.6328E-02   setid =     852 xmoment=   0.0000E+00 ymoment=   0.0000E+00 zmoment=   0.0000E+00
 nd#     854  xforce=   0.0000E+00   yforce=   0.0000E+00  zforce=  -2.1736E+02   energy=   3.9784E-02   setid =     854 xmoment=   0.0000E+00 ymoment=   0.0000E+00 zmoment=   0.0000E+00
 nd#     856  xforce=   0.0000E+00   yforce=   0.0000E+00  zforce=  -2.2015E+02   energy=   4.0542E-02   setid =     856 xmoment=   0.0000E+00 ymoment=   0.0000E+00 zmoment=   0.0000E+00
 nd#     858  xforce=   0.0000E+00   yforce=   0.0000E+00  zforce=  -8.4961E+01   energy=   1.6730E-02   setid =     858 xmoment=   0.0000E+00 ymoment=   0.0000E+00 zmoment=   0.0000E+00
 nd#     864  xforce=   0.0000E+00   yforce=   0.0000E+00  zforce=  -1.3424E+02   energy=   2.5493E-02   setid =     864 xmoment=   0.0000E+00 ymoment=   0.0000E+00 zmoment=   0.0000E+00
 nd#     866  xforce=   0.0000E+00   yforce=   0.0000E+00  zforce=  -2.1870E+02   energy=   3.9985E-02   setid =     866 xmoment=   0.0000E+00 ymoment=   0.0000E+00 zmoment=   0.0000E+00
 nd#     868  xforce=   0.0000E+00   yforce=   0.0000E+00  zforce=  -1.8801E+02   energy=   3.7114E-02   setid =     868 xmoment=   0.0000E+00 ymoment=   0.0000E+00 zmoment=   0.0000E+00
 nd#     870  xforce=   0.0000E+00   yforce=   0.0000E+00  zforce=  -3.7900E+01   energy=   8.3224E-03   setid =     870 xmoment=   0.0000E+00 ymoment=   0.0000E+00 zmoment=   0.0000E+00
 nd#     880  xforce=   0.0000E+00   yforce=   0.0000E+00  zforce=   5.5632E+01   energy=  -9.1924E-03   setid =     880 xmoment=   0.0000E+00 ymoment=   0.0000E+00 zmoment=   0.0000E+00
 nd#     882  xforce=   0.0000E+00   yforce=   0.0000E+00  zforce=   5.1690E+01   energy=  -8.0491E-03   setid =     882 xmoment=   0.0000E+00 ymoment=   0.0000E+00 zmoment=   0.0000E+00
 nd#     884  xforce=   0.0000E+00   yforce=   0.0000E+00  zforce=   1.1129E+02   energy=  -1.7626E-02   setid =     884 xmoment=   0.0000E+00 ymoment=   0.0000E+00 zmoment=   0.0000E+00
 nd#     886  xforce=   0.0000E+00   yforce=   0.0000E+00  zforce=   7.9963E+01   energy=  -1.3855E-02   setid =     886 xmoment=   0.0000E+00 ymoment=   0.0000E+00 zmoment=   0.0000E+00
              xtotal=   0.0000E+00   ytotal=   0.0000E+00  ztotal=  -3.4419E+03   etotal=   6.4760E-01

 n o d a l   f o r c e/e n e r g y    o u t p u t  t=   2.54582E+01

 velocity boundary condition forces/rigid body moments 

 nd#     167  xforce=   0.0000E+00   yforce=   0.0000E+00  zforce=  -1.4444E+02   energy=   3.2517E-02   setid =     167 xmoment=   0.0000E+00 ymoment=   0.0000E+00 zmoment=   0.0000E+00
 nd#     168  xforce=   0.0000E+00   yforce=   0.0000E+00  zforce=  -2.8648E+01   energy=   7.0147E-03   setid =     168 xmoment=   0.0000E+00 ymoment=   0.0000E+00 zmoment=   0.0000E+00
 nd#     169  xforce=   0.0000E+00   yforce=   0.0000E+00  zforce=   1.8115E+02   energy=  -5.0785E-02   setid =     169 xmoment=   0.0000E+00 ymoment=   0.0000E+00 zmoment=   0.0000E+00
 nd#     170  xforce=   0.0000E+00   yforce=   0.0000E+00  zforce=  -2.5606E+01   energy=   3.4590E-03   setid =     170 xmoment=   0.0000E+00 ymoment=   0.0000E+00 zmoment=   0.0000E+00
 nd#     197  xforce=   0.0000E+00   yforce=   0.0000E+00  zforce=   2.2352E+01   energy=   1.6836E-03   setid =     197 xmoment=   0.0000E+00 ymoment=   0.0000E+00 zmoment=   0.0000E+00
 nd#     198  xforce=   0.0000E+00   yforce=   0.0000E+00  zforce=  -4.5795E+01   energy=   9.6280E-03   setid =     198 xmoment=   0.0000E+00 ymoment=   0.0000E+00 zmoment=   0.0000E+00
 nd#     225  xforce=   0.0000E+00   yforce=   0.0000E+00  zforce=  -1.0702E+02   energy=   2.8795E-02   setid =     225 xmoment=   0.0000E+00 ymoment=   0.0000E+00 zmoment=   0.0000E+00
 nd#     226  xforce=   0.0000E+00   yforce=   0.0000E+00  zforce=  -1.5399E+02   energy=   3.9750E-02   setid =     226 xmoment=   0.0000E+00 ymoment=   0.0000E+00 zmoment=   0.0000E+00
 nd#     279  xforce=   0.0000E+00   yforce=   0.0000E+00  zforce=  -1.7665E+02   energy=   4.8835E-02   setid =     279 xmoment=   0.0000E+00 ymoment=   0.0000E+00 zmoment=   0.0000E+00
 nd#     280  xforce=   0.0000E+00   yforce=   0.0000E+00  zforce=   3.7657E+01   energy=  -1.6788E-02   setid =     280 xmoment=   0.0000E+00 ymoment=   0.0000E+00 zmoment=   0.0000E+00
 nd#     281  xforce=   0.0000E+00   yforce=   0.0000E+00  zforce=  -9.1366E+01   energy=   1.3066E-02   setid =     281 xmoment=   0.0000E+00 ymoment=   0.0000E+00 zmoment=   0.0000E+00
 nd#     282  xforce=   0.0000E+00   yforce=   0.0000E+00  zforce=  -1.3828E+02   energy=   3.4703E-02   setid =     282 xmoment=   0.0000E+00 ymoment=   0.0000E+00 zmoment=   0.0000E+00
 nd#     296  xforce=   0.0000E+00   yforce=   0.0000E+00  zforce=  -8.3952E+01   energy=   2.3270E-02   setid =     296 xmoment=   0.0000E+00 ymoment=   0.0000E+00 zmoment=   0.0000E+00
 nd#     323  xforce=   0.0000E+00   yforce=   0.0000E+00  zforce=  -1.8461E+02   energy=   4.0170E-02   setid =     323 xmoment=   0.0000E+00 ymoment=   0.0000E+00 zmoment=   0.0000E+00
 nd#     324  xforce=   0.0000E+00   yforce=   0.0000E+00  zforce=  -1.1507E+02   energy=   2.3148E-02   setid =     324 xmoment=   0.0000E+00 ymoment=   0.0000E+00 zmoment=   0.0000E+00
 nd#     338  xforce=   0.0000E+00   yforce=   0.0000E+00  zforce=  -1.0753E+02   energy=   2.0270E-02   setid =     338 xmoment=   0.0000E+00 ymoment=   0.0000E+00 zmoment=   0.0000E+00
 nd#     352  xforce=   0.0000E+00   yforce=   0.0000E+00  zforce=  -9.4830E+01   energy=   2.2275E-02   setid =     352 xmoment=   0.0000E+00 ymoment=   0.0000E+00 zmoment=   0.0000E+00
 nd#     366  xforce=   0.0000E+00   yforce=   0.0000E+00  zforce=  -1.3560E+02   energy=   3.3095E-02   setid =     366 xmoment=   0.0000E+00 ymoment=   0.0000E+00 zmoment=   0.0000E+00
 nd#     380  xforce=   0.0000E+00   yforce=   0.0000E+00  zforce=  -8.5185E+01   energy=   2.0269E-02   setid =     380 xmoment=   0.0000E+00 ymoment=   0.0000E+00 zmoment=   0.0000E+00
 nd#     608  xforce=   0.0000E+00   yforce=   0.0000E+00  zforce=   9.8547E+00   energy=  -1.4947E-03   setid =     608 xmoment=   0.0000E+00 ymoment=   0.0000E+00 zmoment=   0.0000E+00
 nd#     609  xforce=   0.0000E+00   yforce=   0.0000E+00  zforce=  -8.1082E+01   energy=   1.9598E-02   setid =     609 xmoment=   0.0000E+00 ymoment=   0.0000E+00 zmoment=   0.0000E+00
 nd#     610  xforce=   0.0000E+00   yforce=   0.0000E+00  zforce=  -1.0300E+02   energy=   2.4923E-02   setid =     610 xmoment=   0.0000E+00 ymoment=   0.0000E+00 zmoment=   0.0000E+00
 nd#     611  xforce=   0.0000E+00   yforce=   0.0000E+00  zforce=  -1.1933E+02   energy=   2.9143E-02   setid =     611 xmoment=   0.0000E+00 ymoment=   0.0000E+00 zmoment=   0.0000E+00
 nd#     804  xforce=   0.0000E+00   yforce=   0.0000E+00  zforce=  -1.2539E+02   energy=   2.6790E-02   setid =     804 xmoment=   0.0000E+00 ymoment=   0.0000E+00 zmoment=   0.0000E+00
[...]
 nd#     324  xforce=   0.0000E+00   yforce=   0.0000E+00  zforce=  -8.0979E+01   energy=   9.0509E-02   setid =     324 xmoment=   0.0000E+00 ymoment=   0.0000E+00 zmoment=   0.0000E+00
 nd#     338  xforce=   0.0000E+00   yforce=   0.0000E+00  zforce=  -6.7236E+01   energy=   9.3121E-02   setid =     338 xmoment=   0.0000E+00 ymoment=   0.0000E+00 zmoment=   0.0000E+00
 nd#     352  xforce=   0.0000E+00   yforce=   0.0000E+00  zforce=  -5.7208E+01   energy=   6.1779E-02   setid =     352 xmoment=   0.0000E+00 ymoment=   0.0000E+00 zmoment=   0.0000E+00
 nd#     366  xforce=   0.0000E+00   yforce=   0.0000E+00  zforce=  -8.4701E+01   energy=   9.2846E-02   setid =     366 xmoment=   0.0000E+00 ymoment=   0.0000E+00 zmoment=   0.0000E+00
 nd#     380  xforce=   0.0000E+00   yforce=   0.0000E+00  zforce=  -4.5286E+01   energy=   5.6023E-02   setid =     380 xmoment=   0.0000E+00 ymoment=   0.0000E+00 zmoment=   0.0000E+00
 nd#     608  xforce=   0.0000E+00   yforce=   0.0000E+00  zforce=   1.1771E+01   energy=  -6.9252E-03   setid =     608 xmoment=   0.0000E+00 ymoment=   0.0000E+00 zmoment=   0.0000E+00
 nd#     609  xforce=   0.0000E+00   yforce=   0.0000E+00  zforce=  -5.0004E+01   energy=   5.8015E-02   setid =     609 xmoment=   0.0000E+00 ymoment=   0.0000E+00 zmoment=   0.0000E+00
 nd#     610  xforce=   0.0000E+00   yforce=   0.0000E+00  zforce=  -6.3417E+01   energy=   7.3075E-02   setid =     610 xmoment=   0.0000E+00 ymoment=   0.0000E+00 zmoment=   0.0000E+00
 nd#     611  xforce=   0.0000E+00   yforce=   0.0000E+00  zforce=  -7.2007E+01   energy=   8.3186E-02   setid =     611 xmoment=   0.0000E+00 ymoment=   0.0000E+00 zmoment=   0.0000E+00
 nd#     804  xforce=   0.0000E+00   yforce=   0.0000E+00  zforce=  -6.6641E+01   energy=   1.0141E-01   setid =     804 xmoment=   0.0000E+00 ymoment=   0.0000E+00 zmoment=   0.0000E+00
 nd#     806  xforce=   0.0000E+00   yforce=   0.0000E+00  zforce=  -1.4925E+02   energy=   1.4868E-01   setid =     806 xmoment=   0.0000E+00 ymoment=   0.0000E+00 zmoment=   0.0000E+00
 nd#     808  xforce=   0.0000E+00   yforce=   0.0000E+00  zforce=  -1.2655E+02   energy=   1.3482E-01   setid =     808 xmoment=   0.0000E+00 ymoment=   0.0000E+00 zmoment=   0.0000E+00
 nd#     810  xforce=   0.0000E+00   yforce=   0.0000E+00  zforce=  -4.1585E+01   energy=   5.7697E-02   setid =     810 xmoment=   0.0000E+00 ymoment=   0.0000E+00 zmoment=   0.0000E+00
 nd#     852  xforce=   0.0000E+00   yforce=   0.0000E+00  zforce=  -7.5281E+01   energy=   1.0663E-01   setid =     852 xmoment=   0.0000E+00 ymoment=   0.0000E+00 zmoment=   0.0000E+00
 nd#     854  xforce=   0.0000E+00   yforce=   0.0000E+00  zforce=  -1.4228E+02   energy=   1.5331E-01   setid =     854 xmoment=   0.0000E+00 ymoment=   0.0000E+00 zmoment=   0.0000E+00
 nd#     856  xforce=   0.0000E+00   yforce=   0.0000E+00  zforce=  -1.4878E+02   energy=   1.5926E-01   setid =     856 xmoment=   0.0000E+00 ymoment=   0.0000E+00 zmoment=   0.0000E+00
 nd#     858  xforce=   0.0000E+00   yforce=   0.0000E+00  zforce=  -3.2775E+01   energy=   5.2436E-02   setid =     858 xmoment=   0.0000E+00 ymoment=   0.0000E+00 zmoment=   0.0000E+00
 nd#     864  xforce=   0.0000E+00   yforce=   0.0000E+00  zforce=  -6.9847E+01   energy=   9.7068E-02   setid =     864 xmoment=   0.0000E+00 ymoment=   0.0000E+00 zmoment=   0.0000E+00
 nd#     866  xforce=   0.0000E+00   yforce=   0.0000E+00  zforce=  -1.3928E+02   energy=   1.5358E-01   setid =     866 xmoment=   0.0000E+00 ymoment=   0.0000E+00 zmoment=   0.0000E+00
 nd#     868  xforce=   0.0000E+00   yforce=   0.0000E+00  zforce=  -1.1976E+02   energy=   1.3332E-01   setid =     868 xmoment=   0.0000E+00 ymoment=   0.0000E+00 zmoment=   0.0000E+00
 nd#     870  xforce=   0.0000E+00   yforce=   0.0000E+00  zforce=   1.3681E+00   energy=   1.9751E-02   setid =     870 xmoment=   0.0000E+00 ymoment=   0.0000E+00 zmoment=   0.0000E+00
 nd#     880  xforce=   0.0000E+00   yforce=   0.0000E+00  zforce=   4.9648E+01   energy=  -3.7326E-02   setid =     880 xmoment=   0.0000E+00 ymoment=   0.0000E+00 zmoment=   0.0000E+00
 nd#     882  xforce=   0.0000E+00   yforce=   0.0000E+00  zforce=   3.4385E+01   energy=  -3.4003E-02   setid =     882 xmoment=   0.0000E+00 ymoment=   0.0000E+00 zmoment=   0.0000E+00
 nd#     884  xforce=   0.0000E+00   yforce=   0.0000E+00  zforce=   8.1880E+01   energy=  -7.8337E-02   setid =     884 xmoment=   0.0000E+00 ymoment=   0.0000E+00 zmoment=   0.0000E+00
 nd#     886  xforce=   0.0000E+00   yforce=   0.0000E+00  zforce=   6.2895E+01   energy=  -5.2074E-02   setid =     886 xmoment=   0.0000E+00 ymoment=   0.0000E+00 zmoment=   0.0000E+00
              xtotal=   0.0000E+00   ytotal=   0.0000E+00  ztotal=  -1.9741E+03   etotal=   2.3714E+00

 n o d a l   f o r c e/e n e r g y    o u t p u t  t=   9.90896E+01

 velocity boundary condition forces/rigid body moments 

 nd#     167  xforce=   0.0000E+00   yforce=   0.0000E+00  zforce=  -1.1718E+02   energy=   1.0574E-01   setid =     167 xmoment=   0.0000E+00 ymoment=   0.0000E+00 zmoment=   0.0000E+00
 nd#     168  xforce=   0.0000E+00   yforce=   0.0000E+00  zforce=  -3.5343E+01   energy=   2.4909E-02   setid =     168 xmoment=   0.0000E+00 ymoment=   0.0000E+00 zmoment=   0.0000E+00
 nd#     169  xforce=   0.0000E+00   yforce=   0.0000E+00  zforce=   1.0968E+02   energy=  -9.1828E-02   setid =     169 xmoment=   0.0000E+00 ymoment=   0.0000E+00 zmoment=   0.0000E+00
 nd#     170  xforce=   0.0000E+00   yforce=   0.0000E+00  zforce=  -2.7158E+00   energy=   2.7801E-02   setid =     170 xmoment=   0.0000E+00 ymoment=   0.0000E+00 zmoment=   0.0000E+00
 nd#     197  xforce=   0.0000E+00   yforce=   0.0000E+00  zforce=   2.9035E+01   energy=  -3.1571E-02   setid =     197 xmoment=   0.0000E+00 ymoment=   0.0000E+00 zmoment=   0.0000E+00
 nd#     198  xforce=   0.0000E+00   yforce=   0.0000E+00  zforce=  -3.4517E+01   energy=   4.0917E-02   setid =     198 xmoment=   0.0000E+00 ymoment=   0.0000E+00 zmoment=   0.0000E+00
 nd#     225  xforce=   0.0000E+00   yforce=   0.0000E+00  zforce=  -7.3705E+01   energy=   7.0052E-02   setid =     225 xmoment=   0.0000E+00 ymoment=   0.0000E+00 zmoment=   0.0000E+00
 nd#     226  xforce=   0.0000E+00   yforce=   0.0000E+00  zforce=  -9.3191E+01   energy=   1.0049E-01   setid =     226 xmoment=   0.0000E+00 ymoment=   0.0000E+00 zmoment=   0.0000E+00
 nd#     279  xforce=   0.0000E+00   yforce=   0.0000E+00  zforce=  -1.0515E+02   energy=   1.1108E-01   setid =     279 xmoment=   0.0000E+00 ymoment=   0.0000E+00 zmoment=   0.0000E+00
 nd#     280  xforce=   0.0000E+00   yforce=   0.0000E+00  zforce=   4.3099E+01   energy=  -1.6185E-02   setid =     280 xmoment=   0.0000E+00 ymoment=   0.0000E+00 zmoment=   0.0000E+00
 nd#     281  xforce=   0.0000E+00   yforce=   0.0000E+00  zforce=  -4.7273E+01   energy=   6.4527E-02   setid =     281 xmoment=   0.0000E+00 ymoment=   0.0000E+00 zmoment=   0.0000E+00
 nd#     282  xforce=   0.0000E+00   yforce=   0.0000E+00  zforce=  -7.4340E+01   energy=   8.6918E-02   setid =     282 xmoment=   0.0000E+00 ymoment=   0.0000E+00 zmoment=   0.0000E+00
 nd#     296  xforce=   0.0000E+00   yforce=   0.0000E+00  zforce=  -4.3386E+01   energy=   4.4580E-02   setid =     296 xmoment=   0.0000E+00 ymoment=   0.0000E+00 zmoment=   0.0000E+00
 nd#     323  xforce=   0.0000E+00   yforce=   0.0000E+00  zforce=  -1.4994E+02   energy=   1.4556E-01   setid =     323 xmoment=   0.0000E+00 ymoment=   0.0000E+00 zmoment=   0.0000E+00
 nd#     324  xforce=   0.0000E+00   yforce=   0.0000E+00  zforce=  -8.7847E+01   energy=   9.4729E-02   setid =     324 xmoment=   0.0000E+00 ymoment=   0.0000E+00 zmoment=   0.0000E+00
 nd#     338  xforce=   0.0000E+00   yforce=   0.0000E+00  zforce=  -6.6972E+01   energy=   9.6476E-02   setid =     338 xmoment=   0.0000E+00 ymoment=   0.0000E+00 zmoment=   0.0000E+00
 nd#     352  xforce=   0.0000E+00   yforce=   0.0000E+00  zforce=  -5.7567E+01   energy=   6.4648E-02   setid =     352 xmoment=   0.0000E+00 ymoment=   0.0000E+00 zmoment=   0.0000E+00
 nd#     366  xforce=   0.0000E+00   yforce=   0.0000E+00  zforce=  -8.4878E+01   energy=   9.7086E-02   setid =     366 xmoment=   0.0000E+00 ymoment=   0.0000E+00 zmoment=   0.0000E+00
 nd#     380  xforce=   0.0000E+00   yforce=   0.0000E+00  zforce=  -5.2327E+01   energy=   5.8463E-02   setid =     380 xmoment=   0.0000E+00 ymoment=   0.0000E+00 zmoment=   0.0000E+00
 nd#     608  xforce=   0.0000E+00   yforce=   0.0000E+00  zforce=   1.2538E+01   energy=  -7.5329E-03   setid =     608 xmoment=   0.0000E+00 ymoment=   0.0000E+00 zmoment=   0.0000E+00
 nd#     609  xforce=   0.0000E+00   yforce=   0.0000E+00  zforce=  -5.3781E+01   energy=   6.0609E-02   setid =     609 xmoment=   0.0000E+00 ymoment=   0.0000E+00 zmoment=   0.0000E+00
 nd#     610  xforce=   0.0000E+00   yforce=   0.0000E+00  zforce=  -6.6699E+01   energy=   7.6328E-02   setid =     610 xmoment=   0.0000E+00 ymoment=   0.0000E+00 zmoment=   0.0000E+00
 nd#     611  xforce=   0.0000E+00   yforce=   0.0000E+00  zforce=  -7.9482E+01   energy=   8.6973E-02   setid =     611 xmoment=   0.0000E+00 ymoment=   0.0000E+00 zmoment=   0.0000E+00
 nd#     804  xforce=   0.0000E+00   yforce=   0.0000E+00  zforce=  -7.3754E+01   energy=   1.0492E-01   setid =     804 xmoment=   0.0000E+00 ymoment=   0.0000E+00 zmoment=   0.0000E+00
 nd#     806  xforce=   0.0000E+00   yforce=   0.0000E+00  zforce=  -1.5276E+02   energy=   1.5623E-01   setid =     806 xmoment=   0.0000E+00 ymoment=   0.0000E+00 zmoment=   0.0000E+00
 nd#     808  xforce=   0.0000E+00   yforce=   0.0000E+00  zforce=  -1.2388E+02   energy=   1.4108E-01   setid =     808 xmoment=   0.0000E+00 ymoment=   0.0000E+00 zmoment=   0.0000E+00
 nd#     810  xforce=   0.0000E+00   yforce=   0.0000E+00  zforce=  -4.1912E+01   energy=   5.9784E-02   setid =     810 xmoment=   0.0000E+00 ymoment=   0.0000E+00 zmoment=   0.0000E+00
 nd#     852  xforce=   0.0000E+00   yforce=   0.0000E+00  zforce=  -7.5049E+01   energy=   1.1039E-01   setid =     852 xmoment=   0.0000E+00 ymoment=   0.0000E+00 zmoment=   0.0000E+00
 nd#     854  xforce=   0.0000E+00   yforce=   0.0000E+00  zforce=  -1.4844E+02   energy=   1.6058E-01   setid =     854 xmoment=   0.0000E+00 ymoment=   0.0000E+00 zmoment=   0.0000E+00
 nd#     856  xforce=   0.0000E+00   yforce=   0.0000E+00  zforce=  -1.5616E+02   energy=   1.6688E-01   setid =     856 xmoment=   0.0000E+00 ymoment=   0.0000E+00 zmoment=   0.0000E+00
 nd#     858  xforce=   0.0000E+00   yforce=   0.0000E+00  zforce=  -3.6541E+01   energy=   5.4169E-02   setid =     858 xmoment=   0.0000E+00 ymoment=   0.0000E+00 zmoment=   0.0000E+00
 nd#     864  xforce=   0.0000E+00   yforce=   0.0000E+00  zforce=  -7.3582E+01   energy=   1.0065E-01   setid =     864 xmoment=   0.0000E+00 ymoment=   0.0000E+00 zmoment=   0.0000E+00
 nd#     866  xforce=   0.0000E+00   yforce=   0.0000E+00  zforce=  -1.4786E+02   energy=   1.6076E-01   setid =     866 xmoment=   0.0000E+00 ymoment=   0.0000E+00 zmoment=   0.0000E+00
 nd#     868  xforce=   0.0000E+00   yforce=   0.0000E+00  zforce=  -1.2958E+02   energy=   1.3955E-01   setid =     868 xmoment=   0.0000E+00 ymoment=   0.0000E+00 zmoment=   0.0000E+00
 nd#     870  xforce=   0.0000E+00   yforce=   0.0000E+00  zforce=  -2.7304E-01   energy=   1.9724E-02   setid =     870 xmoment=   0.0000E+00 ymoment=   0.0000E+00 zmoment=   0.0000E+00
 nd#     880  xforce=   0.0000E+00   yforce=   0.0000E+00  zforce=   5.1925E+01   energy=  -3.9865E-02   setid =     880 xmoment=   0.0000E+00 ymoment=   0.0000E+00 zmoment=   0.0000E+00
 nd#     882  xforce=   0.0000E+00   yforce=   0.0000E+00  zforce=   3.3616E+01   energy=  -3.5703E-02   setid =     882 xmoment=   0.0000E+00 ymoment=   0.0000E+00 zmoment=   0.0000E+00
 nd#     884  xforce=   0.0000E+00   yforce=   0.0000E+00  zforce=   8.1984E+01   energy=  -8.2433E-02   setid =     884 xmoment=   0.0000E+00 ymoment=   0.0000E+00 zmoment=   0.0000E+00
 nd#     886  xforce=   0.0000E+00   yforce=   0.0000E+00  zforce=   6.7337E+01   energy=  -5.5330E-02   setid =     886 xmoment=   0.0000E+00 ymoment=   0.0000E+00 zmoment=   0.0000E+00
              xtotal=   0.0000E+00   ytotal=   0.0000E+00  ztotal=  -2.0569E+03   etotal=   2.4722E+00

 n o d a l   f o r c e/e n e r g y    o u t p u t  t=   1.00000E+02

 velocity boundary condition forces/rigid body moments 

 nd#     167  xforce=   0.0000E+00   yforce=   0.0000E+00  zforce=  -1.2068E+02   energy=   1.0683E-01   setid =     167 xmoment=   0.0000E+00 ymoment=   0.0000E+00 zmoment=   0.0000E+00
 nd#     168  xforce=   0.0000E+00   yforce=   0.0000E+00  zforce=  -4.2851E+01   energy=   2.5265E-02   setid =     168 xmoment=   0.0000E+00 ymoment=   0.0000E+00 zmoment=   0.0000E+00
 nd#     169  xforce=   0.0000E+00   yforce=   0.0000E+00  zforce=   6.0634E+01   energy=  -9.2603E-02   setid =     169 xmoment=   0.0000E+00 ymoment=   0.0000E+00 zmoment=   0.0000E+00
 nd#     170  xforce=   0.0000E+00   yforce=   0.0000E+00  zforce=  -3.3038E+01   energy=   2.7964E-02   setid =     170 xmoment=   0.0000E+00 ymoment=   0.0000E+00 zmoment=   0.0000E+00
 nd#     197  xforce=   0.0000E+00   yforce=   0.0000E+00  zforce=   3.4560E+01   energy=  -3.1860E-02   setid =     197 xmoment=   0.0000E+00 ymoment=   0.0000E+00 zmoment=   0.0000E+00
 nd#     198  xforce=   0.0000E+00   yforce=   0.0000E+00  zforce=  -4.1857E+01   energy=   4.1264E-02   setid =     198 xmoment=   0.0000E+00 ymoment=   0.0000E+00 zmoment=   0.0000E+00
 nd#     225  xforce=   0.0000E+00   yforce=   0.0000E+00  zforce=  -7.2374E+01   energy=   7.0717E-02   setid =     225 xmoment=   0.0000E+00 ymoment=   0.0000E+00 zmoment=   0.0000E+00
 nd#     226  xforce=   0.0000E+00   yforce=   0.0000E+00  zforce=  -8.9341E+01   energy=   1.0132E-01   setid =     226 xmoment=   0.0000E+00 ymoment=   0.0000E+00 zmoment=   0.0000E+00
 nd#     279  xforce=   0.0000E+00   yforce=   0.0000E+00  zforce=  -8.6240E+01   energy=   1.1195E-01   setid =     279 xmoment=   0.0000E+00 ymoment=   0.0000E+00 zmoment=   0.0000E+00
 nd#     280  xforce=   0.0000E+00   yforce=   0.0000E+00  zforce=   2.3010E+01   energy=  -1.6486E-02   setid =     280 xmoment=   0.0000E+00 ymoment=   0.0000E+00 zmoment=   0.0000E+00
 nd#     281  xforce=   0.0000E+00   yforce=   0.0000E+00  zforce=  -6.1677E+01   energy=   6.5023E-02   setid =     281 xmoment=   0.0000E+00 ymoment=   0.0000E+00 zmoment=   0.0000E+00
 nd#     282  xforce=   0.0000E+00   yforce=   0.0000E+00  zforce=  -6.9383E+01   energy=   8.7573E-02   setid =     282 xmoment=   0.0000E+00 ymoment=   0.0000E+00 zmoment=   0.0000E+00
 nd#     296  xforce=   0.0000E+00   yforce=   0.0000E+00  zforce=  -3.7376E+01   energy=   4.4948E-02   setid =     296 xmoment=   0.0000E+00 ymoment=   0.0000E+00 zmoment=   0.0000E+00
 nd#     323  xforce=   0.0000E+00   yforce=   0.0000E+00  zforce=  -1.6146E+02   energy=   1.4698E-01   setid =     323 xmoment=   0.0000E+00 ymoment=   0.0000E+00 zmoment=   0.0000E+00
 nd#     324  xforce=   0.0000E+00   yforce=   0.0000E+00  zforce=  -1.0440E+02   energy=   9.5605E-02   setid =     324 xmoment=   0.0000E+00 ymoment=   0.0000E+00 zmoment=   0.0000E+00
 nd#     338  xforce=   0.0000E+00   yforce=   0.0000E+00  zforce=  -1.0170E+02   energy=   9.7244E-02   setid =     338 xmoment=   0.0000E+00 ymoment=   0.0000E+00 zmoment=   0.0000E+00
 nd#     352  xforce=   0.0000E+00   yforce=   0.0000E+00  zforce=  -6.3064E+01   energy=   6.5197E-02   setid =     352 xmoment=   0.0000E+00 ymoment=   0.0000E+00 zmoment=   0.0000E+00
 nd#     366  xforce=   0.0000E+00   yforce=   0.0000E+00  zforce=  -8.9276E+01   energy=   9.7878E-02   setid =     366 xmoment=   0.0000E+00 ymoment=   0.0000E+00 zmoment=   0.0000E+00
 nd#     380  xforce=   0.0000E+00   yforce=   0.0000E+00  zforce=  -6.1712E+01   energy=   5.8982E-02   setid =     380 xmoment=   0.0000E+00 ymoment=   0.0000E+00 zmoment=   0.0000E+00
 nd#     608  xforce=   0.0000E+00   yforce=   0.0000E+00  zforce=   1.1915E+01   energy=  -7.6442E-03   setid =     608 xmoment=   0.0000E+00 ymoment=   0.0000E+00 zmoment=   0.0000E+00
 nd#     609  xforce=   0.0000E+00   yforce=   0.0000E+00  zforce=  -6.2881E+01   energy=   6.1140E-02   setid =     609 xmoment=   0.0000E+00 ymoment=   0.0000E+00 zmoment=   0.0000E+00
 nd#     610  xforce=   0.0000E+00   yforce=   0.0000E+00  zforce=  -7.7825E+01   energy=   7.6986E-02   setid =     610 xmoment=   0.0000E+00 ymoment=   0.0000E+00 zmoment=   0.0000E+00
 nd#     611  xforce=   0.0000E+00   yforce=   0.0000E+00  zforce=  -8.6266E+01   energy=   8.7727E-02   setid =     611 xmoment=   0.0000E+00 ymoment=   0.0000E+00 zmoment=   0.0000E+00
 nd#     804  xforce=   0.0000E+00   yforce=   0.0000E+00  zforce=  -1.1160E+02   energy=   1.0576E-01   setid =     804 xmoment=   0.0000E+00 ymoment=   0.0000E+00 zmoment=   0.0000E+00
 nd#     806  xforce=   0.0000E+00   yforce=   0.0000E+00  zforce=  -1.7172E+02   energy=   1.5771E-01   setid =     806 xmoment=   0.0000E+00 ymoment=   0.0000E+00 zmoment=   0.0000E+00
 nd#     808  xforce=   0.0000E+00   yforce=   0.0000E+00  zforce=  -1.4938E+02   energy=   1.4232E-01   setid =     808 xmoment=   0.0000E+00 ymoment=   0.0000E+00 zmoment=   0.0000E+00
 nd#     810  xforce=   0.0000E+00   yforce=   0.0000E+00  zforce=  -5.8233E+01   energy=   6.0240E-02   setid =     810 xmoment=   0.0000E+00 ymoment=   0.0000E+00 zmoment=   0.0000E+00
 nd#     852  xforce=   0.0000E+00   yforce=   0.0000E+00  zforce=  -1.1641E+02   energy=   1.1126E-01   setid =     852 xmoment=   0.0000E+00 ymoment=   0.0000E+00 zmoment=   0.0000E+00
 nd#     854  xforce=   0.0000E+00   yforce=   0.0000E+00  zforce=  -1.7321E+02   energy=   1.6204E-01   setid =     854 xmoment=   0.0000E+00 ymoment=   0.0000E+00 zmoment=   0.0000E+00
 nd#     856  xforce=   0.0000E+00   yforce=   0.0000E+00  zforce=  -1.7764E+02   energy=   1.6840E-01   setid =     856 xmoment=   0.0000E+00 ymoment=   0.0000E+00 zmoment=   0.0000E+00
 nd#     858  xforce=   0.0000E+00   yforce=   0.0000E+00  zforce=  -5.2364E+01   energy=   5.4574E-02   setid =     858 xmoment=   0.0000E+00 ymoment=   0.0000E+00 zmoment=   0.0000E+00
 nd#     864  xforce=   0.0000E+00   yforce=   0.0000E+00  zforce=  -1.0742E+02   energy=   1.0148E-01   setid =     864 xmoment=   0.0000E+00 ymoment=   0.0000E+00 zmoment=   0.0000E+00
 nd#     866  xforce=   0.0000E+00   yforce=   0.0000E+00  zforce=  -1.7341E+02   energy=   1.6222E-01   setid =     866 xmoment=   0.0000E+00 ymoment=   0.0000E+00 zmoment=   0.0000E+00
 nd#     868  xforce=   0.0000E+00   yforce=   0.0000E+00  zforce=  -1.4898E+02   energy=   1.4082E-01   setid =     868 xmoment=   0.0000E+00 ymoment=   0.0000E+00 zmoment=   0.0000E+00
 nd#     870  xforce=   0.0000E+00   yforce=   0.0000E+00  zforce=  -1.6160E+01   energy=   1.9798E-02   setid =     870 xmoment=   0.0000E+00 ymoment=   0.0000E+00 zmoment=   0.0000E+00
 nd#     880  xforce=   0.0000E+00   yforce=   0.0000E+00  zforce=   4.7921E+01   energy=  -4.0320E-02   setid =     880 xmoment=   0.0000E+00 ymoment=   0.0000E+00 zmoment=   0.0000E+00
 nd#     882  xforce=   0.0000E+00   yforce=   0.0000E+00  zforce=   4.2059E+01   energy=  -3.6047E-02   setid =     882 xmoment=   0.0000E+00 ymoment=   0.0000E+00 zmoment=   0.0000E+00
 nd#     884  xforce=   0.0000E+00   yforce=   0.0000E+00  zforce=   9.0117E+01   energy=  -8.3217E-02   setid =     884 xmoment=   0.0000E+00 ymoment=   0.0000E+00 zmoment=   0.0000E+00
 nd#     886  xforce=   0.0000E+00   yforce=   0.0000E+00  zforce=   6.5780E+01   energy=  -5.5936E-02   setid =     886 xmoment=   0.0000E+00 ymoment=   0.0000E+00 zmoment=   0.0000E+00
              xtotal=   0.0000E+00   ytotal=   0.0000E+00  ztotal=  -2.5439E+03   etotal=   2.4931E+00
