 LS-DYNA keyword deck by LS-PrePost                                      
                    ls-dyna smp d R14 R14.1.1s_1_ef50e1 date 06/16/2024

{BEGIN LEGEND}
 Entity #        Title
        1                                                                                     
        2                                                                                     
        3                                                                                     
        4                                                                                     
        5                                                                                     
        6                                                                                     
        7                                                                                     
        8                                                                                     
        9                                                                                     
       10                                                                                     
       11                                                                                     
       12                                                                                     
       13                                                                                     
       14                                                                                     
       15                                                                                     
       16                                                                                     
       17                                                                                     
       18                                                                                     
       19                                                                                     
      167                                                                                     
      168                                                                                     
      169                                                                                     
      170                                                                                     
      197                                                                                     
      198                                                                                     
      225                                                                                     
      226                                                                                     
      279                                                                                     
      280                                                                                     
      281                                                                                     
      282                                                                                     
      296                                                                                     
      323                                                                                     
      324                                                                                     
      338                                                                                     
      352                                                                                     
      366                                                                                     
      380                                                                                     
      608                                                                                     
      609                                                                                     
      610                                                                                     
      611                                                                                     
      804                                                                                     
      806                                                                                     
      808                                                                                     
      810                                                                                     
      852                                                                                     
      854                                                                                     
      856                                                                                     
      858                                                                                     
      864                                                                                     
      866                                                                                     
      868                                                                                     
      870                                                                                     
      880                                                                                     
      882                                                                                     
      884                                                                                     
      886                                                                                     
{END LEGEND}




 n o d a l   p r i n t   o u t   f o r   t i m e  s t e p       1                              ( at time 0.0000000E+00 )

 nodal point  x-disp     y-disp      z-disp      x-vel       y-vel       z-vel      x-accl      y-accl      z-accl      x-coor      y-coor      z-coor
        1  0.00000E+00 0.00000E+00 0.00000E+00 0.00000E+00 0.00000E+00 0.00000E+00 0.00000E+00 0.00000E+00 0.00000E+00 3.17500E-03 0.00000E+00-1.78000E-18
        2  0.00000E+00 0.00000E+00 0.00000E+00 0.00000E+00 0.00000E+00 0.00000E+00 0.00000E+00 0.00000E+00 0.00000E+00 2.38130E-03 0.00000E+00 0.00000E+00
        3  0.00000E+00 0.00000E+00 0.00000E+00 0.00000E+00 0.00000E+00 0.00000E+00 0.00000E+00 0.00000E+00 0.00000E+00 1.58750E-03 0.00000E+00 0.00000E+00
        4  0.00000E+00 0.00000E+00 0.00000E+00 0.00000E+00 0.00000E+00 0.00000E+00 0.00000E+00 0.00000E+00 0.00000E+00 7.93750E-04 0.00000E+00 0.00000E+00
        5  0.00000E+00 0.00000E+00 0.00000E+00 0.00000E+00 0.00000E+00 0.00000E+00 0.00000E+00 0.00000E+00 0.00000E+00 0.00000E+00 0.00000E+00 0.00000E+00
        6  0.00000E+00 0.00000E+00 0.00000E+00 0.00000E+00 0.00000E+00 0.00000E+00 0.00000E+00 0.00000E+00 0.00000E+00 4.86000E-20 7.93750E-04 0.00000E+00
        7  0.00000E+00 0.00000E+00 0.00000E+00 0.00000E+00 0.00000E+00 0.00000E+00 0.00000E+00 0.00000E+00 0.00000E+00 9.72100E-20 1.58750E-03 0.00000E+00
        8  0.00000E+00 0.00000E+00 0.00000E+00 0.00000E+00 0.00000E+00 0.00000E+00 0.00000E+00 0.00000E+00 0.00000E+00 1.45800E-19 2.38130E-03 0.00000E+00
        9  0.00000E+00 0.00000E+00 0.00000E+00 0.00000E+00 0.00000E+00 0.00000E+00 0.00000E+00 0.00000E+00 0.00000E+00 1.94400E-19 3.17500E-03 0.00000E+00
       10  0.00000E+00 0.00000E+00 0.00000E+00 0.00000E+00 0.00000E+00 0.00000E+00 0.00000E+00 0.00000E+00 0.00000E+00 1.21500E-03 2.93330E-03 0.00000E+00
       11  0.00000E+00 0.00000E+00 0.00000E+00 0.00000E+00 0.00000E+00 0.00000E+00 0.00000E+00 0.00000E+00 0.00000E+00 2.24510E-03 2.24510E-03 0.00000E+00
       12  0.00000E+00 0.00000E+00 0.00000E+00 0.00000E+00 0.00000E+00 0.00000E+00 0.00000E+00 0.00000E+00 0.00000E+00 2.93330E-03 1.21500E-03 0.00000E+00
       13  0.00000E+00 0.00000E+00 0.00000E+00 0.00000E+00 0.00000E+00 0.00000E+00 0.00000E+00 0.00000E+00 0.00000E+00 1.30830E-03 1.35190E-03 0.00000E+00
       14  0.00000E+00 0.00000E+00 0.00000E+00 0.00000E+00 0.00000E+00 0.00000E+00 0.00000E+00 0.00000E+00 0.00000E+00 1.48830E-03 7.06977E-04 0.00000E+00
       15  0.00000E+00 0.00000E+00 0.00000E+00 0.00000E+00 0.00000E+00 0.00000E+00 0.00000E+00 0.00000E+00 0.00000E+00 6.69510E-04 1.50700E-03 0.00000E+00
       16  0.00000E+00 0.00000E+00 0.00000E+00 0.00000E+00 0.00000E+00 0.00000E+00 0.00000E+00 0.00000E+00 0.00000E+00 7.53638E-04 7.82337E-04 0.00000E+00
       17  0.00000E+00 0.00000E+00 0.00000E+00 0.00000E+00 0.00000E+00 0.00000E+00 0.00000E+00 0.00000E+00 0.00000E+00 1.73630E-03 1.76750E-03 0.00000E+00
       18  0.00000E+00 0.00000E+00 0.00000E+00 0.00000E+00 0.00000E+00 0.00000E+00 0.00000E+00 0.00000E+00 0.00000E+00 9.20131E-04 2.19110E-03 0.00000E+00
       19  0.00000E+00 0.00000E+00 0.00000E+00 0.00000E+00 0.00000E+00 0.00000E+00 0.00000E+00 0.00000E+00 0.00000E+00 2.16330E-03 9.50859E-04 0.00000E+00
      167  0.00000E+00 0.00000E+00 0.00000E+00 0.00000E+00 0.00000E+00 0.00000E+00 0.00000E+00 0.00000E+00 0.00000E+00 3.12470E-03 3.18070E-03 2.54000E-02
      168  0.00000E+00 0.00000E+00 0.00000E+00 0.00000E+00 0.00000E+00 0.00000E+00 0.00000E+00 0.00000E+00 0.00000E+00 2.35430E-03 2.43270E-03 2.54000E-02
      169  0.00000E+00 0.00000E+00 0.00000E+00 0.00000E+00 0.00000E+00 0.00000E+00 0.00000E+00 0.00000E+00 0.00000E+00 2.67800E-03 1.27200E-03 2.54000E-02
      170  0.00000E+00 0.00000E+00 0.00000E+00 0.00000E+00 0.00000E+00 0.00000E+00 0.00000E+00 0.00000E+00 0.00000E+00 3.89280E-03 1.71090E-03 2.54000E-02
      197  0.00000E+00 0.00000E+00 0.00000E+00 0.00000E+00 0.00000E+00 0.00000E+00 0.00000E+00 0.00000E+00 0.00000E+00 1.20460E-03 2.71160E-03 2.54000E-02
      198  0.00000E+00 0.00000E+00 0.00000E+00 0.00000E+00 0.00000E+00 0.00000E+00 0.00000E+00 0.00000E+00 0.00000E+00 1.65560E-03 3.94280E-03 2.54000E-02
      225  0.00000E+00 0.00000E+00 0.00000E+00 0.00000E+00 0.00000E+00 0.00000E+00 0.00000E+00 0.00000E+00 0.00000E+00 2.85750E-03 0.00000E+00 2.54000E-02
      226  0.00000E+00 0.00000E+00 0.00000E+00 0.00000E+00 0.00000E+00 0.00000E+00 0.00000E+00 0.00000E+00 0.00000E+00 4.28630E-03 0.00000E+00 2.54000E-02
      279  0.00000E+00 0.00000E+00 0.00000E+00 0.00000E+00 0.00000E+00 0.00000E+00 0.00000E+00 0.00000E+00 0.00000E+00 1.42880E-03 0.00000E+00 2.54000E-02
      280  0.00000E+00 0.00000E+00 0.00000E+00 0.00000E+00 0.00000E+00 0.00000E+00 0.00000E+00 0.00000E+00 0.00000E+00 1.35620E-03 1.40780E-03 2.54000E-02
      281  0.00000E+00 0.00000E+00 0.00000E+00 0.00000E+00 0.00000E+00 0.00000E+00 0.00000E+00 0.00000E+00 0.00000E+00 8.74900E-20 1.42880E-03 2.54000E-02
      282  0.00000E+00 0.00000E+00 0.00000E+00 0.00000E+00 0.00000E+00 0.00000E+00 0.00000E+00 0.00000E+00 0.00000E+00 0.00000E+00 0.00000E+00 2.54000E-02
      296  0.00000E+00 0.00000E+00 0.00000E+00 0.00000E+00 0.00000E+00 0.00000E+00 0.00000E+00 0.00000E+00 0.00000E+00 1.75000E-19 2.85750E-03 2.54000E-02
      323  0.00000E+00 0.00000E+00 0.00000E+00 0.00000E+00 0.00000E+00 0.00000E+00 0.00000E+00 0.00000E+00 0.00000E+00 4.04110E-03 4.04120E-03 2.54000E-02
      324  0.00000E+00 0.00000E+00 0.00000E+00 0.00000E+00 0.00000E+00 0.00000E+00 0.00000E+00 0.00000E+00 0.00000E+00 2.18670E-03 5.28010E-03 2.54000E-02
      338  0.00000E+00 0.00000E+00 0.00000E+00 0.00000E+00 0.00000E+00 0.00000E+00 0.00000E+00 0.00000E+00 0.00000E+00 5.28000E-03 2.18690E-03 2.54000E-02
      352  0.00000E+00 0.00000E+00 0.00000E+00 0.00000E+00 0.00000E+00 0.00000E+00 0.00000E+00 0.00000E+00 0.00000E+00 2.62500E-19 4.28630E-03 2.54000E-02
      366  0.00000E+00 0.00000E+00 0.00000E+00 0.00000E+00 0.00000E+00 0.00000E+00 0.00000E+00 0.00000E+00 0.00000E+00 5.71500E-03 0.00000E+00 2.54000E-02
      380  0.00000E+00 0.00000E+00 0.00000E+00 0.00000E+00 0.00000E+00 0.00000E+00 0.00000E+00 0.00000E+00 0.00000E+00 3.49900E-19 5.71500E-03 2.54000E-02
      608  0.00000E+00 0.00000E+00 0.00000E+00 0.00000E+00 0.00000E+00 0.00000E+00 0.00000E+00 0.00000E+00 0.00000E+00 1.27000E-02 0.00000E+00 2.54000E-02
      609  0.00000E+00 0.00000E+00 0.00000E+00 0.00000E+00 0.00000E+00 0.00000E+00 0.00000E+00 0.00000E+00 0.00000E+00 1.09538E-02 0.00000E+00 2.54000E-02
      610  0.00000E+00 0.00000E+00 0.00000E+00 0.00000E+00 0.00000E+00 0.00000E+00 0.00000E+00 0.00000E+00 0.00000E+00 9.20750E-03 0.00000E+00 2.54000E-02
      611  0.00000E+00 0.00000E+00 0.00000E+00 0.00000E+00 0.00000E+00 0.00000E+00 0.00000E+00 0.00000E+00 0.00000E+00 7.46130E-03 0.00000E+00 2.54000E-02
      804  0.00000E+00 0.00000E+00 0.00000E+00 0.00000E+00 0.00000E+00 0.00000E+00 0.00000E+00 0.00000E+00 0.00000E+00 6.90200E-03 2.83400E-03 2.54000E-02
      806  0.00000E+00 0.00000E+00 0.00000E+00 0.00000E+00 0.00000E+00 0.00000E+00 0.00000E+00 0.00000E+00 0.00000E+00 5.27800E-03 5.27380E-03 2.54000E-02
      808  0.00000E+00 0.00000E+00 0.00000E+00 0.00000E+00 0.00000E+00 0.00000E+00 0.00000E+00 0.00000E+00 0.00000E+00 2.83770E-03 6.90050E-03 2.54000E-02
      810  0.00000E+00 0.00000E+00 0.00000E+00 0.00000E+00 0.00000E+00 0.00000E+00 0.00000E+00 0.00000E+00 0.00000E+00 4.56900E-19 7.46130E-03 2.54000E-02
      852  0.00000E+00 0.00000E+00 0.00000E+00 0.00000E+00 0.00000E+00 0.00000E+00 0.00000E+00 0.00000E+00 0.00000E+00 8.52400E-03 3.48110E-03 2.54000E-02
      854  0.00000E+00 0.00000E+00 0.00000E+00 0.00000E+00 0.00000E+00 0.00000E+00 0.00000E+00 0.00000E+00 0.00000E+00 6.51500E-03 6.50640E-03 2.54000E-02
      856  0.00000E+00 0.00000E+00 0.00000E+00 0.00000E+00 0.00000E+00 0.00000E+00 0.00000E+00 0.00000E+00 0.00000E+00 3.48870E-03 8.52100E-03 2.54000E-02
      858  0.00000E+00 0.00000E+00 0.00000E+00 0.00000E+00 0.00000E+00 0.00000E+00 0.00000E+00 0.00000E+00 0.00000E+00 5.63800E-19 9.20750E-03 2.54000E-02
      864  0.00000E+00 0.00000E+00 0.00000E+00 0.00000E+00 0.00000E+00 0.00000E+00 0.00000E+00 0.00000E+00 0.00000E+00 1.01461E-02 4.12810E-03 2.54000E-02
      866  0.00000E+00 0.00000E+00 0.00000E+00 0.00000E+00 0.00000E+00 0.00000E+00 0.00000E+00 0.00000E+00 0.00000E+00 7.75190E-03 7.73900E-03 2.54000E-02
      868  0.00000E+00 0.00000E+00 0.00000E+00 0.00000E+00 0.00000E+00 0.00000E+00 0.00000E+00 0.00000E+00 0.00000E+00 4.13970E-03 1.01414E-02 2.54000E-02
      870  0.00000E+00 0.00000E+00 0.00000E+00 0.00000E+00 0.00000E+00 0.00000E+00 0.00000E+00 0.00000E+00 0.00000E+00 6.70700E-19 1.09538E-02 2.54000E-02
      880  0.00000E+00 0.00000E+00 0.00000E+00 0.00000E+00 0.00000E+00 0.00000E+00 0.00000E+00 0.00000E+00 0.00000E+00 1.17681E-02 4.77520E-03 2.54000E-02
      882  0.00000E+00 0.00000E+00 0.00000E+00 0.00000E+00 0.00000E+00 0.00000E+00 0.00000E+00 0.00000E+00 0.00000E+00 8.98890E-03 8.97160E-03 2.54000E-02
      884  0.00000E+00 0.00000E+00 0.00000E+00 0.00000E+00 0.00000E+00 0.00000E+00 0.00000E+00 0.00000E+00 0.00000E+00 4.79070E-03 1.17618E-02 2.54000E-02
      886  0.00000E+00 0.00000E+00 0.00000E+00 0.00000E+00 0.00000E+00 0.00000E+00 0.00000E+00 0.00000E+00 0.00000E+00 7.77700E-19 1.27000E-02 2.54000E-02



 n o d a l   p r i n t   o u t   f o r   t i m e  s t e p      10                              ( at time 1.2924466E+00 )

 nodal point  x-disp     y-disp      z-disp      x-vel       y-vel       z-vel      x-accl      y-accl      z-accl      x-coor      y-coor      z-coor
        1  1.55885E-06 0.00000E+00 0.00000E+00 0.00000E+00 0.00000E+00 0.00000E+00 0.00000E+00 0.00000E+00 0.00000E+00 3.17656E-03 0.00000E+00-1.78000E-18
        2  9.28554E-07 0.00000E+00 0.00000E+00 0.00000E+00 0.00000E+00 0.00000E+00 0.00000E+00 0.00000E+00 0.00000E+00 2.38223E-03 0.00000E+00 0.00000E+00
        3  5.31308E-07 0.00000E+00 0.00000E+00 0.00000E+00 0.00000E+00 0.00000E+00 0.00000E+00 0.00000E+00 0.00000E+00 1.58803E-03 0.00000E+00 0.00000E+00
        4  2.44286E-07 0.00000E+00 0.00000E+00 0.00000E+00 0.00000E+00 0.00000E+00 0.00000E+00 0.00000E+00 0.00000E+00 7.93994E-04 0.00000E+00 0.00000E+00
        5  0.00000E+00 0.00000E+00 0.00000E+00 0.00000E+00 0.00000E+00 0.00000E+00 0.00000E+00 0.00000E+00 0.00000E+00 0.00000E+00 0.00000E+00 0.00000E+00
        6  0.00000E+00 2.28798E-07 0.00000E+00 0.00000E+00 0.00000E+00 0.00000E+00 0.00000E+00 0.00000E+00 0.00000E+00 4.86000E-20 7.93979E-04 0.00000E+00
        7  0.00000E+00 5.24346E-07 0.00000E+00 0.00000E+00 0.00000E+00 0.00000E+00 0.00000E+00 0.00000E+00 0.00000E+00 9.72100E-20 1.58802E-03 0.00000E+00
        8  0.00000E+00 9.87926E-07 0.00000E+00 0.00000E+00 0.00000E+00 0.00000E+00 0.00000E+00 0.00000E+00 0.00000E+00 1.45800E-19 2.38229E-03 0.00000E+00
        9  0.00000E+00 1.69943E-06 0.00000E+00 0.00000E+00 0.00000E+00 0.00000E+00 0.00000E+00 0.00000E+00 0.00000E+00 1.94400E-19 3.17670E-03 0.00000E+00
       10  5.73351E-07 1.62325E-06 0.00000E+00 0.00000E+00 0.00000E+00 0.00000E+00 0.00000E+00 0.00000E+00 0.00000E+00 1.21557E-03 2.93492E-03 0.00000E+00
       11  1.17699E-06 1.45145E-06 0.00000E+00 0.00000E+00 0.00000E+00 0.00000E+00 0.00000E+00 0.00000E+00 0.00000E+00 2.24628E-03 2.24655E-03 0.00000E+00
       12  1.48518E-06 8.23258E-07 0.00000E+00 0.00000E+00 0.00000E+00 0.00000E+00 0.00000E+00 0.00000E+00 0.00000E+00 2.93479E-03 1.21582E-03 0.00000E+00
       13  5.72765E-07 5.71025E-07 0.00000E+00 0.00000E+00 0.00000E+00 0.00000E+00 0.00000E+00 0.00000E+00 0.00000E+00 1.30887E-03 1.35247E-03 0.00000E+00
       14  5.51029E-07 2.76291E-07 0.00000E+00 0.00000E+00 0.00000E+00 0.00000E+00 0.00000E+00 0.00000E+00 0.00000E+00 1.48885E-03 7.07253E-04 0.00000E+00
       15  2.71792E-07 5.41893E-07 0.00000E+00 0.00000E+00 0.00000E+00 0.00000E+00 0.00000E+00 0.00000E+00 0.00000E+00 6.69782E-04 1.50754E-03 0.00000E+00
       16  2.58677E-07 2.60557E-07 0.00000E+00 0.00000E+00 0.00000E+00 0.00000E+00 0.00000E+00 0.00000E+00 0.00000E+00 7.53896E-04 7.82598E-04 0.00000E+00
       17  8.90138E-07 8.10414E-07 0.00000E+00 0.00000E+00 0.00000E+00 0.00000E+00 0.00000E+00 0.00000E+00 0.00000E+00 1.73719E-03 1.76831E-03 0.00000E+00
       18  4.48499E-07 9.15661E-07 0.00000E+00 0.00000E+00 0.00000E+00 0.00000E+00 0.00000E+00 0.00000E+00 0.00000E+00 9.20579E-04 2.19202E-03 0.00000E+00
       19  9.29426E-07 3.78610E-07 0.00000E+00 0.00000E+00 0.00000E+00 0.00000E+00 0.00000E+00 0.00000E+00 0.00000E+00 2.16423E-03 9.51237E-04 0.00000E+00
      167  1.44478E-07 1.62128E-07-1.29245E-05 0.00000E+00 0.00000E+00 0.00000E+00 0.00000E+00 0.00000E+00 0.00000E+00 3.12484E-03 3.18086E-03 2.53871E-02
      168  9.90362E-08 1.19289E-07-1.29245E-05 0.00000E+00 0.00000E+00 0.00000E+00 0.00000E+00 0.00000E+00 0.00000E+00 2.35440E-03 2.43282E-03 2.53871E-02
      169  1.10373E-07 4.70262E-08-1.29245E-05 0.00000E+00 0.00000E+00 0.00000E+00 0.00000E+00 0.00000E+00 0.00000E+00 2.67811E-03 1.27205E-03 2.53871E-02
      170  1.42758E-07 8.60441E-08-1.29245E-05 0.00000E+00 0.00000E+00 0.00000E+00 0.00000E+00 0.00000E+00 0.00000E+00 3.89294E-03 1.71099E-03 2.53871E-02
      197  3.62312E-08 1.19368E-07-1.29245E-05 0.00000E+00 0.00000E+00 0.00000E+00 0.00000E+00 0.00000E+00 0.00000E+00 1.20464E-03 2.71172E-03 2.53871E-02
      198  7.02231E-08 1.49910E-07-1.29245E-05 0.00000E+00 0.00000E+00 0.00000E+00 0.00000E+00 0.00000E+00 0.00000E+00 1.65567E-03 3.94295E-03 2.53871E-02
      225  1.26333E-07 0.00000E+00-1.29245E-05 0.00000E+00 0.00000E+00 0.00000E+00 0.00000E+00 0.00000E+00 0.00000E+00 2.85763E-03 0.00000E+00 2.53871E-02
      226  1.95760E-07 0.00000E+00-1.29245E-05 0.00000E+00 0.00000E+00 0.00000E+00 0.00000E+00 0.00000E+00 0.00000E+00 4.28650E-03 0.00000E+00 2.53871E-02
      279  6.19494E-08 0.00000E+00-1.29245E-05 0.00000E+00 0.00000E+00 0.00000E+00 0.00000E+00 0.00000E+00 0.00000E+00 1.42886E-03 0.00000E+00 2.53871E-02
      280  6.47059E-08 8.65784E-08-1.29245E-05 0.00000E+00 0.00000E+00 0.00000E+00 0.00000E+00 0.00000E+00 0.00000E+00 1.35626E-03 1.40789E-03 2.53871E-02
      281  0.00000E+00 7.68506E-08-1.29245E-05 0.00000E+00 0.00000E+00 0.00000E+00 0.00000E+00 0.00000E+00 0.00000E+00 8.74900E-20 1.42888E-03 2.53871E-02
      282  0.00000E+00 0.00000E+00-1.29245E-05 0.00000E+00 0.00000E+00 0.00000E+00 0.00000E+00 0.00000E+00 0.00000E+00 0.00000E+00 0.00000E+00 2.53871E-02
      296  0.00000E+00 1.48489E-07-1.29245E-05 0.00000E+00 0.00000E+00 0.00000E+00 0.00000E+00 0.00000E+00 0.00000E+00 1.75000E-19 2.85765E-03 2.53871E-02
      323  1.68086E-07 1.78123E-07-1.29245E-05 0.00000E+00 0.00000E+00 0.00000E+00 0.00000E+00 0.00000E+00 0.00000E+00 4.04127E-03 4.04138E-03 2.53871E-02
      324  9.24522E-08 2.30859E-07-1.29245E-05 0.00000E+00 0.00000E+00 0.00000E+00 0.00000E+00 0.00000E+00 0.00000E+00 2.18679E-03 5.28033E-03 2.53871E-02
      338  2.16328E-07 1.01675E-07-1.29245E-05 0.00000E+00 0.00000E+00 0.00000E+00 0.00000E+00 0.00000E+00 0.00000E+00 5.28022E-03 2.18700E-03 2.53871E-02
      352  0.00000E+00 2.18397E-07-1.29245E-05 0.00000E+00 0.00000E+00 0.00000E+00 0.00000E+00 0.00000E+00 0.00000E+00 2.62500E-19 4.28652E-03 2.53871E-02
      366  2.29436E-07 0.00000E+00-1.29245E-05 0.00000E+00 0.00000E+00 0.00000E+00 0.00000E+00 0.00000E+00 0.00000E+00 5.71523E-03 0.00000E+00 2.53871E-02
      380  0.00000E+00 2.58990E-07-1.29245E-05 0.00000E+00 0.00000E+00 0.00000E+00 0.00000E+00 0.00000E+00 0.00000E+00 3.49900E-19 5.71526E-03 2.53871E-02
      608  4.88313E-07 0.00000E+00-1.29245E-05 0.00000E+00 0.00000E+00 0.00000E+00 0.00000E+00 0.00000E+00 0.00000E+00 1.27005E-02 0.00000E+00 2.53871E-02
      609  4.20791E-07 0.00000E+00-1.29245E-05 0.00000E+00 0.00000E+00 0.00000E+00 0.00000E+00 0.00000E+00 0.00000E+00 1.09542E-02 0.00000E+00 2.53871E-02
      610  3.65459E-07 0.00000E+00-1.29245E-05 0.00000E+00 0.00000E+00 0.00000E+00 0.00000E+00 0.00000E+00 0.00000E+00 9.20787E-03 0.00000E+00 2.53871E-02
      611  3.05681E-07 0.00000E+00-1.29245E-05 0.00000E+00 0.00000E+00 0.00000E+00 0.00000E+00 0.00000E+00 0.00000E+00 7.46161E-03 0.00000E+00 2.53871E-02
      804  2.89014E-07 1.39225E-07-1.29245E-05 0.00000E+00 0.00000E+00 0.00000E+00 0.00000E+00 0.00000E+00 0.00000E+00 6.90229E-03 2.83414E-03 2.53871E-02
      806  2.30302E-07 2.54384E-07-1.29245E-05 0.00000E+00 0.00000E+00 0.00000E+00 0.00000E+00 0.00000E+00 0.00000E+00 5.27823E-03 5.27405E-03 2.53871E-02
      808  1.25410E-07 3.25470E-07-1.29245E-05 0.00000E+00 0.00000E+00 0.00000E+00 0.00000E+00 0.00000E+00 0.00000E+00 2.83783E-03 6.90083E-03 2.53871E-02
      810  0.00000E+00 3.55279E-07-1.29245E-05 0.00000E+00 0.00000E+00 0.00000E+00 0.00000E+00 0.00000E+00 0.00000E+00 4.56900E-19 7.46166E-03 2.53871E-02
      852  3.47628E-07 1.69175E-07-1.29245E-05 0.00000E+00 0.00000E+00 0.00000E+00 0.00000E+00 0.00000E+00 0.00000E+00 8.52435E-03 3.48127E-03 2.53871E-02
      854  2.81708E-07 3.12798E-07-1.29245E-05 0.00000E+00 0.00000E+00 0.00000E+00 0.00000E+00 0.00000E+00 0.00000E+00 6.51528E-03 6.50671E-03 2.53871E-02
      856  1.55749E-07 3.99584E-07-1.29245E-05 0.00000E+00 0.00000E+00 0.00000E+00 0.00000E+00 0.00000E+00 0.00000E+00 3.48886E-03 8.52140E-03 2.53871E-02
      858  0.00000E+00 4.30202E-07-1.29245E-05 0.00000E+00 0.00000E+00 0.00000E+00 0.00000E+00 0.00000E+00 0.00000E+00 5.63800E-19 9.20793E-03 2.53871E-02
      864  4.04798E-07 1.97585E-07-1.29245E-05 0.00000E+00 0.00000E+00 0.00000E+00 0.00000E+00 0.00000E+00 0.00000E+00 1.01465E-02 4.12830E-03 2.53871E-02
      866  3.32249E-07 3.72892E-07-1.29245E-05 0.00000E+00 0.00000E+00 0.00000E+00 0.00000E+00 0.00000E+00 0.00000E+00 7.75223E-03 7.73937E-03 2.53871E-02
      868  1.84468E-07 4.79362E-07-1.29245E-05 0.00000E+00 0.00000E+00 0.00000E+00 0.00000E+00 0.00000E+00 0.00000E+00 4.13988E-03 1.01419E-02 2.53871E-02
      870  0.00000E+00 5.16075E-07-1.29245E-05 0.00000E+00 0.00000E+00 0.00000E+00 0.00000E+00 0.00000E+00 0.00000E+00 6.70700E-19 1.09543E-02 2.53871E-02
      880  4.63721E-07 2.26634E-07-1.29245E-05 0.00000E+00 0.00000E+00 0.00000E+00 0.00000E+00 0.00000E+00 0.00000E+00 1.17686E-02 4.77543E-03 2.53871E-02
      882  3.85400E-07 4.38720E-07-1.29245E-05 0.00000E+00 0.00000E+00 0.00000E+00 0.00000E+00 0.00000E+00 0.00000E+00 8.98929E-03 8.97204E-03 2.53871E-02
      884  2.35411E-07 6.26327E-07-1.29245E-05 0.00000E+00 0.00000E+00 0.00000E+00 0.00000E+00 0.00000E+00 0.00000E+00 4.79094E-03 1.17624E-02 2.53871E-02
      886  0.00000E+00 7.15981E-07-1.29245E-05 0.00000E+00 0.00000E+00 0.00000E+00 0.00000E+00 0.00000E+00 0.00000E+00 7.77700E-19 1.27007E-02 2.53871E-02



 n o d a l   p r i n t   o u t   f o r   t i m e  s t e p      14                              ( at time 2.5483898E+00 )

 nodal point  x-disp     y-disp      z-disp      x-vel       y-vel       z-vel      x-accl      y-accl      z-accl      x-coor      y-coor      z-coor
        1  3.19897E-06 0.00000E+00 0.00000E+00 0.00000E+00 0.00000E+00 0.00000E+00 0.00000E+00 0.00000E+00 0.00000E+00 3.17820E-03 0.00000E+00-1.78000E-18
        2  1.80991E-06 0.00000E+00 0.00000E+00 0.00000E+00 0.00000E+00 0.00000E+00 0.00000E+00 0.00000E+00 0.00000E+00 2.38311E-03 0.00000E+00 0.00000E+00
        3  1.00769E-06 0.00000E+00 0.00000E+00 0.00000E+00 0.00000E+00 0.00000E+00 0.00000E+00 0.00000E+00 0.00000E+00 1.58851E-03 0.00000E+00 0.00000E+00
        4  4.60777E-07 0.00000E+00 0.00000E+00 0.00000E+00 0.00000E+00 0.00000E+00 0.00000E+00 0.00000E+00 0.00000E+00 7.94211E-04 0.00000E+00 0.00000E+00
        5  0.00000E+00 0.00000E+00 0.00000E+00 0.00000E+00 0.00000E+00 0.00000E+00 0.00000E+00 0.00000E+00 0.00000E+00 0.00000E+00 0.00000E+00 0.00000E+00
        6  0.00000E+00 4.24073E-07 0.00000E+00 0.00000E+00 0.00000E+00 0.00000E+00 0.00000E+00 0.00000E+00 0.00000E+00 4.86000E-20 7.94174E-04 0.00000E+00
        7  0.00000E+00 9.96675E-07 0.00000E+00 0.00000E+00 0.00000E+00 0.00000E+00 0.00000E+00 0.00000E+00 0.00000E+00 9.72100E-20 1.58850E-03 0.00000E+00
        8  0.00000E+00 1.95961E-06 0.00000E+00 0.00000E+00 0.00000E+00 0.00000E+00 0.00000E+00 0.00000E+00 0.00000E+00 1.45800E-19 2.38326E-03 0.00000E+00
        9  0.00000E+00 3.52050E-06 0.00000E+00 0.00000E+00 0.00000E+00 0.00000E+00 0.00000E+00 0.00000E+00 0.00000E+00 1.94400E-19 3.17852E-03 0.00000E+00
       10  1.20333E-06 3.40561E-06 0.00000E+00 0.00000E+00 0.00000E+00 0.00000E+00 0.00000E+00 0.00000E+00 0.00000E+00 1.21620E-03 2.93671E-03 0.00000E+00
       11  2.49247E-06 3.09912E-06 0.00000E+00 0.00000E+00 0.00000E+00 0.00000E+00 0.00000E+00 0.00000E+00 0.00000E+00 2.24759E-03 2.24820E-03 0.00000E+00
       12  3.11928E-06 1.76042E-06 0.00000E+00 0.00000E+00 0.00000E+00 0.00000E+00 0.00000E+00 0.00000E+00 0.00000E+00 2.93642E-03 1.21676E-03 0.00000E+00
       13  1.17227E-06 1.16996E-06 0.00000E+00 0.00000E+00 0.00000E+00 0.00000E+00 0.00000E+00 0.00000E+00 0.00000E+00 1.30947E-03 1.35307E-03 0.00000E+00
       14  1.10705E-06 5.64365E-07 0.00000E+00 0.00000E+00 0.00000E+00 0.00000E+00 0.00000E+00 0.00000E+00 0.00000E+00 1.48941E-03 7.07541E-04 0.00000E+00
       15  5.53450E-07 1.07017E-06 0.00000E+00 0.00000E+00 0.00000E+00 0.00000E+00 0.00000E+00 0.00000E+00 0.00000E+00 6.70064E-04 1.50807E-03 0.00000E+00
       16  5.15569E-07 5.10166E-07 0.00000E+00 0.00000E+00 0.00000E+00 0.00000E+00 0.00000E+00 0.00000E+00 0.00000E+00 7.54153E-04 7.82847E-04 0.00000E+00
       17  1.82974E-06 1.68695E-06 0.00000E+00 0.00000E+00 0.00000E+00 0.00000E+00 0.00000E+00 0.00000E+00 0.00000E+00 1.73813E-03 1.76919E-03 0.00000E+00
       18  9.09471E-07 1.85498E-06 0.00000E+00 0.00000E+00 0.00000E+00 0.00000E+00 0.00000E+00 0.00000E+00 0.00000E+00 9.21040E-04 2.19295E-03 0.00000E+00
       19  1.88887E-06 7.91081E-07 0.00000E+00 0.00000E+00 0.00000E+00 0.00000E+00 0.00000E+00 0.00000E+00 0.00000E+00 2.16519E-03 9.51650E-04 0.00000E+00
      167  2.74968E-07 3.22966E-07-2.54839E-05 0.00000E+00 0.00000E+00 0.00000E+00 0.00000E+00 0.00000E+00 0.00000E+00 3.12497E-03 3.18102E-03 2.53745E-02
      168  1.81709E-07 2.35757E-07-2.54839E-05 0.00000E+00 0.00000E+00 0.00000E+00 0.00000E+00 0.00000E+00 0.00000E+00 2.35448E-03 2.43294E-03 2.53745E-02
      169  2.00090E-07 9.93982E-08-2.54839E-05 0.00000E+00 0.00000E+00 0.00000E+00 0.00000E+00 0.00000E+00 0.00000E+00 2.67820E-03 1.27210E-03 2.53745E-02
      170  2.62336E-07 1.75771E-07-2.54839E-05 0.00000E+00 0.00000E+00 0.00000E+00 0.00000E+00 0.00000E+00 0.00000E+00 3.89306E-03 1.71108E-03 2.53745E-02
      197  6.33630E-08 2.27606E-07-2.54839E-05 0.00000E+00 0.00000E+00 0.00000E+00 0.00000E+00 0.00000E+00 0.00000E+00 1.20466E-03 2.71183E-03 2.53745E-02
      198  1.30283E-07 2.79819E-07-2.54839E-05 0.00000E+00 0.00000E+00 0.00000E+00 0.00000E+00 0.00000E+00 0.00000E+00 1.65573E-03 3.94308E-03 2.53745E-02
      225  2.31088E-07 0.00000E+00-2.54839E-05 0.00000E+00 0.00000E+00 0.00000E+00 0.00000E+00 0.00000E+00 0.00000E+00 2.85773E-03 0.00000E+00 2.53745E-02
      226  3.66659E-07 0.00000E+00-2.54839E-05 0.00000E+00 0.00000E+00 0.00000E+00 0.00000E+00 0.00000E+00 0.00000E+00 4.28667E-03 0.00000E+00 2.53745E-02
      279  1.09257E-07 0.00000E+00-2.54839E-05 0.00000E+00 0.00000E+00 0.00000E+00 0.00000E+00 0.00000E+00 0.00000E+00 1.42891E-03 0.00000E+00 2.53745E-02
      280  1.16712E-07 1.75207E-07-2.54839E-05 0.00000E+00 0.00000E+00 0.00000E+00 0.00000E+00 0.00000E+00 0.00000E+00 1.35632E-03 1.40798E-03 2.53745E-02
      281  0.00000E+00 1.60324E-07-2.54839E-05 0.00000E+00 0.00000E+00 0.00000E+00 0.00000E+00 0.00000E+00 0.00000E+00 8.74900E-20 1.42896E-03 2.53745E-02
      282  0.00000E+00 0.00000E+00-2.54839E-05 0.00000E+00 0.00000E+00 0.00000E+00 0.00000E+00 0.00000E+00 0.00000E+00 0.00000E+00 0.00000E+00 2.53745E-02
      296  0.00000E+00 2.97797E-07-2.54839E-05 0.00000E+00 0.00000E+00 0.00000E+00 0.00000E+00 0.00000E+00 0.00000E+00 1.75000E-19 2.85780E-03 2.53745E-02
      323  3.20245E-07 3.56097E-07-2.54839E-05 0.00000E+00 0.00000E+00 0.00000E+00 0.00000E+00 0.00000E+00 0.00000E+00 4.04142E-03 4.04156E-03 2.53745E-02
      324  1.74835E-07 4.45165E-07-2.54839E-05 0.00000E+00 0.00000E+00 0.00000E+00 0.00000E+00 0.00000E+00 0.00000E+00 2.18687E-03 5.28055E-03 2.53745E-02
      338  4.04993E-07 2.09764E-07-2.54839E-05 0.00000E+00 0.00000E+00 0.00000E+00 0.00000E+00 0.00000E+00 0.00000E+00 5.28040E-03 2.18711E-03 2.53745E-02
      352  0.00000E+00 4.31181E-07-2.54839E-05 0.00000E+00 0.00000E+00 0.00000E+00 0.00000E+00 0.00000E+00 0.00000E+00 2.62500E-19 4.28673E-03 2.53745E-02
      366  4.24009E-07 0.00000E+00-2.54839E-05 0.00000E+00 0.00000E+00 0.00000E+00 0.00000E+00 0.00000E+00 0.00000E+00 5.71542E-03 0.00000E+00 2.53745E-02
      380  0.00000E+00 5.03979E-07-2.54839E-05 0.00000E+00 0.00000E+00 0.00000E+00 0.00000E+00 0.00000E+00 0.00000E+00 3.49900E-19 5.71550E-03 2.53745E-02
      608  8.92396E-07 0.00000E+00-2.54839E-05 0.00000E+00 0.00000E+00 0.00000E+00 0.00000E+00 0.00000E+00 0.00000E+00 1.27009E-02 0.00000E+00 2.53745E-02
      609  7.80029E-07 0.00000E+00-2.54839E-05 0.00000E+00 0.00000E+00 0.00000E+00 0.00000E+00 0.00000E+00 0.00000E+00 1.09546E-02 0.00000E+00 2.53745E-02
      610  6.79947E-07 0.00000E+00-2.54839E-05 0.00000E+00 0.00000E+00 0.00000E+00 0.00000E+00 0.00000E+00 0.00000E+00 9.20818E-03 0.00000E+00 2.53745E-02
      611  5.68497E-07 0.00000E+00-2.54839E-05 0.00000E+00 0.00000E+00 0.00000E+00 0.00000E+00 0.00000E+00 0.00000E+00 7.46187E-03 0.00000E+00 2.53745E-02
      804  5.43129E-07 2.86342E-07-2.54839E-05 0.00000E+00 0.00000E+00 0.00000E+00 0.00000E+00 0.00000E+00 0.00000E+00 6.90254E-03 2.83429E-03 2.53745E-02
      806  4.42554E-07 5.08256E-07-2.54839E-05 0.00000E+00 0.00000E+00 0.00000E+00 0.00000E+00 0.00000E+00 0.00000E+00 5.27844E-03 5.27431E-03 2.53745E-02
      808  2.43071E-07 6.36719E-07-2.54839E-05 0.00000E+00 0.00000E+00 0.00000E+00 0.00000E+00 0.00000E+00 0.00000E+00 2.83794E-03 6.90114E-03 2.53745E-02
      810  0.00000E+00 6.96156E-07-2.54839E-05 0.00000E+00 0.00000E+00 0.00000E+00 0.00000E+00 0.00000E+00 0.00000E+00 4.56900E-19 7.46200E-03 2.53745E-02
      852  6.54618E-07 3.48849E-07-2.54839E-05 0.00000E+00 0.00000E+00 0.00000E+00 0.00000E+00 0.00000E+00 0.00000E+00 8.52465E-03 3.48145E-03 2.53745E-02
      854  5.43362E-07 6.25027E-07-2.54839E-05 0.00000E+00 0.00000E+00 0.00000E+00 0.00000E+00 0.00000E+00 0.00000E+00 6.51554E-03 6.50703E-03 2.53745E-02
      856  3.05989E-07 7.86824E-07-2.54839E-05 0.00000E+00 0.00000E+00 0.00000E+00 0.00000E+00 0.00000E+00 0.00000E+00 3.48901E-03 8.52179E-03 2.53745E-02
      858  0.00000E+00 8.45247E-07-2.54839E-05 0.00000E+00 0.00000E+00 0.00000E+00 0.00000E+00 0.00000E+00 0.00000E+00 5.63800E-19 9.20835E-03 2.53745E-02
      864  7.62275E-07 4.05384E-07-2.54839E-05 0.00000E+00 0.00000E+00 0.00000E+00 0.00000E+00 0.00000E+00 0.00000E+00 1.01469E-02 4.12851E-03 2.53745E-02
      866  6.43256E-07 7.43720E-07-2.54839E-05 0.00000E+00 0.00000E+00 0.00000E+00 0.00000E+00 0.00000E+00 0.00000E+00 7.75254E-03 7.73974E-03 2.53745E-02
      868  3.62557E-07 9.47121E-07-2.54839E-05 0.00000E+00 0.00000E+00 0.00000E+00 0.00000E+00 0.00000E+00 0.00000E+00 4.14006E-03 1.01423E-02 2.53745E-02
      870  0.00000E+00 1.02212E-06-2.54839E-05 0.00000E+00 0.00000E+00 0.00000E+00 0.00000E+00 0.00000E+00 0.00000E+00 6.70700E-19 1.09548E-02 2.53745E-02
      880  8.58395E-07 4.52769E-07-2.54839E-05 0.00000E+00 0.00000E+00 0.00000E+00 0.00000E+00 0.00000E+00 0.00000E+00 1.17690E-02 4.77565E-03 2.53745E-02
      882  7.32601E-07 8.62666E-07-2.54839E-05 0.00000E+00 0.00000E+00 0.00000E+00 0.00000E+00 0.00000E+00 0.00000E+00 8.98963E-03 8.97246E-03 2.53745E-02
      884  4.64402E-07 1.25427E-06-2.54839E-05 0.00000E+00 0.00000E+00 0.00000E+00 0.00000E+00 0.00000E+00 0.00000E+00 4.79116E-03 1.17631E-02 2.53745E-02
      886  0.00000E+00 1.46587E-06-2.54839E-05 0.00000E+00 0.00000E+00 0.00000E+00 0.00000E+00 0.00000E+00 0.00000E+00 7.77700E-19 1.27015E-02 2.53745E-02



 n o d a l   p r i n t   o u t   f o r   t i m e  s t e p     175                              ( at time 4.5389257E+00 )

 nodal point  x-disp     y-disp      z-disp      x-vel       y-vel       z-vel      x-accl      y-accl      z-accl      x-coor      y-coor      z-coor
        1  1.06443E-05 0.00000E+00 0.00000E+00 0.00000E+00 0.00000E+00 0.00000E+00 0.00000E+00 0.00000E+00 0.00000E+00 3.18564E-03 0.00000E+00-1.78000E-18
        2  5.41674E-06 0.00000E+00 0.00000E+00 0.00000E+00 0.00000E+00 0.00000E+00 0.00000E+00 0.00000E+00 0.00000E+00 2.38672E-03 0.00000E+00 0.00000E+00
        3  2.62934E-06 0.00000E+00 0.00000E+00 0.00000E+00 0.00000E+00 0.00000E+00 0.00000E+00 0.00000E+00 0.00000E+00 1.59013E-03 0.00000E+00 0.00000E+00
        4  1.23472E-06 0.00000E+00 0.00000E+00 0.00000E+00 0.00000E+00 0.00000E+00 0.00000E+00 0.00000E+00 0.00000E+00 7.94985E-04 0.00000E+00 0.00000E+00
        5  0.00000E+00 0.00000E+00 0.00000E+00 0.00000E+00 0.00000E+00 0.00000E+00 0.00000E+00 0.00000E+00 0.00000E+00 0.00000E+00 0.00000E+00 0.00000E+00
        6  0.00000E+00 1.50012E-06 0.00000E+00 0.00000E+00 0.00000E+00 0.00000E+00 0.00000E+00 0.00000E+00 0.00000E+00 4.86000E-20 7.95250E-04 0.00000E+00
        7  0.00000E+00 3.87607E-06 0.00000E+00 0.00000E+00 0.00000E+00 0.00000E+00 0.00000E+00 0.00000E+00 0.00000E+00 9.72100E-20 1.59138E-03 0.00000E+00
        8  0.00000E+00 7.92662E-06 0.00000E+00 0.00000E+00 0.00000E+00 0.00000E+00 0.00000E+00 0.00000E+00 0.00000E+00 1.45800E-19 2.38923E-03 0.00000E+00
        9  0.00000E+00 1.33722E-05 0.00000E+00 0.00000E+00 0.00000E+00 0.00000E+00 0.00000E+00 0.00000E+00 0.00000E+00 1.94400E-19 3.18837E-03 0.00000E+00
       10  5.86348E-06 1.43174E-05 0.00000E+00 0.00000E+00 0.00000E+00 0.00000E+00 0.00000E+00 0.00000E+00 0.00000E+00 1.22086E-03 2.94762E-03 0.00000E+00
       11  1.21438E-05 1.42053E-05 0.00000E+00 0.00000E+00 0.00000E+00 0.00000E+00 0.00000E+00 0.00000E+00 0.00000E+00 2.25724E-03 2.25931E-03 0.00000E+00
       12  1.58124E-05 9.10438E-06 0.00000E+00 0.00000E+00 0.00000E+00 0.00000E+00 0.00000E+00 0.00000E+00 0.00000E+00 2.94911E-03 1.22410E-03 0.00000E+00
       13  7.20368E-06 7.71854E-06 0.00000E+00 0.00000E+00 0.00000E+00 0.00000E+00 0.00000E+00 0.00000E+00 0.00000E+00 1.31550E-03 1.35962E-03 0.00000E+00
       14  7.63696E-06 4.47478E-06 0.00000E+00 0.00000E+00 0.00000E+00 0.00000E+00 0.00000E+00 0.00000E+00 0.00000E+00 1.49594E-03 7.11452E-04 0.00000E+00
       15  3.36452E-06 5.56822E-06 0.00000E+00 0.00000E+00 0.00000E+00 0.00000E+00 0.00000E+00 0.00000E+00 0.00000E+00 6.72875E-04 1.51257E-03 0.00000E+00
       16  3.46015E-06 2.65716E-06 0.00000E+00 0.00000E+00 0.00000E+00 0.00000E+00 0.00000E+00 0.00000E+00 0.00000E+00 7.57098E-04 7.84994E-04 0.00000E+00
       17  1.02552E-05 9.91678E-06 0.00000E+00 0.00000E+00 0.00000E+00 0.00000E+00 0.00000E+00 0.00000E+00 0.00000E+00 1.74656E-03 1.77742E-03 0.00000E+00
       18  4.86139E-06 9.18530E-06 0.00000E+00 0.00000E+00 0.00000E+00 0.00000E+00 0.00000E+00 0.00000E+00 0.00000E+00 9.24992E-04 2.20029E-03 0.00000E+00
       19  1.17757E-05 5.76361E-06 0.00000E+00 0.00000E+00 0.00000E+00 0.00000E+00 0.00000E+00 0.00000E+00 0.00000E+00 2.17508E-03 9.56622E-04 0.00000E+00
      167  1.12046E-07 9.12145E-07-4.53893E-05 0.00000E+00 0.00000E+00 0.00000E+00 0.00000E+00 0.00000E+00 0.00000E+00 3.12481E-03 3.18161E-03 2.53546E-02
      168  1.12743E-07 5.91745E-07-4.53893E-05 0.00000E+00 0.00000E+00 0.00000E+00 0.00000E+00 0.00000E+00 0.00000E+00 2.35441E-03 2.43329E-03 2.53546E-02
      169 -3.13600E-08 1.07135E-06-4.53893E-05 0.00000E+00 0.00000E+00 0.00000E+00 0.00000E+00 0.00000E+00 0.00000E+00 2.67797E-03 1.27307E-03 2.53546E-02
      170 -1.20774E-07 1.10082E-06-4.53893E-05 0.00000E+00 0.00000E+00 0.00000E+00 0.00000E+00 0.00000E+00 0.00000E+00 3.89268E-03 1.71200E-03 2.53546E-02
      197 -1.01653E-08 4.76431E-07-4.53893E-05 0.00000E+00 0.00000E+00 0.00000E+00 0.00000E+00 0.00000E+00 0.00000E+00 1.20459E-03 2.71208E-03 2.53546E-02
      198 -3.95066E-08 2.96459E-07-4.53893E-05 0.00000E+00 0.00000E+00 0.00000E+00 0.00000E+00 0.00000E+00 0.00000E+00 1.65556E-03 3.94310E-03 2.53546E-02
      225  1.52276E-06 0.00000E+00-4.53893E-05 0.00000E+00 0.00000E+00 0.00000E+00 0.00000E+00 0.00000E+00 0.00000E+00 2.85902E-03 0.00000E+00 2.53546E-02
      226  9.40676E-07 0.00000E+00-4.53893E-05 0.00000E+00 0.00000E+00 0.00000E+00 0.00000E+00 0.00000E+00 0.00000E+00 4.28724E-03 0.00000E+00 2.53546E-02
      279  1.85560E-06 0.00000E+00-4.53893E-05 0.00000E+00 0.00000E+00 0.00000E+00 0.00000E+00 0.00000E+00 0.00000E+00 1.43066E-03 0.00000E+00 2.53546E-02
      280 -2.26108E-08 9.85065E-07-4.53893E-05 0.00000E+00 0.00000E+00 0.00000E+00 0.00000E+00 0.00000E+00 0.00000E+00 1.35618E-03 1.40879E-03 2.53546E-02
      281  0.00000E+00 1.11300E-06-4.53893E-05 0.00000E+00 0.00000E+00 0.00000E+00 0.00000E+00 0.00000E+00 0.00000E+00 8.74900E-20 1.42991E-03 2.53546E-02
      282  0.00000E+00 0.00000E+00-4.53893E-05 0.00000E+00 0.00000E+00 0.00000E+00 0.00000E+00 0.00000E+00 0.00000E+00 0.00000E+00 0.00000E+00 2.53546E-02
      296  0.00000E+00 9.21966E-07-4.53893E-05 0.00000E+00 0.00000E+00 0.00000E+00 0.00000E+00 0.00000E+00 0.00000E+00 1.75000E-19 2.85842E-03 2.53546E-02
      323  2.25999E-07 8.62728E-07-4.53893E-05 0.00000E+00 0.00000E+00 0.00000E+00 0.00000E+00 0.00000E+00 0.00000E+00 4.04133E-03 4.04206E-03 2.53546E-02
      324  8.82159E-08 5.53587E-07-4.53893E-05 0.00000E+00 0.00000E+00 0.00000E+00 0.00000E+00 0.00000E+00 0.00000E+00 2.18679E-03 5.28065E-03 2.53546E-02
      338  2.04199E-07 1.07368E-06-4.53893E-05 0.00000E+00 0.00000E+00 0.00000E+00 0.00000E+00 0.00000E+00 0.00000E+00 5.28020E-03 2.18797E-03 2.53546E-02
      352  0.00000E+00 1.25616E-06-4.53893E-05 0.00000E+00 0.00000E+00 0.00000E+00 0.00000E+00 0.00000E+00 0.00000E+00 2.62500E-19 4.28756E-03 2.53546E-02
      366  4.15856E-07 0.00000E+00-4.53893E-05 0.00000E+00 0.00000E+00 0.00000E+00 0.00000E+00 0.00000E+00 0.00000E+00 5.71542E-03 0.00000E+00 2.53546E-02
      380  0.00000E+00 9.20136E-07-4.53893E-05 0.00000E+00 0.00000E+00 0.00000E+00 0.00000E+00 0.00000E+00 0.00000E+00 3.49900E-19 5.71592E-03 2.53546E-02
      608 -9.45268E-08 0.00000E+00-4.53893E-05 0.00000E+00 0.00000E+00 0.00000E+00 0.00000E+00 0.00000E+00 0.00000E+00 1.26999E-02 0.00000E+00 2.53546E-02
      609  1.41791E-07 0.00000E+00-4.53893E-05 0.00000E+00 0.00000E+00 0.00000E+00 0.00000E+00 0.00000E+00 0.00000E+00 1.09539E-02 0.00000E+00 2.53546E-02
      610  1.92758E-07 0.00000E+00-4.53893E-05 0.00000E+00 0.00000E+00 0.00000E+00 0.00000E+00 0.00000E+00 0.00000E+00 9.20769E-03 0.00000E+00 2.53546E-02
      611  2.26116E-07 0.00000E+00-4.53893E-05 0.00000E+00 0.00000E+00 0.00000E+00 0.00000E+00 0.00000E+00 0.00000E+00 7.46153E-03 0.00000E+00 2.53546E-02
      804  2.85033E-07 1.09593E-06-4.53893E-05 0.00000E+00 0.00000E+00 0.00000E+00 0.00000E+00 0.00000E+00 0.00000E+00 6.90229E-03 2.83510E-03 2.53546E-02
      806  4.54856E-07 1.02110E-06-4.53893E-05 0.00000E+00 0.00000E+00 0.00000E+00 0.00000E+00 0.00000E+00 0.00000E+00 5.27845E-03 5.27482E-03 2.53546E-02
      808  2.72201E-07 8.72001E-07-4.53893E-05 0.00000E+00 0.00000E+00 0.00000E+00 0.00000E+00 0.00000E+00 0.00000E+00 2.83797E-03 6.90137E-03 2.53546E-02
      810  0.00000E+00 1.16736E-06-4.53893E-05 0.00000E+00 0.00000E+00 0.00000E+00 0.00000E+00 0.00000E+00 0.00000E+00 4.56900E-19 7.46247E-03 2.53546E-02
      852  3.87304E-07 1.22548E-06-4.53893E-05 0.00000E+00 0.00000E+00 0.00000E+00 0.00000E+00 0.00000E+00 0.00000E+00 8.52439E-03 3.48233E-03 2.53546E-02
      854  6.04571E-07 1.09066E-06-4.53893E-05 0.00000E+00 0.00000E+00 0.00000E+00 0.00000E+00 0.00000E+00 0.00000E+00 6.51560E-03 6.50749E-03 2.53546E-02
      856  4.45864E-07 1.07960E-06-4.53893E-05 0.00000E+00 0.00000E+00 0.00000E+00 0.00000E+00 0.00000E+00 0.00000E+00 3.48915E-03 8.52208E-03 2.53546E-02
      858  0.00000E+00 1.51485E-06-4.53893E-05 0.00000E+00 0.00000E+00 0.00000E+00 0.00000E+00 0.00000E+00 0.00000E+00 5.63800E-19 9.20901E-03 2.53546E-02
      864  4.74683E-07 1.31829E-06-4.53893E-05 0.00000E+00 0.00000E+00 0.00000E+00 0.00000E+00 0.00000E+00 0.00000E+00 1.01466E-02 4.12942E-03 2.53546E-02
      866  8.11589E-07 1.17732E-06-4.53893E-05 0.00000E+00 0.00000E+00 0.00000E+00 0.00000E+00 0.00000E+00 0.00000E+00 7.75271E-03 7.74018E-03 2.53546E-02
      868  4.82714E-07 1.21870E-06-4.53893E-05 0.00000E+00 0.00000E+00 0.00000E+00 0.00000E+00 0.00000E+00 0.00000E+00 4.14018E-03 1.01426E-02 2.53546E-02
      870  0.00000E+00 1.99200E-06-4.53893E-05 0.00000E+00 0.00000E+00 0.00000E+00 0.00000E+00 0.00000E+00 0.00000E+00 6.70700E-19 1.09558E-02 2.53546E-02
      880  2.63027E-07 1.13970E-06-4.53893E-05 0.00000E+00 0.00000E+00 0.00000E+00 0.00000E+00 0.00000E+00 0.00000E+00 1.17684E-02 4.77634E-03 2.53546E-02
      882  6.92846E-07 1.17192E-06-4.53893E-05 0.00000E+00 0.00000E+00 0.00000E+00 0.00000E+00 0.00000E+00 0.00000E+00 8.98959E-03 8.97277E-03 2.53546E-02
      884  6.56811E-07 2.02995E-06-4.53893E-05 0.00000E+00 0.00000E+00 0.00000E+00 0.00000E+00 0.00000E+00 0.00000E+00 4.79136E-03 1.17638E-02 2.53546E-02
      886  0.00000E+00 2.81032E-06-4.53893E-05 0.00000E+00 0.00000E+00 0.00000E+00 0.00000E+00 0.00000E+00 0.00000E+00 7.77700E-19 1.27028E-02 2.53546E-02



 n o d a l   p r i n t   o u t   f o r   t i m e  s t e p     181                              ( at time 6.5294615E+00 )

 nodal point  x-disp     y-disp      z-disp      x-vel       y-vel       z-vel      x-accl      y-accl      z-accl      x-coor      y-coor      z-coor
        1  2.53169E-05 0.00000E+00 0.00000E+00 0.00000E+00 0.00000E+00 0.00000E+00 0.00000E+00 0.00000E+00 0.00000E+00 3.20032E-03 0.00000E+00-1.78000E-18
        2  1.55195E-05 0.00000E+00 0.00000E+00 0.00000E+00 0.00000E+00 0.00000E+00 0.00000E+00 0.00000E+00 0.00000E+00 2.39682E-03 0.00000E+00 0.00000E+00
        3  8.98941E-06 0.00000E+00 0.00000E+00 0.00000E+00 0.00000E+00 0.00000E+00 0.00000E+00 0.00000E+00 0.00000E+00 1.59649E-03 0.00000E+00 0.00000E+00
        4  4.44524E-06 0.00000E+00 0.00000E+00 0.00000E+00 0.00000E+00 0.00000E+00 0.00000E+00 0.00000E+00 0.00000E+00 7.98195E-04 0.00000E+00 0.00000E+00
        5  0.00000E+00 0.00000E+00 0.00000E+00 0.00000E+00 0.00000E+00 0.00000E+00 0.00000E+00 0.00000E+00 0.00000E+00 0.00000E+00 0.00000E+00 0.00000E+00
        6  0.00000E+00 4.61739E-06 0.00000E+00 0.00000E+00 0.00000E+00 0.00000E+00 0.00000E+00 0.00000E+00 0.00000E+00 4.86000E-20 7.98367E-04 0.00000E+00
        7  0.00000E+00 1.05355E-05 0.00000E+00 0.00000E+00 0.00000E+00 0.00000E+00 0.00000E+00 0.00000E+00 0.00000E+00 9.72100E-20 1.59804E-03 0.00000E+00
        8  0.00000E+00 1.89926E-05 0.00000E+00 0.00000E+00 0.00000E+00 0.00000E+00 0.00000E+00 0.00000E+00 0.00000E+00 1.45800E-19 2.40029E-03 0.00000E+00
        9  0.00000E+00 2.90230E-05 0.00000E+00 0.00000E+00 0.00000E+00 0.00000E+00 0.00000E+00 0.00000E+00 0.00000E+00 1.94400E-19 3.20402E-03 0.00000E+00
       10  1.27272E-05 2.94872E-05 0.00000E+00 0.00000E+00 0.00000E+00 0.00000E+00 0.00000E+00 0.00000E+00 0.00000E+00 1.22773E-03 2.96279E-03 0.00000E+00
       11  2.41306E-05 2.65046E-05 0.00000E+00 0.00000E+00 0.00000E+00 0.00000E+00 0.00000E+00 0.00000E+00 0.00000E+00 2.26923E-03 2.27160E-03 0.00000E+00
       12  3.07727E-05 1.63404E-05 0.00000E+00 0.00000E+00 0.00000E+00 0.00000E+00 0.00000E+00 0.00000E+00 0.00000E+00 2.96407E-03 1.23134E-03 0.00000E+00
       13  1.50178E-05 1.53381E-05 0.00000E+00 0.00000E+00 0.00000E+00 0.00000E+00 0.00000E+00 0.00000E+00 0.00000E+00 1.32332E-03 1.36724E-03 0.00000E+00
       14  1.58311E-05 8.81188E-06 0.00000E+00 0.00000E+00 0.00000E+00 0.00000E+00 0.00000E+00 0.00000E+00 0.00000E+00 1.50413E-03 7.15789E-04 0.00000E+00
       15  7.47400E-06 1.30500E-05 0.00000E+00 0.00000E+00 0.00000E+00 0.00000E+00 0.00000E+00 0.00000E+00 0.00000E+00 6.76984E-04 1.52005E-03 0.00000E+00
       16  7.59950E-06 6.50867E-06 0.00000E+00 0.00000E+00 0.00000E+00 0.00000E+00 0.00000E+00 0.00000E+00 0.00000E+00 7.61237E-04 7.88846E-04 0.00000E+00
       17  2.04561E-05 1.96667E-05 0.00000E+00 0.00000E+00 0.00000E+00 0.00000E+00 0.00000E+00 0.00000E+00 0.00000E+00 1.75676E-03 1.78717E-03 0.00000E+00
       18  1.04886E-05 2.03888E-05 0.00000E+00 0.00000E+00 0.00000E+00 0.00000E+00 0.00000E+00 0.00000E+00 0.00000E+00 9.30619E-04 2.21149E-03 0.00000E+00
       19  2.34393E-05 1.11724E-05 0.00000E+00 0.00000E+00 0.00000E+00 0.00000E+00 0.00000E+00 0.00000E+00 0.00000E+00 2.18674E-03 9.62031E-04 0.00000E+00
      167  1.07663E-07 9.32316E-07-6.52946E-05 0.00000E+00 0.00000E+00 0.00000E+00 0.00000E+00 0.00000E+00 0.00000E+00 3.12481E-03 3.18163E-03 2.53347E-02
      168  1.44004E-07 6.16792E-07-6.52946E-05 0.00000E+00 0.00000E+00 0.00000E+00 0.00000E+00 0.00000E+00 0.00000E+00 2.35444E-03 2.43332E-03 2.53347E-02
      169 -8.50366E-08 1.12358E-06-6.52946E-05 0.00000E+00 0.00000E+00 0.00000E+00 0.00000E+00 0.00000E+00 0.00000E+00 2.67791E-03 1.27312E-03 2.53347E-02
      170 -1.42268E-07 1.16438E-06-6.52946E-05 0.00000E+00 0.00000E+00 0.00000E+00 0.00000E+00 0.00000E+00 0.00000E+00 3.89266E-03 1.71206E-03 2.53347E-02
      197  2.34731E-08 5.63483E-07-6.52946E-05 0.00000E+00 0.00000E+00 0.00000E+00 0.00000E+00 0.00000E+00 0.00000E+00 1.20462E-03 2.71216E-03 2.53347E-02
      198 -2.62329E-08 4.13882E-07-6.52946E-05 0.00000E+00 0.00000E+00 0.00000E+00 0.00000E+00 0.00000E+00 0.00000E+00 1.65557E-03 3.94321E-03 2.53347E-02
      225  1.76401E-06 0.00000E+00-6.52946E-05 0.00000E+00 0.00000E+00 0.00000E+00 0.00000E+00 0.00000E+00 0.00000E+00 2.85926E-03 0.00000E+00 2.53347E-02
      226  1.00541E-06 0.00000E+00-6.52946E-05 0.00000E+00 0.00000E+00 0.00000E+00 0.00000E+00 0.00000E+00 0.00000E+00 4.28731E-03 0.00000E+00 2.53347E-02
      279  2.05516E-06 0.00000E+00-6.52946E-05 0.00000E+00 0.00000E+00 0.00000E+00 0.00000E+00 0.00000E+00 0.00000E+00 1.43086E-03 0.00000E+00 2.53347E-02
      280 -2.68439E-08 9.46261E-07-6.52946E-05 0.00000E+00 0.00000E+00 0.00000E+00 0.00000E+00 0.00000E+00 0.00000E+00 1.35617E-03 1.40875E-03 2.53347E-02
      281  0.00000E+00 1.14340E-06-6.52946E-05 0.00000E+00 0.00000E+00 0.00000E+00 0.00000E+00 0.00000E+00 0.00000E+00 8.74900E-20 1.42994E-03 2.53347E-02
      282  0.00000E+00 0.00000E+00-6.52946E-05 0.00000E+00 0.00000E+00 0.00000E+00 0.00000E+00 0.00000E+00 0.00000E+00 0.00000E+00 0.00000E+00 2.53347E-02
      296  0.00000E+00 9.84515E-07-6.52946E-05 0.00000E+00 0.00000E+00 0.00000E+00 0.00000E+00 0.00000E+00 0.00000E+00 1.75000E-19 2.85848E-03 2.53347E-02
      323  2.20770E-07 8.92813E-07-6.52946E-05 0.00000E+00 0.00000E+00 0.00000E+00 0.00000E+00 0.00000E+00 0.00000E+00 4.04132E-03 4.04209E-03 2.53347E-02
      324  7.89799E-08 6.14103E-07-6.52946E-05 0.00000E+00 0.00000E+00 0.00000E+00 0.00000E+00 0.00000E+00 0.00000E+00 2.18678E-03 5.28071E-03 2.53347E-02
      338  2.08535E-07 1.09525E-06-6.52946E-05 0.00000E+00 0.00000E+00 0.00000E+00 0.00000E+00 0.00000E+00 0.00000E+00 5.28021E-03 2.18800E-03 2.53347E-02
      352  0.00000E+00 1.36431E-06-6.52946E-05 0.00000E+00 0.00000E+00 0.00000E+00 0.00000E+00 0.00000E+00 0.00000E+00 2.62500E-19 4.28766E-03 2.53347E-02
      366  4.29309E-07 0.00000E+00-6.52946E-05 0.00000E+00 0.00000E+00 0.00000E+00 0.00000E+00 0.00000E+00 0.00000E+00 5.71543E-03 0.00000E+00 2.53347E-02
      380  0.00000E+00 1.06620E-06-6.52946E-05 0.00000E+00 0.00000E+00 0.00000E+00 0.00000E+00 0.00000E+00 0.00000E+00 3.49900E-19 5.71607E-03 2.53347E-02
      608 -1.34974E-07 0.00000E+00-6.52946E-05 0.00000E+00 0.00000E+00 0.00000E+00 0.00000E+00 0.00000E+00 0.00000E+00 1.26999E-02 0.00000E+00 2.53347E-02
      609  1.22536E-07 0.00000E+00-6.52946E-05 0.00000E+00 0.00000E+00 0.00000E+00 0.00000E+00 0.00000E+00 0.00000E+00 1.09539E-02 0.00000E+00 2.53347E-02
      610  1.82055E-07 0.00000E+00-6.52946E-05 0.00000E+00 0.00000E+00 0.00000E+00 0.00000E+00 0.00000E+00 0.00000E+00 9.20768E-03 0.00000E+00 2.53347E-02
      611  2.26476E-07 0.00000E+00-6.52946E-05 0.00000E+00 0.00000E+00 0.00000E+00 0.00000E+00 0.00000E+00 0.00000E+00 7.46153E-03 0.00000E+00 2.53347E-02
      804  2.91898E-07 1.10569E-06-6.52946E-05 0.00000E+00 0.00000E+00 0.00000E+00 0.00000E+00 0.00000E+00 0.00000E+00 6.90229E-03 2.83511E-03 2.53347E-02
      806  4.49497E-07 1.04436E-06-6.52946E-05 0.00000E+00 0.00000E+00 0.00000E+00 0.00000E+00 0.00000E+00 0.00000E+00 5.27845E-03 5.27484E-03 2.53347E-02
      808  2.67772E-07 9.11177E-07-6.52946E-05 0.00000E+00 0.00000E+00 0.00000E+00 0.00000E+00 0.00000E+00 0.00000E+00 2.83797E-03 6.90141E-03 2.53347E-02
      810  0.00000E+00 1.29884E-06-6.52946E-05 0.00000E+00 0.00000E+00 0.00000E+00 0.00000E+00 0.00000E+00 0.00000E+00 4.56900E-19 7.46260E-03 2.53347E-02
      852  3.89182E-07 1.23921E-06-6.52946E-05 0.00000E+00 0.00000E+00 0.00000E+00 0.00000E+00 0.00000E+00 0.00000E+00 8.52439E-03 3.48234E-03 2.53347E-02
      854  6.04263E-07 1.12987E-06-6.52946E-05 0.00000E+00 0.00000E+00 0.00000E+00 0.00000E+00 0.00000E+00 0.00000E+00 6.51560E-03 6.50753E-03 2.53347E-02
      856  4.43955E-07 1.10929E-06-6.52946E-05 0.00000E+00 0.00000E+00 0.00000E+00 0.00000E+00 0.00000E+00 0.00000E+00 3.48914E-03 8.52211E-03 2.53347E-02
      858  0.00000E+00 1.65925E-06-6.52946E-05 0.00000E+00 0.00000E+00 0.00000E+00 0.00000E+00 0.00000E+00 0.00000E+00 5.63800E-19 9.20916E-03 2.53347E-02
      864  4.70245E-07 1.33185E-06-6.52946E-05 0.00000E+00 0.00000E+00 0.00000E+00 0.00000E+00 0.00000E+00 0.00000E+00 1.01466E-02 4.12943E-03 2.53347E-02
      866  8.16750E-07 1.23663E-06-6.52946E-05 0.00000E+00 0.00000E+00 0.00000E+00 0.00000E+00 0.00000E+00 0.00000E+00 7.75272E-03 7.74024E-03 2.53347E-02
      868  4.79295E-07 1.27906E-06-6.52946E-05 0.00000E+00 0.00000E+00 0.00000E+00 0.00000E+00 0.00000E+00 0.00000E+00 4.14018E-03 1.01427E-02 2.53347E-02
      870  0.00000E+00 2.14606E-06-6.52946E-05 0.00000E+00 0.00000E+00 0.00000E+00 0.00000E+00 0.00000E+00 0.00000E+00 6.70700E-19 1.09559E-02 2.53347E-02
      880  2.35961E-07 1.14742E-06-6.52946E-05 0.00000E+00 0.00000E+00 0.00000E+00 0.00000E+00 0.00000E+00 0.00000E+00 1.17683E-02 4.77635E-03 2.53347E-02
      882  6.92232E-07 1.22448E-06-6.52946E-05 0.00000E+00 0.00000E+00 0.00000E+00 0.00000E+00 0.00000E+00 0.00000E+00 8.98959E-03 8.97282E-03 2.53347E-02
      884  6.85641E-07 2.14251E-06-6.52946E-05 0.00000E+00 0.00000E+00 0.00000E+00 0.00000E+00 0.00000E+00 0.00000E+00 4.79139E-03 1.17639E-02 2.53347E-02
      886  0.00000E+00 2.94600E-06-6.52946E-05 0.00000E+00 0.00000E+00 0.00000E+00 0.00000E+00 0.00000E+00 0.00000E+00 7.77700E-19 1.27029E-02 2.53347E-02



 n o d a l   p r i n t   o u t   f o r   t i m e  s t e p     189                              ( at time 9.6842482E+00 )

 nodal point  x-disp     y-disp      z-disp      x-vel       y-vel       z-vel      x-accl      y-accl      z-accl      x-coor      y-coor      z-coor
        1  4.39317E-05 0.00000E+00 0.00000E+00 0.00000E+00 0.00000E+00 0.00000E+00 0.00000E+00 0.00000E+00 0.00000E+00 3.21893E-03 0.00000E+00-1.78000E-18
        2  2.79719E-05 0.00000E+00 0.00000E+00 0.00000E+00 0.00000E+00 0.00000E+00 0.00000E+00 0.00000E+00 0.00000E+00 2.40927E-03 0.00000E+00 0.00000E+00
        3  1.66651E-05 0.00000E+00 0.00000E+00 0.00000E+00 0.00000E+00 0.00000E+00 0.00000E+00 0.00000E+00 0.00000E+00 1.60417E-03 0.00000E+00 0.00000E+00
        4  8.24377E-06 0.00000E+00 0.00000E+00 0.00000E+00 0.00000E+00 0.00000E+00 0.00000E+00 0.00000E+00 0.00000E+00 8.01994E-04 0.00000E+00 0.00000E+00
        5  0.00000E+00 0.00000E+00 0.00000E+00 0.00000E+00 0.00000E+00 0.00000E+00 0.00000E+00 0.00000E+00 0.00000E+00 0.00000E+00 0.00000E+00 0.00000E+00
        6  0.00000E+00 9.11219E-06 0.00000E+00 0.00000E+00 0.00000E+00 0.00000E+00 0.00000E+00 0.00000E+00 0.00000E+00 4.86000E-20 8.02862E-04 0.00000E+00
        7  0.00000E+00 1.96290E-05 0.00000E+00 0.00000E+00 0.00000E+00 0.00000E+00 0.00000E+00 0.00000E+00 0.00000E+00 9.72100E-20 1.60713E-03 0.00000E+00
        8  0.00000E+00 3.31141E-05 0.00000E+00 0.00000E+00 0.00000E+00 0.00000E+00 0.00000E+00 0.00000E+00 0.00000E+00 1.45800E-19 2.41441E-03 0.00000E+00
        9  0.00000E+00 4.87407E-05 0.00000E+00 0.00000E+00 0.00000E+00 0.00000E+00 0.00000E+00 0.00000E+00 0.00000E+00 1.94400E-19 3.22374E-03 0.00000E+00
       10  2.10862E-05 4.85222E-05 0.00000E+00 0.00000E+00 0.00000E+00 0.00000E+00 0.00000E+00 0.00000E+00 0.00000E+00 1.23609E-03 2.98182E-03 0.00000E+00
       11  3.87361E-05 4.17588E-05 0.00000E+00 0.00000E+00 0.00000E+00 0.00000E+00 0.00000E+00 0.00000E+00 0.00000E+00 2.28384E-03 2.28686E-03 0.00000E+00
       12  4.97651E-05 2.55755E-05 0.00000E+00 0.00000E+00 0.00000E+00 0.00000E+00 0.00000E+00 0.00000E+00 0.00000E+00 2.98307E-03 1.24058E-03 0.00000E+00
       13  2.45578E-05 2.47676E-05 0.00000E+00 0.00000E+00 0.00000E+00 0.00000E+00 0.00000E+00 0.00000E+00 0.00000E+00 1.33286E-03 1.37667E-03 0.00000E+00
       14  2.61336E-05 1.42712E-05 0.00000E+00 0.00000E+00 0.00000E+00 0.00000E+00 0.00000E+00 0.00000E+00 0.00000E+00 1.51443E-03 7.21248E-04 0.00000E+00
       15  1.25790E-05 2.29114E-05 0.00000E+00 0.00000E+00 0.00000E+00 0.00000E+00 0.00000E+00 0.00000E+00 0.00000E+00 6.82089E-04 1.52991E-03 0.00000E+00
       16  1.28782E-05 1.17785E-05 0.00000E+00 0.00000E+00 0.00000E+00 0.00000E+00 0.00000E+00 0.00000E+00 0.00000E+00 7.66516E-04 7.94116E-04 0.00000E+00
       17  3.26829E-05 3.16986E-05 0.00000E+00 0.00000E+00 0.00000E+00 0.00000E+00 0.00000E+00 0.00000E+00 0.00000E+00 1.76898E-03 1.79920E-03 0.00000E+00
       18  1.72319E-05 3.45504E-05 0.00000E+00 0.00000E+00 0.00000E+00 0.00000E+00 0.00000E+00 0.00000E+00 0.00000E+00 9.37363E-04 2.22565E-03 0.00000E+00
       19  3.80082E-05 1.79632E-05 0.00000E+00 0.00000E+00 0.00000E+00 0.00000E+00 0.00000E+00 0.00000E+00 0.00000E+00 2.20131E-03 9.68822E-04 0.00000E+00
      167  1.88619E-07 1.19755E-06-9.68425E-05 0.00000E+00 0.00000E+00 0.00000E+00 0.00000E+00 0.00000E+00 0.00000E+00 3.12489E-03 3.18190E-03 2.53032E-02
      168  2.16139E-07 7.51107E-07-9.68425E-05 0.00000E+00 0.00000E+00 0.00000E+00 0.00000E+00 0.00000E+00 0.00000E+00 2.35452E-03 2.43345E-03 2.53032E-02
      169 -1.79865E-07 1.37368E-06-9.68425E-05 0.00000E+00 0.00000E+00 0.00000E+00 0.00000E+00 0.00000E+00 0.00000E+00 2.67782E-03 1.27337E-03 2.53032E-02
      170 -2.58003E-07 1.32246E-06-9.68425E-05 0.00000E+00 0.00000E+00 0.00000E+00 0.00000E+00 0.00000E+00 0.00000E+00 3.89254E-03 1.71222E-03 2.53032E-02
      197  8.68948E-08 8.56367E-07-9.68425E-05 0.00000E+00 0.00000E+00 0.00000E+00 0.00000E+00 0.00000E+00 0.00000E+00 1.20469E-03 2.71246E-03 2.53032E-02
      198  1.96771E-08 6.07214E-07-9.68425E-05 0.00000E+00 0.00000E+00 0.00000E+00 0.00000E+00 0.00000E+00 0.00000E+00 1.65562E-03 3.94341E-03 2.53032E-02
      225  2.54510E-06 0.00000E+00-9.68425E-05 0.00000E+00 0.00000E+00 0.00000E+00 0.00000E+00 0.00000E+00 0.00000E+00 2.86005E-03 0.00000E+00 2.53032E-02
      226  1.34834E-06 0.00000E+00-9.68425E-05 0.00000E+00 0.00000E+00 0.00000E+00 0.00000E+00 0.00000E+00 0.00000E+00 4.28765E-03 0.00000E+00 2.53032E-02
      279  2.88849E-06 0.00000E+00-9.68425E-05 0.00000E+00 0.00000E+00 0.00000E+00 0.00000E+00 0.00000E+00 0.00000E+00 1.43169E-03 0.00000E+00 2.53032E-02
      280  3.44931E-08 1.21867E-06-9.68425E-05 0.00000E+00 0.00000E+00 0.00000E+00 0.00000E+00 0.00000E+00 0.00000E+00 1.35623E-03 1.40902E-03 2.53032E-02
      281  0.00000E+00 1.71764E-06-9.68425E-05 0.00000E+00 0.00000E+00 0.00000E+00 0.00000E+00 0.00000E+00 0.00000E+00 8.74900E-20 1.43052E-03 2.53032E-02
      282  0.00000E+00 0.00000E+00-9.68425E-05 0.00000E+00 0.00000E+00 0.00000E+00 0.00000E+00 0.00000E+00 0.00000E+00 0.00000E+00 0.00000E+00 2.53032E-02
      296  0.00000E+00 1.36624E-06-9.68425E-05 0.00000E+00 0.00000E+00 0.00000E+00 0.00000E+00 0.00000E+00 0.00000E+00 1.75000E-19 2.85887E-03 2.53032E-02
      323  2.71441E-07 1.12709E-06-9.68425E-05 0.00000E+00 0.00000E+00 0.00000E+00 0.00000E+00 0.00000E+00 0.00000E+00 4.04137E-03 4.04233E-03 2.53032E-02
      324  1.00115E-07 7.84275E-07-9.68425E-05 0.00000E+00 0.00000E+00 0.00000E+00 0.00000E+00 0.00000E+00 0.00000E+00 2.18680E-03 5.28088E-03 2.53032E-02
      338  2.39010E-07 1.35401E-06-9.68425E-05 0.00000E+00 0.00000E+00 0.00000E+00 0.00000E+00 0.00000E+00 0.00000E+00 5.28024E-03 2.18825E-03 2.53032E-02
      352  0.00000E+00 1.70160E-06-9.68425E-05 0.00000E+00 0.00000E+00 0.00000E+00 0.00000E+00 0.00000E+00 0.00000E+00 2.62500E-19 4.28800E-03 2.53032E-02
      366  5.80428E-07 0.00000E+00-9.68425E-05 0.00000E+00 0.00000E+00 0.00000E+00 0.00000E+00 0.00000E+00 0.00000E+00 5.71558E-03 0.00000E+00 2.53032E-02
      380  0.00000E+00 1.40682E-06-9.68425E-05 0.00000E+00 0.00000E+00 0.00000E+00 0.00000E+00 0.00000E+00 0.00000E+00 3.49900E-19 5.71641E-03 2.53032E-02
      608 -1.46718E-07 0.00000E+00-9.68425E-05 0.00000E+00 0.00000E+00 0.00000E+00 0.00000E+00 0.00000E+00 0.00000E+00 1.26999E-02 0.00000E+00 2.53032E-02
      609  1.48460E-07 0.00000E+00-9.68425E-05 0.00000E+00 0.00000E+00 0.00000E+00 0.00000E+00 0.00000E+00 0.00000E+00 1.09539E-02 0.00000E+00 2.53032E-02
      610  2.17163E-07 0.00000E+00-9.68425E-05 0.00000E+00 0.00000E+00 0.00000E+00 0.00000E+00 0.00000E+00 0.00000E+00 9.20772E-03 0.00000E+00 2.53032E-02
      611  2.90925E-07 0.00000E+00-9.68425E-05 0.00000E+00 0.00000E+00 0.00000E+00 0.00000E+00 0.00000E+00 0.00000E+00 7.46159E-03 0.00000E+00 2.53032E-02
      804  3.46906E-07 1.34834E-06-9.68425E-05 0.00000E+00 0.00000E+00 0.00000E+00 0.00000E+00 0.00000E+00 0.00000E+00 6.90235E-03 2.83535E-03 2.53032E-02
      806  5.38501E-07 1.27048E-06-9.68425E-05 0.00000E+00 0.00000E+00 0.00000E+00 0.00000E+00 0.00000E+00 0.00000E+00 5.27854E-03 5.27507E-03 2.53032E-02
      808  3.20876E-07 1.06749E-06-9.68425E-05 0.00000E+00 0.00000E+00 0.00000E+00 0.00000E+00 0.00000E+00 0.00000E+00 2.83802E-03 6.90157E-03 2.53032E-02
      810  0.00000E+00 1.73461E-06-9.68425E-05 0.00000E+00 0.00000E+00 0.00000E+00 0.00000E+00 0.00000E+00 0.00000E+00 4.56900E-19 7.46303E-03 2.53032E-02
      852  4.54875E-07 1.47954E-06-9.68425E-05 0.00000E+00 0.00000E+00 0.00000E+00 0.00000E+00 0.00000E+00 0.00000E+00 8.52445E-03 3.48258E-03 2.53032E-02
      854  7.21052E-07 1.34896E-06-9.68425E-05 0.00000E+00 0.00000E+00 0.00000E+00 0.00000E+00 0.00000E+00 0.00000E+00 6.51572E-03 6.50775E-03 2.53032E-02
      856  4.90597E-07 1.29629E-06-9.68425E-05 0.00000E+00 0.00000E+00 0.00000E+00 0.00000E+00 0.00000E+00 0.00000E+00 3.48919E-03 8.52230E-03 2.53032E-02
      858  0.00000E+00 2.09728E-06-9.68425E-05 0.00000E+00 0.00000E+00 0.00000E+00 0.00000E+00 0.00000E+00 0.00000E+00 5.63800E-19 9.20960E-03 2.53032E-02
      864  5.57923E-07 1.57157E-06-9.68425E-05 0.00000E+00 0.00000E+00 0.00000E+00 0.00000E+00 0.00000E+00 0.00000E+00 1.01467E-02 4.12967E-03 2.53032E-02
      866  9.78085E-07 1.42130E-06-9.68425E-05 0.00000E+00 0.00000E+00 0.00000E+00 0.00000E+00 0.00000E+00 0.00000E+00 7.75288E-03 7.74042E-03 2.53032E-02
      868  5.37158E-07 1.50701E-06-9.68425E-05 0.00000E+00 0.00000E+00 0.00000E+00 0.00000E+00 0.00000E+00 0.00000E+00 4.14024E-03 1.01429E-02 2.53032E-02
      870  0.00000E+00 2.49883E-06-9.68425E-05 0.00000E+00 0.00000E+00 0.00000E+00 0.00000E+00 0.00000E+00 0.00000E+00 6.70700E-19 1.09563E-02 2.53032E-02
      880  3.16590E-07 1.35374E-06-9.68425E-05 0.00000E+00 0.00000E+00 0.00000E+00 0.00000E+00 0.00000E+00 0.00000E+00 1.17684E-02 4.77655E-03 2.53032E-02
      882  8.11074E-07 1.41016E-06-9.68425E-05 0.00000E+00 0.00000E+00 0.00000E+00 0.00000E+00 0.00000E+00 0.00000E+00 8.98971E-03 8.97301E-03 2.53032E-02
      884  8.12518E-07 2.35231E-06-9.68425E-05 0.00000E+00 0.00000E+00 0.00000E+00 0.00000E+00 0.00000E+00 0.00000E+00 4.79151E-03 1.17642E-02 2.53032E-02
      886  0.00000E+00 3.19713E-06-9.68425E-05 0.00000E+00 0.00000E+00 0.00000E+00 0.00000E+00 0.00000E+00 0.00000E+00 7.77700E-19 1.27032E-02 2.53032E-02



 n o d a l   p r i n t   o u t   f o r   t i m e  s t e p     197                              ( at time 1.2839035E+01 )

 nodal point  x-disp     y-disp      z-disp      x-vel       y-vel       z-vel      x-accl      y-accl      z-accl      x-coor      y-coor      z-coor
        1  6.34506E-05 0.00000E+00 0.00000E+00 0.00000E+00 0.00000E+00 0.00000E+00 0.00000E+00 0.00000E+00 0.00000E+00 3.23845E-03 0.00000E+00-1.78000E-18
        2  4.13377E-05 0.00000E+00 0.00000E+00 0.00000E+00 0.00000E+00 0.00000E+00 0.00000E+00 0.00000E+00 0.00000E+00 2.42264E-03 0.00000E+00 0.00000E+00
        3  2.49267E-05 0.00000E+00 0.00000E+00 0.00000E+00 0.00000E+00 0.00000E+00 0.00000E+00 0.00000E+00 0.00000E+00 1.61243E-03 0.00000E+00 0.00000E+00
        4  1.21502E-05 0.00000E+00 0.00000E+00 0.00000E+00 0.00000E+00 0.00000E+00 0.00000E+00 0.00000E+00 0.00000E+00 8.05900E-04 0.00000E+00 0.00000E+00
        5  0.00000E+00 0.00000E+00 0.00000E+00 0.00000E+00 0.00000E+00 0.00000E+00 0.00000E+00 0.00000E+00 0.00000E+00 0.00000E+00 0.00000E+00 0.00000E+00
        6  0.00000E+00 1.36444E-05 0.00000E+00 0.00000E+00 0.00000E+00 0.00000E+00 0.00000E+00 0.00000E+00 0.00000E+00 4.86000E-20 8.07394E-04 0.00000E+00
        7  0.00000E+00 2.88236E-05 0.00000E+00 0.00000E+00 0.00000E+00 0.00000E+00 0.00000E+00 0.00000E+00 0.00000E+00 9.72100E-20 1.61632E-03 0.00000E+00
        8  0.00000E+00 4.73367E-05 0.00000E+00 0.00000E+00 0.00000E+00 0.00000E+00 0.00000E+00 0.00000E+00 0.00000E+00 1.45800E-19 2.42864E-03 0.00000E+00
        9  0.00000E+00 6.86090E-05 0.00000E+00 0.00000E+00 0.00000E+00 0.00000E+00 0.00000E+00 0.00000E+00 0.00000E+00 1.94400E-19 3.24361E-03 0.00000E+00
       10  2.91147E-05 6.78663E-05 0.00000E+00 0.00000E+00 0.00000E+00 0.00000E+00 0.00000E+00 0.00000E+00 0.00000E+00 1.24411E-03 3.00117E-03 0.00000E+00
       11  5.31356E-05 5.67249E-05 0.00000E+00 0.00000E+00 0.00000E+00 0.00000E+00 0.00000E+00 0.00000E+00 0.00000E+00 2.29824E-03 2.30182E-03 0.00000E+00
       12  6.82322E-05 3.45330E-05 0.00000E+00 0.00000E+00 0.00000E+00 0.00000E+00 0.00000E+00 0.00000E+00 0.00000E+00 3.00153E-03 1.24953E-03 0.00000E+00
       13  3.39758E-05 3.39972E-05 0.00000E+00 0.00000E+00 0.00000E+00 0.00000E+00 0.00000E+00 0.00000E+00 0.00000E+00 1.34228E-03 1.38590E-03 0.00000E+00
       14  3.60924E-05 1.93680E-05 0.00000E+00 0.00000E+00 0.00000E+00 0.00000E+00 0.00000E+00 0.00000E+00 0.00000E+00 1.52439E-03 7.26345E-04 0.00000E+00
       15  1.76153E-05 3.28565E-05 0.00000E+00 0.00000E+00 0.00000E+00 0.00000E+00 0.00000E+00 0.00000E+00 0.00000E+00 6.87126E-04 1.53986E-03 0.00000E+00
       16  1.79909E-05 1.70729E-05 0.00000E+00 0.00000E+00 0.00000E+00 0.00000E+00 0.00000E+00 0.00000E+00 0.00000E+00 7.71629E-04 7.99410E-04 0.00000E+00
       17  4.47612E-05 4.37129E-05 0.00000E+00 0.00000E+00 0.00000E+00 0.00000E+00 0.00000E+00 0.00000E+00 0.00000E+00 1.78106E-03 1.81121E-03 0.00000E+00
       18  2.39634E-05 4.88133E-05 0.00000E+00 0.00000E+00 0.00000E+00 0.00000E+00 0.00000E+00 0.00000E+00 0.00000E+00 9.44094E-04 2.23991E-03 0.00000E+00
       19  5.22560E-05 2.49380E-05 0.00000E+00 0.00000E+00 0.00000E+00 0.00000E+00 0.00000E+00 0.00000E+00 0.00000E+00 2.21556E-03 9.75797E-04 0.00000E+00
      167  2.33763E-07 1.28672E-06-1.28390E-04 0.00000E+00 0.00000E+00 0.00000E+00 0.00000E+00 0.00000E+00 0.00000E+00 3.12493E-03 3.18199E-03 2.52716E-02
      168  2.80514E-07 7.52804E-07-1.28390E-04 0.00000E+00 0.00000E+00 0.00000E+00 0.00000E+00 0.00000E+00 0.00000E+00 2.35458E-03 2.43345E-03 2.52716E-02
      169 -2.63655E-07 1.63751E-06-1.28390E-04 0.00000E+00 0.00000E+00 0.00000E+00 0.00000E+00 0.00000E+00 0.00000E+00 2.67774E-03 1.27364E-03 2.52716E-02
      170 -1.66763E-07 1.44490E-06-1.28390E-04 0.00000E+00 0.00000E+00 0.00000E+00 0.00000E+00 0.00000E+00 0.00000E+00 3.89263E-03 1.71234E-03 2.52716E-02
      197  1.51989E-07 1.03608E-06-1.28390E-04 0.00000E+00 0.00000E+00 0.00000E+00 0.00000E+00 0.00000E+00 0.00000E+00 1.20475E-03 2.71264E-03 2.52716E-02
      198  6.29186E-08 7.38029E-07-1.28390E-04 0.00000E+00 0.00000E+00 0.00000E+00 0.00000E+00 0.00000E+00 0.00000E+00 1.65566E-03 3.94354E-03 2.52716E-02
      225  3.33236E-06 0.00000E+00-1.28390E-04 0.00000E+00 0.00000E+00 0.00000E+00 0.00000E+00 0.00000E+00 0.00000E+00 2.86083E-03 0.00000E+00 2.52716E-02
      226  1.63321E-06 0.00000E+00-1.28390E-04 0.00000E+00 0.00000E+00 0.00000E+00 0.00000E+00 0.00000E+00 0.00000E+00 4.28793E-03 0.00000E+00 2.52716E-02
      279  3.37761E-06 0.00000E+00-1.28390E-04 0.00000E+00 0.00000E+00 0.00000E+00 0.00000E+00 0.00000E+00 0.00000E+00 1.43218E-03 0.00000E+00 2.52716E-02
      280 -3.67180E-08 1.24044E-06-1.28390E-04 0.00000E+00 0.00000E+00 0.00000E+00 0.00000E+00 0.00000E+00 0.00000E+00 1.35616E-03 1.40904E-03 2.52716E-02
      281  0.00000E+00 1.96997E-06-1.28390E-04 0.00000E+00 0.00000E+00 0.00000E+00 0.00000E+00 0.00000E+00 0.00000E+00 8.74900E-20 1.43077E-03 2.52716E-02
      282  0.00000E+00 0.00000E+00-1.28390E-04 0.00000E+00 0.00000E+00 0.00000E+00 0.00000E+00 0.00000E+00 0.00000E+00 0.00000E+00 0.00000E+00 2.52716E-02
      296  0.00000E+00 1.68853E-06-1.28390E-04 0.00000E+00 0.00000E+00 0.00000E+00 0.00000E+00 0.00000E+00 0.00000E+00 1.75000E-19 2.85919E-03 2.52716E-02
      323  3.12045E-07 1.24100E-06-1.28390E-04 0.00000E+00 0.00000E+00 0.00000E+00 0.00000E+00 0.00000E+00 0.00000E+00 4.04141E-03 4.04244E-03 2.52716E-02
      324  1.22720E-07 8.84330E-07-1.28390E-04 0.00000E+00 0.00000E+00 0.00000E+00 0.00000E+00 0.00000E+00 0.00000E+00 2.18682E-03 5.28098E-03 2.52716E-02
      338  3.20255E-07 1.47575E-06-1.28390E-04 0.00000E+00 0.00000E+00 0.00000E+00 0.00000E+00 0.00000E+00 0.00000E+00 5.28032E-03 2.18838E-03 2.52716E-02
      352  0.00000E+00 1.94906E-06-1.28390E-04 0.00000E+00 0.00000E+00 0.00000E+00 0.00000E+00 0.00000E+00 0.00000E+00 2.62500E-19 4.28825E-03 2.52716E-02
      366  6.67998E-07 0.00000E+00-1.28390E-04 0.00000E+00 0.00000E+00 0.00000E+00 0.00000E+00 0.00000E+00 0.00000E+00 5.71567E-03 0.00000E+00 2.52716E-02
      380  0.00000E+00 1.63106E-06-1.28390E-04 0.00000E+00 0.00000E+00 0.00000E+00 0.00000E+00 0.00000E+00 0.00000E+00 3.49900E-19 5.71663E-03 2.52716E-02
      608 -1.77278E-07 0.00000E+00-1.28390E-04 0.00000E+00 0.00000E+00 0.00000E+00 0.00000E+00 0.00000E+00 0.00000E+00 1.26998E-02 0.00000E+00 2.52716E-02
      609  1.53077E-07 0.00000E+00-1.28390E-04 0.00000E+00 0.00000E+00 0.00000E+00 0.00000E+00 0.00000E+00 0.00000E+00 1.09540E-02 0.00000E+00 2.52716E-02
      610  2.31575E-07 0.00000E+00-1.28390E-04 0.00000E+00 0.00000E+00 0.00000E+00 0.00000E+00 0.00000E+00 0.00000E+00 9.20773E-03 0.00000E+00 2.52716E-02
      611  3.18813E-07 0.00000E+00-1.28390E-04 0.00000E+00 0.00000E+00 0.00000E+00 0.00000E+00 0.00000E+00 0.00000E+00 7.46162E-03 0.00000E+00 2.52716E-02
      804  4.01740E-07 1.45107E-06-1.28390E-04 0.00000E+00 0.00000E+00 0.00000E+00 0.00000E+00 0.00000E+00 0.00000E+00 6.90240E-03 2.83545E-03 2.52716E-02
      806  5.95591E-07 1.37826E-06-1.28390E-04 0.00000E+00 0.00000E+00 0.00000E+00 0.00000E+00 0.00000E+00 0.00000E+00 5.27860E-03 5.27518E-03 2.52716E-02
      808  3.52852E-07 1.16377E-06-1.28390E-04 0.00000E+00 0.00000E+00 0.00000E+00 0.00000E+00 0.00000E+00 0.00000E+00 2.83805E-03 6.90166E-03 2.52716E-02
      810  0.00000E+00 2.00252E-06-1.28390E-04 0.00000E+00 0.00000E+00 0.00000E+00 0.00000E+00 0.00000E+00 0.00000E+00 4.56900E-19 7.46330E-03 2.52716E-02
      852  5.04262E-07 1.58408E-06-1.28390E-04 0.00000E+00 0.00000E+00 0.00000E+00 0.00000E+00 0.00000E+00 0.00000E+00 8.52450E-03 3.48268E-03 2.52716E-02
      854  7.87546E-07 1.45686E-06-1.28390E-04 0.00000E+00 0.00000E+00 0.00000E+00 0.00000E+00 0.00000E+00 0.00000E+00 6.51579E-03 6.50786E-03 2.52716E-02
      856  5.23559E-07 1.41110E-06-1.28390E-04 0.00000E+00 0.00000E+00 0.00000E+00 0.00000E+00 0.00000E+00 0.00000E+00 3.48922E-03 8.52241E-03 2.52716E-02
      858  0.00000E+00 2.33970E-06-1.28390E-04 0.00000E+00 0.00000E+00 0.00000E+00 0.00000E+00 0.00000E+00 0.00000E+00 5.63800E-19 9.20984E-03 2.52716E-02
      864  6.13229E-07 1.67548E-06-1.28390E-04 0.00000E+00 0.00000E+00 0.00000E+00 0.00000E+00 0.00000E+00 0.00000E+00 1.01467E-02 4.12978E-03 2.52716E-02
      866  1.06622E-06 1.51802E-06-1.28390E-04 0.00000E+00 0.00000E+00 0.00000E+00 0.00000E+00 0.00000E+00 0.00000E+00 7.75297E-03 7.74052E-03 2.52716E-02
      868  5.73752E-07 1.66107E-06-1.28390E-04 0.00000E+00 0.00000E+00 0.00000E+00 0.00000E+00 0.00000E+00 0.00000E+00 4.14027E-03 1.01431E-02 2.52716E-02
      870  0.00000E+00 2.69945E-06-1.28390E-04 0.00000E+00 0.00000E+00 0.00000E+00 0.00000E+00 0.00000E+00 0.00000E+00 6.70700E-19 1.09565E-02 2.52716E-02
      880  3.55510E-07 1.42978E-06-1.28390E-04 0.00000E+00 0.00000E+00 0.00000E+00 0.00000E+00 0.00000E+00 0.00000E+00 1.17685E-02 4.77663E-03 2.52716E-02
      882  8.70858E-07 1.54832E-06-1.28390E-04 0.00000E+00 0.00000E+00 0.00000E+00 0.00000E+00 0.00000E+00 0.00000E+00 8.98977E-03 8.97315E-03 2.52716E-02
      884  9.03858E-07 2.48970E-06-1.28390E-04 0.00000E+00 0.00000E+00 0.00000E+00 0.00000E+00 0.00000E+00 0.00000E+00 4.79160E-03 1.17643E-02 2.52716E-02
      886  0.00000E+00 3.34306E-06-1.28390E-04 0.00000E+00 0.00000E+00 0.00000E+00 0.00000E+00 0.00000E+00 0.00000E+00 7.77700E-19 1.27033E-02 2.52716E-02



 n o d a l   p r i n t   o u t   f o r   t i m e  s t e p     205                              ( at time 1.5993822E+01 )

 nodal point  x-disp     y-disp      z-disp      x-vel       y-vel       z-vel      x-accl      y-accl      z-accl      x-coor      y-coor      z-coor
        1  8.76571E-05 0.00000E+00 0.00000E+00 0.00000E+00 0.00000E+00 0.00000E+00 0.00000E+00 0.00000E+00 0.00000E+00 3.26266E-03 0.00000E+00-1.78000E-18
        2  5.65614E-05 0.00000E+00 0.00000E+00 0.00000E+00 0.00000E+00 0.00000E+00 0.00000E+00 0.00000E+00 0.00000E+00 2.43786E-03 0.00000E+00 0.00000E+00
        3  3.47688E-05 0.00000E+00 0.00000E+00 0.00000E+00 0.00000E+00 0.00000E+00 0.00000E+00 0.00000E+00 0.00000E+00 1.62227E-03 0.00000E+00 0.00000E+00
        4  1.68836E-05 0.00000E+00 0.00000E+00 0.00000E+00 0.00000E+00 0.00000E+00 0.00000E+00 0.00000E+00 0.00000E+00 8.10634E-04 0.00000E+00 0.00000E+00
        5  0.00000E+00 0.00000E+00 0.00000E+00 0.00000E+00 0.00000E+00 0.00000E+00 0.00000E+00 0.00000E+00 0.00000E+00 0.00000E+00 0.00000E+00 0.00000E+00
        6  0.00000E+00 1.89439E-05 0.00000E+00 0.00000E+00 0.00000E+00 0.00000E+00 0.00000E+00 0.00000E+00 0.00000E+00 4.86000E-20 8.12694E-04 0.00000E+00
        7  0.00000E+00 3.93637E-05 0.00000E+00 0.00000E+00 0.00000E+00 0.00000E+00 0.00000E+00 0.00000E+00 0.00000E+00 9.72100E-20 1.62686E-03 0.00000E+00
        8  0.00000E+00 6.31974E-05 0.00000E+00 0.00000E+00 0.00000E+00 0.00000E+00 0.00000E+00 0.00000E+00 0.00000E+00 1.45800E-19 2.44450E-03 0.00000E+00
        9  0.00000E+00 8.99691E-05 0.00000E+00 0.00000E+00 0.00000E+00 0.00000E+00 0.00000E+00 0.00000E+00 0.00000E+00 1.94400E-19 3.26497E-03 0.00000E+00
       10  3.75969E-05 8.88151E-05 0.00000E+00 0.00000E+00 0.00000E+00 0.00000E+00 0.00000E+00 0.00000E+00 0.00000E+00 1.25260E-03 3.02212E-03 0.00000E+00
       11  6.86287E-05 7.41819E-05 0.00000E+00 0.00000E+00 0.00000E+00 0.00000E+00 0.00000E+00 0.00000E+00 0.00000E+00 2.31373E-03 2.31928E-03 0.00000E+00
       12  8.95335E-05 4.59380E-05 0.00000E+00 0.00000E+00 0.00000E+00 0.00000E+00 0.00000E+00 0.00000E+00 0.00000E+00 3.02283E-03 1.26094E-03 0.00000E+00
       13  4.41739E-05 4.53659E-05 0.00000E+00 0.00000E+00 0.00000E+00 0.00000E+00 0.00000E+00 0.00000E+00 0.00000E+00 1.35247E-03 1.39727E-03 0.00000E+00
       14  4.69966E-05 2.45265E-05 0.00000E+00 0.00000E+00 0.00000E+00 0.00000E+00 0.00000E+00 0.00000E+00 0.00000E+00 1.53530E-03 7.31503E-04 0.00000E+00
       15  2.27213E-05 4.42002E-05 0.00000E+00 0.00000E+00 0.00000E+00 0.00000E+00 0.00000E+00 0.00000E+00 0.00000E+00 6.92232E-04 1.55120E-03 0.00000E+00
       16  2.30915E-05 2.26669E-05 0.00000E+00 0.00000E+00 0.00000E+00 0.00000E+00 0.00000E+00 0.00000E+00 0.00000E+00 7.76729E-04 8.05004E-04 0.00000E+00
       17  5.81204E-05 5.78602E-05 0.00000E+00 0.00000E+00 0.00000E+00 0.00000E+00 0.00000E+00 0.00000E+00 0.00000E+00 1.79442E-03 1.82536E-03 0.00000E+00
       18  3.11514E-05 6.49974E-05 0.00000E+00 0.00000E+00 0.00000E+00 0.00000E+00 0.00000E+00 0.00000E+00 0.00000E+00 9.51282E-04 2.25610E-03 0.00000E+00
       19  6.81500E-05 3.31666E-05 0.00000E+00 0.00000E+00 0.00000E+00 0.00000E+00 0.00000E+00 0.00000E+00 0.00000E+00 2.23145E-03 9.84025E-04 0.00000E+00
      167  2.65115E-07 1.27514E-06-1.59938E-04 0.00000E+00 0.00000E+00 0.00000E+00 0.00000E+00 0.00000E+00 0.00000E+00 3.12497E-03 3.18198E-03 2.52401E-02
      168  3.38931E-07 6.80790E-07-1.59938E-04 0.00000E+00 0.00000E+00 0.00000E+00 0.00000E+00 0.00000E+00 0.00000E+00 2.35464E-03 2.43338E-03 2.52401E-02
      169 -2.65501E-07 1.54091E-06-1.59938E-04 0.00000E+00 0.00000E+00 0.00000E+00 0.00000E+00 0.00000E+00 0.00000E+00 2.67773E-03 1.27354E-03 2.52401E-02
      170 -2.03214E-07 1.45151E-06-1.59938E-04 0.00000E+00 0.00000E+00 0.00000E+00 0.00000E+00 0.00000E+00 0.00000E+00 3.89260E-03 1.71235E-03 2.52401E-02
      197  2.07161E-07 1.16121E-06-1.59938E-04 0.00000E+00 0.00000E+00 0.00000E+00 0.00000E+00 0.00000E+00 0.00000E+00 1.20481E-03 2.71276E-03 2.52401E-02
      198  9.96951E-08 8.24725E-07-1.59938E-04 0.00000E+00 0.00000E+00 0.00000E+00 0.00000E+00 0.00000E+00 0.00000E+00 1.65570E-03 3.94362E-03 2.52401E-02
      225  3.57601E-06 0.00000E+00-1.59938E-04 0.00000E+00 0.00000E+00 0.00000E+00 0.00000E+00 0.00000E+00 0.00000E+00 2.86108E-03 0.00000E+00 2.52401E-02
      226  1.77011E-06 0.00000E+00-1.59938E-04 0.00000E+00 0.00000E+00 0.00000E+00 0.00000E+00 0.00000E+00 0.00000E+00 4.28807E-03 0.00000E+00 2.52401E-02
      279  3.53282E-06 0.00000E+00-1.59938E-04 0.00000E+00 0.00000E+00 0.00000E+00 0.00000E+00 0.00000E+00 0.00000E+00 1.43233E-03 0.00000E+00 2.52401E-02
      280  4.74734E-08 1.22063E-06-1.59938E-04 0.00000E+00 0.00000E+00 0.00000E+00 0.00000E+00 0.00000E+00 0.00000E+00 1.35625E-03 1.40902E-03 2.52401E-02
      281  0.00000E+00 2.18492E-06-1.59938E-04 0.00000E+00 0.00000E+00 0.00000E+00 0.00000E+00 0.00000E+00 0.00000E+00 8.74900E-20 1.43098E-03 2.52401E-02
      282  0.00000E+00 0.00000E+00-1.59938E-04 0.00000E+00 0.00000E+00 0.00000E+00 0.00000E+00 0.00000E+00 0.00000E+00 0.00000E+00 0.00000E+00 2.52401E-02
      296  0.00000E+00 1.97393E-06-1.59938E-04 0.00000E+00 0.00000E+00 0.00000E+00 0.00000E+00 0.00000E+00 0.00000E+00 1.75000E-19 2.85947E-03 2.52401E-02
      323  3.39720E-07 1.29341E-06-1.59938E-04 0.00000E+00 0.00000E+00 0.00000E+00 0.00000E+00 0.00000E+00 0.00000E+00 4.04144E-03 4.04249E-03 2.52401E-02
      324  1.52288E-07 9.48237E-07-1.59938E-04 0.00000E+00 0.00000E+00 0.00000E+00 0.00000E+00 0.00000E+00 0.00000E+00 2.18685E-03 5.28105E-03 2.52401E-02
      338  3.49286E-07 1.52907E-06-1.59938E-04 0.00000E+00 0.00000E+00 0.00000E+00 0.00000E+00 0.00000E+00 0.00000E+00 5.28035E-03 2.18843E-03 2.52401E-02
      352  0.00000E+00 2.17211E-06-1.59938E-04 0.00000E+00 0.00000E+00 0.00000E+00 0.00000E+00 0.00000E+00 0.00000E+00 2.62500E-19 4.28847E-03 2.52401E-02
      366  6.87371E-07 0.00000E+00-1.59938E-04 0.00000E+00 0.00000E+00 0.00000E+00 0.00000E+00 0.00000E+00 0.00000E+00 5.71569E-03 0.00000E+00 2.52401E-02
      380  0.00000E+00 1.86875E-06-1.59938E-04 0.00000E+00 0.00000E+00 0.00000E+00 0.00000E+00 0.00000E+00 0.00000E+00 3.49900E-19 5.71687E-03 2.52401E-02
      608 -2.20761E-07 0.00000E+00-1.59938E-04 0.00000E+00 0.00000E+00 0.00000E+00 0.00000E+00 0.00000E+00 0.00000E+00 1.26998E-02 0.00000E+00 2.52401E-02
      609  1.34667E-07 0.00000E+00-1.59938E-04 0.00000E+00 0.00000E+00 0.00000E+00 0.00000E+00 0.00000E+00 0.00000E+00 1.09539E-02 0.00000E+00 2.52401E-02
      610  2.24010E-07 0.00000E+00-1.59938E-04 0.00000E+00 0.00000E+00 0.00000E+00 0.00000E+00 0.00000E+00 0.00000E+00 9.20772E-03 0.00000E+00 2.52401E-02
      611  3.14970E-07 0.00000E+00-1.59938E-04 0.00000E+00 0.00000E+00 0.00000E+00 0.00000E+00 0.00000E+00 0.00000E+00 7.46161E-03 0.00000E+00 2.52401E-02
      804  4.30287E-07 1.51481E-06-1.59938E-04 0.00000E+00 0.00000E+00 0.00000E+00 0.00000E+00 0.00000E+00 0.00000E+00 6.90243E-03 2.83551E-03 2.52401E-02
      806  6.25817E-07 1.43988E-06-1.59938E-04 0.00000E+00 0.00000E+00 0.00000E+00 0.00000E+00 0.00000E+00 0.00000E+00 5.27863E-03 5.27524E-03 2.52401E-02
      808  3.69184E-07 1.23552E-06-1.59938E-04 0.00000E+00 0.00000E+00 0.00000E+00 0.00000E+00 0.00000E+00 0.00000E+00 2.83807E-03 6.90174E-03 2.52401E-02
      810  0.00000E+00 2.19094E-06-1.59938E-04 0.00000E+00 0.00000E+00 0.00000E+00 0.00000E+00 0.00000E+00 0.00000E+00 4.56900E-19 7.46349E-03 2.52401E-02
      852  5.29657E-07 1.64317E-06-1.59938E-04 0.00000E+00 0.00000E+00 0.00000E+00 0.00000E+00 0.00000E+00 0.00000E+00 8.52453E-03 3.48274E-03 2.52401E-02
      854  8.26862E-07 1.51276E-06-1.59938E-04 0.00000E+00 0.00000E+00 0.00000E+00 0.00000E+00 0.00000E+00 0.00000E+00 6.51583E-03 6.50791E-03 2.52401E-02
      856  5.42078E-07 1.48922E-06-1.59938E-04 0.00000E+00 0.00000E+00 0.00000E+00 0.00000E+00 0.00000E+00 0.00000E+00 3.48924E-03 8.52249E-03 2.52401E-02
      858  0.00000E+00 2.50770E-06-1.59938E-04 0.00000E+00 0.00000E+00 0.00000E+00 0.00000E+00 0.00000E+00 0.00000E+00 5.63800E-19 9.21001E-03 2.52401E-02
      864  6.38742E-07 1.73263E-06-1.59938E-04 0.00000E+00 0.00000E+00 0.00000E+00 0.00000E+00 0.00000E+00 0.00000E+00 1.01467E-02 4.12983E-03 2.52401E-02
      866  1.11287E-06 1.55921E-06-1.59938E-04 0.00000E+00 0.00000E+00 0.00000E+00 0.00000E+00 0.00000E+00 0.00000E+00 7.75301E-03 7.74056E-03 2.52401E-02
      868  5.87844E-07 1.72065E-06-1.59938E-04 0.00000E+00 0.00000E+00 0.00000E+00 0.00000E+00 0.00000E+00 0.00000E+00 4.14029E-03 1.01431E-02 2.52401E-02
      870  0.00000E+00 2.87397E-06-1.59938E-04 0.00000E+00 0.00000E+00 0.00000E+00 0.00000E+00 0.00000E+00 0.00000E+00 6.70700E-19 1.09567E-02 2.52401E-02
      880  3.67196E-07 1.45656E-06-1.59938E-04 0.00000E+00 0.00000E+00 0.00000E+00 0.00000E+00 0.00000E+00 0.00000E+00 1.17685E-02 4.77666E-03 2.52401E-02
      882  8.87694E-07 1.62081E-06-1.59938E-04 0.00000E+00 0.00000E+00 0.00000E+00 0.00000E+00 0.00000E+00 0.00000E+00 8.98979E-03 8.97322E-03 2.52401E-02
      884  9.54289E-07 2.53150E-06-1.59938E-04 0.00000E+00 0.00000E+00 0.00000E+00 0.00000E+00 0.00000E+00 0.00000E+00 4.79165E-03 1.17643E-02 2.52401E-02
      886  0.00000E+00 3.47042E-06-1.59938E-04 0.00000E+00 0.00000E+00 0.00000E+00 0.00000E+00 0.00000E+00 0.00000E+00 7.77700E-19 1.27035E-02 2.52401E-02



 n o d a l   p r i n t   o u t   f o r   t i m e  s t e p     215                              ( at time 1.9148608E+01 )

[...]
      858  0.00000E+00 2.00381E-06-9.40896E-04 0.00000E+00 0.00000E+00 0.00000E+00 0.00000E+00 0.00000E+00 0.00000E+00 5.63800E-19 9.20950E-03 2.44591E-02
      864  4.96113E-07 1.14759E-06-9.40896E-04 0.00000E+00 0.00000E+00 0.00000E+00 0.00000E+00 0.00000E+00 0.00000E+00 1.01466E-02 4.12925E-03 2.44591E-02
      866  8.58741E-07 9.19738E-07-9.40896E-04 0.00000E+00 0.00000E+00 0.00000E+00 0.00000E+00 0.00000E+00 0.00000E+00 7.75276E-03 7.73992E-03 2.44591E-02
      868  4.09124E-07 1.08973E-06-9.40896E-04 0.00000E+00 0.00000E+00 0.00000E+00 0.00000E+00 0.00000E+00 0.00000E+00 4.14011E-03 1.01425E-02 2.44591E-02
      870  0.00000E+00 2.21890E-06-9.40896E-04 0.00000E+00 0.00000E+00 0.00000E+00 0.00000E+00 0.00000E+00 0.00000E+00 6.70700E-19 1.09560E-02 2.44591E-02
      880  3.31839E-07 9.32648E-07-9.40896E-04 0.00000E+00 0.00000E+00 0.00000E+00 0.00000E+00 0.00000E+00 0.00000E+00 1.17684E-02 4.77613E-03 2.44591E-02
      882  6.77292E-07 9.80130E-07-9.40896E-04 0.00000E+00 0.00000E+00 0.00000E+00 0.00000E+00 0.00000E+00 0.00000E+00 8.98958E-03 8.97258E-03 2.44591E-02
      884  7.33426E-07 1.64827E-06-9.40896E-04 0.00000E+00 0.00000E+00 0.00000E+00 0.00000E+00 0.00000E+00 0.00000E+00 4.79143E-03 1.17634E-02 2.44591E-02
      886  0.00000E+00 2.26360E-06-9.40896E-04 0.00000E+00 0.00000E+00 0.00000E+00 0.00000E+00 0.00000E+00 0.00000E+00 7.77700E-19 1.27023E-02 2.44591E-02



 n o d a l   p r i n t   o u t   f o r   t i m e  s t e p     431                              ( at time 9.9089556E+01 )

 nodal point  x-disp     y-disp      z-disp      x-vel       y-vel       z-vel      x-accl      y-accl      z-accl      x-coor      y-coor      z-coor
        1  1.10760E-03 0.00000E+00 0.00000E+00 0.00000E+00 0.00000E+00 0.00000E+00 0.00000E+00 0.00000E+00 0.00000E+00 4.28260E-03 0.00000E+00-1.78000E-18
        2  8.22770E-04 0.00000E+00 0.00000E+00 0.00000E+00 0.00000E+00 0.00000E+00 0.00000E+00 0.00000E+00 0.00000E+00 3.20407E-03 0.00000E+00 0.00000E+00
        3  5.65563E-04 0.00000E+00 0.00000E+00 0.00000E+00 0.00000E+00 0.00000E+00 0.00000E+00 0.00000E+00 0.00000E+00 2.15306E-03 0.00000E+00 0.00000E+00
        4  2.84806E-04 0.00000E+00 0.00000E+00 0.00000E+00 0.00000E+00 0.00000E+00 0.00000E+00 0.00000E+00 0.00000E+00 1.07856E-03 0.00000E+00 0.00000E+00
        5  0.00000E+00 0.00000E+00 0.00000E+00 0.00000E+00 0.00000E+00 0.00000E+00 0.00000E+00 0.00000E+00 0.00000E+00 0.00000E+00 0.00000E+00 0.00000E+00
        6  0.00000E+00 2.36472E-04 0.00000E+00 0.00000E+00 0.00000E+00 0.00000E+00 0.00000E+00 0.00000E+00 0.00000E+00 4.86000E-20 1.03022E-03 0.00000E+00
        7  0.00000E+00 5.10241E-04 0.00000E+00 0.00000E+00 0.00000E+00 0.00000E+00 0.00000E+00 0.00000E+00 0.00000E+00 9.72100E-20 2.09774E-03 0.00000E+00
        8  0.00000E+00 6.97727E-04 0.00000E+00 0.00000E+00 0.00000E+00 0.00000E+00 0.00000E+00 0.00000E+00 0.00000E+00 1.45800E-19 3.07903E-03 0.00000E+00
        9  0.00000E+00 8.78605E-04 0.00000E+00 0.00000E+00 0.00000E+00 0.00000E+00 0.00000E+00 0.00000E+00 0.00000E+00 1.94400E-19 4.05361E-03 0.00000E+00
       10  3.97298E-04 8.39865E-04 0.00000E+00 0.00000E+00 0.00000E+00 0.00000E+00 0.00000E+00 0.00000E+00 0.00000E+00 1.61230E-03 3.77316E-03 0.00000E+00
       11  6.81014E-04 7.25437E-04 0.00000E+00 0.00000E+00 0.00000E+00 0.00000E+00 0.00000E+00 0.00000E+00 0.00000E+00 2.92611E-03 2.97054E-03 0.00000E+00
       12  9.67199E-04 4.10121E-04 0.00000E+00 0.00000E+00 0.00000E+00 0.00000E+00 0.00000E+00 0.00000E+00 0.00000E+00 3.90050E-03 1.62512E-03 0.00000E+00
       13  5.14032E-04 4.30791E-04 0.00000E+00 0.00000E+00 0.00000E+00 0.00000E+00 0.00000E+00 0.00000E+00 0.00000E+00 1.82233E-03 1.78269E-03 0.00000E+00
       14  5.64155E-04 2.26406E-04 0.00000E+00 0.00000E+00 0.00000E+00 0.00000E+00 0.00000E+00 0.00000E+00 0.00000E+00 2.05246E-03 9.33383E-04 0.00000E+00
       15  2.76694E-04 5.22563E-04 0.00000E+00 0.00000E+00 0.00000E+00 0.00000E+00 0.00000E+00 0.00000E+00 0.00000E+00 9.46204E-04 2.02956E-03 0.00000E+00
       16  3.03458E-04 2.96079E-04 0.00000E+00 0.00000E+00 0.00000E+00 0.00000E+00 0.00000E+00 0.00000E+00 0.00000E+00 1.05710E-03 1.07842E-03 0.00000E+00
       17  6.09832E-04 5.62265E-04 0.00000E+00 0.00000E+00 0.00000E+00 0.00000E+00 0.00000E+00 0.00000E+00 0.00000E+00 2.34613E-03 2.32976E-03 0.00000E+00
       18  3.29913E-04 6.99598E-04 0.00000E+00 0.00000E+00 0.00000E+00 0.00000E+00 0.00000E+00 0.00000E+00 0.00000E+00 1.25004E-03 2.89070E-03 0.00000E+00
       19  7.68040E-04 3.10702E-04 0.00000E+00 0.00000E+00 0.00000E+00 0.00000E+00 0.00000E+00 0.00000E+00 0.00000E+00 2.93134E-03 1.26156E-03 0.00000E+00
      167  3.69286E-07 8.83007E-07-9.90896E-04 0.00000E+00 0.00000E+00 0.00000E+00 0.00000E+00 0.00000E+00 0.00000E+00 3.12507E-03 3.18158E-03 2.44091E-02
      168  3.08363E-07 4.51765E-07-9.90896E-04 0.00000E+00 0.00000E+00 0.00000E+00 0.00000E+00 0.00000E+00 0.00000E+00 2.35461E-03 2.43315E-03 2.44091E-02
      169  1.94744E-08 1.00006E-06-9.90896E-04 0.00000E+00 0.00000E+00 0.00000E+00 0.00000E+00 0.00000E+00 0.00000E+00 2.67802E-03 1.27300E-03 2.44091E-02
      170 -1.76250E-08 7.92105E-07-9.90896E-04 0.00000E+00 0.00000E+00 0.00000E+00 0.00000E+00 0.00000E+00 0.00000E+00 3.89278E-03 1.71169E-03 2.44091E-02
      197  1.64774E-07 7.69315E-07-9.90896E-04 0.00000E+00 0.00000E+00 0.00000E+00 0.00000E+00 0.00000E+00 0.00000E+00 1.20476E-03 2.71237E-03 2.44091E-02
      198  2.22389E-07 5.06083E-07-9.90896E-04 0.00000E+00 0.00000E+00 0.00000E+00 0.00000E+00 0.00000E+00 0.00000E+00 1.65582E-03 3.94331E-03 2.44091E-02
      225  2.49928E-06 0.00000E+00-9.90896E-04 0.00000E+00 0.00000E+00 0.00000E+00 0.00000E+00 0.00000E+00 0.00000E+00 2.86000E-03 0.00000E+00 2.44091E-02
      226  1.02056E-06 0.00000E+00-9.90896E-04 0.00000E+00 0.00000E+00 0.00000E+00 0.00000E+00 0.00000E+00 0.00000E+00 4.28732E-03 0.00000E+00 2.44091E-02
      279  2.51192E-06 0.00000E+00-9.90896E-04 0.00000E+00 0.00000E+00 0.00000E+00 0.00000E+00 0.00000E+00 0.00000E+00 1.43131E-03 0.00000E+00 2.44091E-02
      280  3.61532E-07 5.63209E-07-9.90896E-04 0.00000E+00 0.00000E+00 0.00000E+00 0.00000E+00 0.00000E+00 0.00000E+00 1.35656E-03 1.40836E-03 2.44091E-02
      281  0.00000E+00 2.07418E-06-9.90896E-04 0.00000E+00 0.00000E+00 0.00000E+00 0.00000E+00 0.00000E+00 0.00000E+00 8.74900E-20 1.43087E-03 2.44091E-02
      282  0.00000E+00 0.00000E+00-9.90896E-04 0.00000E+00 0.00000E+00 0.00000E+00 0.00000E+00 0.00000E+00 0.00000E+00 0.00000E+00 0.00000E+00 2.44091E-02
      296  0.00000E+00 1.89661E-06-9.90896E-04 0.00000E+00 0.00000E+00 0.00000E+00 0.00000E+00 0.00000E+00 0.00000E+00 1.75000E-19 2.85940E-03 2.44091E-02
      323  3.64095E-07 8.41826E-07-9.90896E-04 0.00000E+00 0.00000E+00 0.00000E+00 0.00000E+00 0.00000E+00 0.00000E+00 4.04146E-03 4.04204E-03 2.44091E-02
      324  2.60646E-07 7.36864E-07-9.90896E-04 0.00000E+00 0.00000E+00 0.00000E+00 0.00000E+00 0.00000E+00 0.00000E+00 2.18696E-03 5.28084E-03 2.44091E-02
      338  3.32373E-07 9.75216E-07-9.90896E-04 0.00000E+00 0.00000E+00 0.00000E+00 0.00000E+00 0.00000E+00 0.00000E+00 5.28033E-03 2.18788E-03 2.44091E-02
      352  0.00000E+00 1.67097E-06-9.90896E-04 0.00000E+00 0.00000E+00 0.00000E+00 0.00000E+00 0.00000E+00 0.00000E+00 2.62500E-19 4.28797E-03 2.44091E-02
      366  4.08380E-07 0.00000E+00-9.90896E-04 0.00000E+00 0.00000E+00 0.00000E+00 0.00000E+00 0.00000E+00 0.00000E+00 5.71541E-03 0.00000E+00 2.44091E-02
      380  0.00000E+00 1.73718E-06-9.90896E-04 0.00000E+00 0.00000E+00 0.00000E+00 0.00000E+00 0.00000E+00 0.00000E+00 3.49900E-19 5.71674E-03 2.44091E-02
      608 -1.64703E-07 0.00000E+00-9.90896E-04 0.00000E+00 0.00000E+00 0.00000E+00 0.00000E+00 0.00000E+00 0.00000E+00 1.26998E-02 0.00000E+00 2.44091E-02
      609  1.31373E-07 0.00000E+00-9.90896E-04 0.00000E+00 0.00000E+00 0.00000E+00 0.00000E+00 0.00000E+00 0.00000E+00 1.09539E-02 0.00000E+00 2.44091E-02
      610  1.70056E-07 0.00000E+00-9.90896E-04 0.00000E+00 0.00000E+00 0.00000E+00 0.00000E+00 0.00000E+00 0.00000E+00 9.20767E-03 0.00000E+00 2.44091E-02
      611  2.22665E-07 0.00000E+00-9.90896E-04 0.00000E+00 0.00000E+00 0.00000E+00 0.00000E+00 0.00000E+00 0.00000E+00 7.46152E-03 0.00000E+00 2.44091E-02
      804  3.81152E-07 1.00408E-06-9.90896E-04 0.00000E+00 0.00000E+00 0.00000E+00 0.00000E+00 0.00000E+00 0.00000E+00 6.90238E-03 2.83500E-03 2.44091E-02
      806  5.33212E-07 9.68952E-07-9.90896E-04 0.00000E+00 0.00000E+00 0.00000E+00 0.00000E+00 0.00000E+00 0.00000E+00 5.27853E-03 5.27477E-03 2.44091E-02
      808  3.48608E-07 8.80781E-07-9.90896E-04 0.00000E+00 0.00000E+00 0.00000E+00 0.00000E+00 0.00000E+00 0.00000E+00 2.83805E-03 6.90138E-03 2.44091E-02
      810  0.00000E+00 1.74758E-06-9.90896E-04 0.00000E+00 0.00000E+00 0.00000E+00 0.00000E+00 0.00000E+00 0.00000E+00 4.56900E-19 7.46305E-03 2.44091E-02
      852  4.56412E-07 1.09727E-06-9.90896E-04 0.00000E+00 0.00000E+00 0.00000E+00 0.00000E+00 0.00000E+00 0.00000E+00 8.52446E-03 3.48220E-03 2.44091E-02
      854  6.75164E-07 9.52323E-07-9.90896E-04 0.00000E+00 0.00000E+00 0.00000E+00 0.00000E+00 0.00000E+00 0.00000E+00 6.51568E-03 6.50735E-03 2.44091E-02
      856  4.56428E-07 9.94330E-07-9.90896E-04 0.00000E+00 0.00000E+00 0.00000E+00 0.00000E+00 0.00000E+00 0.00000E+00 3.48916E-03 8.52199E-03 2.44091E-02
      858  0.00000E+00 1.93940E-06-9.90896E-04 0.00000E+00 0.00000E+00 0.00000E+00 0.00000E+00 0.00000E+00 0.00000E+00 5.63800E-19 9.20944E-03 2.44091E-02
      864  5.29495E-07 1.16759E-06-9.90896E-04 0.00000E+00 0.00000E+00 0.00000E+00 0.00000E+00 0.00000E+00 0.00000E+00 1.01466E-02 4.12927E-03 2.44091E-02
      866  9.13140E-07 9.20935E-07-9.90896E-04 0.00000E+00 0.00000E+00 0.00000E+00 0.00000E+00 0.00000E+00 0.00000E+00 7.75281E-03 7.73992E-03 2.44091E-02
      868  4.39484E-07 1.08035E-06-9.90896E-04 0.00000E+00 0.00000E+00 0.00000E+00 0.00000E+00 0.00000E+00 0.00000E+00 4.14014E-03 1.01425E-02 2.44091E-02
      870  0.00000E+00 2.19859E-06-9.90896E-04 0.00000E+00 0.00000E+00 0.00000E+00 0.00000E+00 0.00000E+00 0.00000E+00 6.70700E-19 1.09560E-02 2.44091E-02
      880  3.59960E-07 9.31880E-07-9.90896E-04 0.00000E+00 0.00000E+00 0.00000E+00 0.00000E+00 0.00000E+00 0.00000E+00 1.17685E-02 4.77613E-03 2.44091E-02
      882  7.20393E-07 9.63188E-07-9.90896E-04 0.00000E+00 0.00000E+00 0.00000E+00 0.00000E+00 0.00000E+00 0.00000E+00 8.98962E-03 8.97256E-03 2.44091E-02
      884  7.75627E-07 1.70814E-06-9.90896E-04 0.00000E+00 0.00000E+00 0.00000E+00 0.00000E+00 0.00000E+00 0.00000E+00 4.79148E-03 1.17635E-02 2.44091E-02
      886  0.00000E+00 2.42652E-06-9.90896E-04 0.00000E+00 0.00000E+00 0.00000E+00 0.00000E+00 0.00000E+00 0.00000E+00 7.77700E-19 1.27024E-02 2.44091E-02



 n o d a l   p r i n t   o u t   f o r   t i m e  s t e p     435                              ( at time 1.0000000E+02 )

 nodal point  x-disp     y-disp      z-disp      x-vel       y-vel       z-vel      x-accl      y-accl      z-accl      x-coor      y-coor      z-coor
        1  1.11121E-03 0.00000E+00 0.00000E+00 0.00000E+00 0.00000E+00 0.00000E+00 0.00000E+00 0.00000E+00 0.00000E+00 4.28621E-03 0.00000E+00-1.78000E-18
        2  8.26354E-04 0.00000E+00 0.00000E+00 0.00000E+00 0.00000E+00 0.00000E+00 0.00000E+00 0.00000E+00 0.00000E+00 3.20765E-03 0.00000E+00 0.00000E+00
        3  5.67942E-04 0.00000E+00 0.00000E+00 0.00000E+00 0.00000E+00 0.00000E+00 0.00000E+00 0.00000E+00 0.00000E+00 2.15544E-03 0.00000E+00 0.00000E+00
        4  2.86178E-04 0.00000E+00 0.00000E+00 0.00000E+00 0.00000E+00 0.00000E+00 0.00000E+00 0.00000E+00 0.00000E+00 1.07993E-03 0.00000E+00 0.00000E+00
        5  0.00000E+00 0.00000E+00 0.00000E+00 0.00000E+00 0.00000E+00 0.00000E+00 0.00000E+00 0.00000E+00 0.00000E+00 0.00000E+00 0.00000E+00 0.00000E+00
        6  0.00000E+00 2.36999E-04 0.00000E+00 0.00000E+00 0.00000E+00 0.00000E+00 0.00000E+00 0.00000E+00 0.00000E+00 4.86000E-20 1.03075E-03 0.00000E+00
        7  0.00000E+00 5.11723E-04 0.00000E+00 0.00000E+00 0.00000E+00 0.00000E+00 0.00000E+00 0.00000E+00 0.00000E+00 9.72100E-20 2.09922E-03 0.00000E+00
        8  0.00000E+00 6.99090E-04 0.00000E+00 0.00000E+00 0.00000E+00 0.00000E+00 0.00000E+00 0.00000E+00 0.00000E+00 1.45800E-19 3.08039E-03 0.00000E+00
        9  0.00000E+00 8.81010E-04 0.00000E+00 0.00000E+00 0.00000E+00 0.00000E+00 0.00000E+00 0.00000E+00 0.00000E+00 1.94400E-19 4.05601E-03 0.00000E+00
       10  3.97954E-04 8.42845E-04 0.00000E+00 0.00000E+00 0.00000E+00 0.00000E+00 0.00000E+00 0.00000E+00 0.00000E+00 1.61295E-03 3.77614E-03 0.00000E+00
       11  6.83603E-04 7.27286E-04 0.00000E+00 0.00000E+00 0.00000E+00 0.00000E+00 0.00000E+00 0.00000E+00 0.00000E+00 2.92870E-03 2.97239E-03 0.00000E+00
       12  9.70422E-04 4.11595E-04 0.00000E+00 0.00000E+00 0.00000E+00 0.00000E+00 0.00000E+00 0.00000E+00 0.00000E+00 3.90372E-03 1.62660E-03 0.00000E+00
       13  5.15053E-04 4.31838E-04 0.00000E+00 0.00000E+00 0.00000E+00 0.00000E+00 0.00000E+00 0.00000E+00 0.00000E+00 1.82335E-03 1.78374E-03 0.00000E+00
       14  5.65808E-04 2.26877E-04 0.00000E+00 0.00000E+00 0.00000E+00 0.00000E+00 0.00000E+00 0.00000E+00 0.00000E+00 2.05411E-03 9.33854E-04 0.00000E+00
       15  2.77291E-04 5.23863E-04 0.00000E+00 0.00000E+00 0.00000E+00 0.00000E+00 0.00000E+00 0.00000E+00 0.00000E+00 9.46802E-04 2.03086E-03 0.00000E+00
       16  3.04483E-04 2.97015E-04 0.00000E+00 0.00000E+00 0.00000E+00 0.00000E+00 0.00000E+00 0.00000E+00 0.00000E+00 1.05812E-03 1.07935E-03 0.00000E+00
       17  6.11553E-04 5.63426E-04 0.00000E+00 0.00000E+00 0.00000E+00 0.00000E+00 0.00000E+00 0.00000E+00 0.00000E+00 2.34785E-03 2.33093E-03 0.00000E+00
       18  3.30324E-04 7.01095E-04 0.00000E+00 0.00000E+00 0.00000E+00 0.00000E+00 0.00000E+00 0.00000E+00 0.00000E+00 1.25046E-03 2.89219E-03 0.00000E+00
       19  7.69927E-04 3.11460E-04 0.00000E+00 0.00000E+00 0.00000E+00 0.00000E+00 0.00000E+00 0.00000E+00 0.00000E+00 2.93323E-03 1.26232E-03 0.00000E+00
      167  4.77693E-07 8.92143E-07-1.00000E-03 0.00000E+00 0.00000E+00 0.00000E+00 0.00000E+00 0.00000E+00 0.00000E+00 3.12518E-03 3.18159E-03 2.44000E-02
      168  4.14491E-07 4.85842E-07-1.00000E-03 0.00000E+00 0.00000E+00 0.00000E+00 0.00000E+00 0.00000E+00 0.00000E+00 2.35471E-03 2.43319E-03 2.44000E-02
      169  1.41767E-07 9.10680E-07-1.00000E-03 0.00000E+00 0.00000E+00 0.00000E+00 0.00000E+00 0.00000E+00 0.00000E+00 2.67814E-03 1.27291E-03 2.44000E-02
      170  9.01071E-08 7.37358E-07-1.00000E-03 0.00000E+00 0.00000E+00 0.00000E+00 0.00000E+00 0.00000E+00 0.00000E+00 3.89289E-03 1.71164E-03 2.44000E-02
      197  2.38584E-07 8.63532E-07-1.00000E-03 0.00000E+00 0.00000E+00 0.00000E+00 0.00000E+00 0.00000E+00 0.00000E+00 1.20484E-03 2.71246E-03 2.44000E-02
      198  2.91679E-07 6.39828E-07-1.00000E-03 0.00000E+00 0.00000E+00 0.00000E+00 0.00000E+00 0.00000E+00 0.00000E+00 1.65589E-03 3.94344E-03 2.44000E-02
      225  2.60930E-06 0.00000E+00-1.00000E-03 0.00000E+00 0.00000E+00 0.00000E+00 0.00000E+00 0.00000E+00 0.00000E+00 2.86011E-03 0.00000E+00 2.44000E-02
      226  1.18992E-06 0.00000E+00-1.00000E-03 0.00000E+00 0.00000E+00 0.00000E+00 0.00000E+00 0.00000E+00 0.00000E+00 4.28749E-03 0.00000E+00 2.44000E-02
      279  2.58126E-06 0.00000E+00-1.00000E-03 0.00000E+00 0.00000E+00 0.00000E+00 0.00000E+00 0.00000E+00 0.00000E+00 1.43138E-03 0.00000E+00 2.44000E-02
      280  4.59722E-07 5.37398E-07-1.00000E-03 0.00000E+00 0.00000E+00 0.00000E+00 0.00000E+00 0.00000E+00 0.00000E+00 1.35666E-03 1.40834E-03 2.44000E-02
      281  0.00000E+00 2.00736E-06-1.00000E-03 0.00000E+00 0.00000E+00 0.00000E+00 0.00000E+00 0.00000E+00 0.00000E+00 8.74900E-20 1.43081E-03 2.44000E-02
      282  0.00000E+00 0.00000E+00-1.00000E-03 0.00000E+00 0.00000E+00 0.00000E+00 0.00000E+00 0.00000E+00 0.00000E+00 0.00000E+00 0.00000E+00 2.44000E-02
      296  0.00000E+00 1.96706E-06-1.00000E-03 0.00000E+00 0.00000E+00 0.00000E+00 0.00000E+00 0.00000E+00 0.00000E+00 1.75000E-19 2.85947E-03 2.44000E-02
      323  4.82360E-07 8.75436E-07-1.00000E-03 0.00000E+00 0.00000E+00 0.00000E+00 0.00000E+00 0.00000E+00 0.00000E+00 4.04158E-03 4.04208E-03 2.44000E-02
      324  3.30870E-07 8.88876E-07-1.00000E-03 0.00000E+00 0.00000E+00 0.00000E+00 0.00000E+00 0.00000E+00 0.00000E+00 2.18703E-03 5.28099E-03 2.44000E-02
      338  4.81579E-07 9.40867E-07-1.00000E-03 0.00000E+00 0.00000E+00 0.00000E+00 0.00000E+00 0.00000E+00 0.00000E+00 5.28048E-03 2.18784E-03 2.44000E-02
      352  0.00000E+00 1.80349E-06-1.00000E-03 0.00000E+00 0.00000E+00 0.00000E+00 0.00000E+00 0.00000E+00 0.00000E+00 2.62500E-19 4.28810E-03 2.44000E-02
      366  6.32970E-07 0.00000E+00-1.00000E-03 0.00000E+00 0.00000E+00 0.00000E+00 0.00000E+00 0.00000E+00 0.00000E+00 5.71563E-03 0.00000E+00 2.44000E-02
      380  0.00000E+00 1.91185E-06-1.00000E-03 0.00000E+00 0.00000E+00 0.00000E+00 0.00000E+00 0.00000E+00 0.00000E+00 3.49900E-19 5.71691E-03 2.44000E-02
      608  2.21410E-07 0.00000E+00-1.00000E-03 0.00000E+00 0.00000E+00 0.00000E+00 0.00000E+00 0.00000E+00 0.00000E+00 1.27002E-02 0.00000E+00 2.44000E-02
      609  4.43770E-07 0.00000E+00-1.00000E-03 0.00000E+00 0.00000E+00 0.00000E+00 0.00000E+00 0.00000E+00 0.00000E+00 1.09542E-02 0.00000E+00 2.44000E-02
      610  4.39170E-07 0.00000E+00-1.00000E-03 0.00000E+00 0.00000E+00 0.00000E+00 0.00000E+00 0.00000E+00 0.00000E+00 9.20794E-03 0.00000E+00 2.44000E-02
      611  4.34107E-07 0.00000E+00-1.00000E-03 0.00000E+00 0.00000E+00 0.00000E+00 0.00000E+00 0.00000E+00 0.00000E+00 7.46173E-03 0.00000E+00 2.44000E-02
      804  5.99274E-07 1.01198E-06-1.00000E-03 0.00000E+00 0.00000E+00 0.00000E+00 0.00000E+00 0.00000E+00 0.00000E+00 6.90260E-03 2.83501E-03 2.44000E-02
      806  6.72865E-07 1.06861E-06-1.00000E-03 0.00000E+00 0.00000E+00 0.00000E+00 0.00000E+00 0.00000E+00 0.00000E+00 5.27867E-03 5.27487E-03 2.44000E-02
      808  4.13779E-07 1.10972E-06-1.00000E-03 0.00000E+00 0.00000E+00 0.00000E+00 0.00000E+00 0.00000E+00 0.00000E+00 2.83811E-03 6.90161E-03 2.44000E-02
      810  0.00000E+00 2.03447E-06-1.00000E-03 0.00000E+00 0.00000E+00 0.00000E+00 0.00000E+00 0.00000E+00 0.00000E+00 4.56900E-19 7.46333E-03 2.44000E-02
      852  7.11301E-07 1.11057E-06-1.00000E-03 0.00000E+00 0.00000E+00 0.00000E+00 0.00000E+00 0.00000E+00 0.00000E+00 8.52471E-03 3.48221E-03 2.44000E-02
      854  8.31206E-07 1.11559E-06-1.00000E-03 0.00000E+00 0.00000E+00 0.00000E+00 0.00000E+00 0.00000E+00 0.00000E+00 6.51583E-03 6.50752E-03 2.44000E-02
      856  5.28788E-07 1.27962E-06-1.00000E-03 0.00000E+00 0.00000E+00 0.00000E+00 0.00000E+00 0.00000E+00 0.00000E+00 3.48923E-03 8.52228E-03 2.44000E-02
      858  0.00000E+00 2.27529E-06-1.00000E-03 0.00000E+00 0.00000E+00 0.00000E+00 0.00000E+00 0.00000E+00 0.00000E+00 5.63800E-19 9.20978E-03 2.44000E-02
      864  8.25804E-07 1.19446E-06-1.00000E-03 0.00000E+00 0.00000E+00 0.00000E+00 0.00000E+00 0.00000E+00 0.00000E+00 1.01469E-02 4.12929E-03 2.44000E-02
      866  1.07270E-06 1.16110E-06-1.00000E-03 0.00000E+00 0.00000E+00 0.00000E+00 0.00000E+00 0.00000E+00 0.00000E+00 7.75297E-03 7.74016E-03 2.44000E-02
      868  5.39377E-07 1.45366E-06-1.00000E-03 0.00000E+00 0.00000E+00 0.00000E+00 0.00000E+00 0.00000E+00 0.00000E+00 4.14024E-03 1.01429E-02 2.44000E-02
      870  0.00000E+00 2.57326E-06-1.00000E-03 0.00000E+00 0.00000E+00 0.00000E+00 0.00000E+00 0.00000E+00 0.00000E+00 6.70700E-19 1.09564E-02 2.44000E-02
      880  6.86535E-07 1.04714E-06-1.00000E-03 0.00000E+00 0.00000E+00 0.00000E+00 0.00000E+00 0.00000E+00 0.00000E+00 1.17688E-02 4.77625E-03 2.44000E-02
      882  9.39105E-07 1.33758E-06-1.00000E-03 0.00000E+00 0.00000E+00 0.00000E+00 0.00000E+00 0.00000E+00 0.00000E+00 8.98984E-03 8.97294E-03 2.44000E-02
      884  9.03611E-07 2.08495E-06-1.00000E-03 0.00000E+00 0.00000E+00 0.00000E+00 0.00000E+00 0.00000E+00 0.00000E+00 4.79160E-03 1.17639E-02 2.44000E-02
      886  0.00000E+00 2.79079E-06-1.00000E-03 0.00000E+00 0.00000E+00 0.00000E+00 0.00000E+00 0.00000E+00 0.00000E+00 7.77700E-19 1.27028E-02 2.44000E-02
