 LS-DYNA keyword deck by LS-PrePost                                      
                    ls-dyna smp d R14 R14.1.1s_1_ef50e1 date 06/16/2024
 single point constraint forces

 output at time =   0.00000E+00
 node=     1 local x,y,z forces =    0.0000E+00    0.0000E+00    0.0000E+00  setid=       0
 node=     1 local x,y,z moments=    0.0000E+00    0.0000E+00    0.0000E+00  setid=       0
 node=     2 local x,y,z forces =    0.0000E+00    0.0000E+00    0.0000E+00  setid=       0
 node=     2 local x,y,z moments=    0.0000E+00    0.0000E+00    0.0000E+00  setid=       0
 node=     3 local x,y,z forces =    0.0000E+00    0.0000E+00    0.0000E+00  setid=       0
 node=     3 local x,y,z moments=    0.0000E+00    0.0000E+00    0.0000E+00  setid=       0
 node=     4 local x,y,z forces =    0.0000E+00    0.0000E+00    0.0000E+00  setid=       0
 node=     4 local x,y,z moments=    0.0000E+00    0.0000E+00    0.0000E+00  setid=       0
 node=     5 local x,y,z forces =    0.0000E+00    0.0000E+00    0.0000E+00  setid=       0
 node=     5 local x,y,z moments=    0.0000E+00    0.0000E+00    0.0000E+00  setid=       0
 node=     6 local x,y,z forces =    0.0000E+00    0.0000E+00    0.0000E+00  setid=       0
 node=     6 local x,y,z moments=    0.0000E+00    0.0000E+00    0.0000E+00  setid=       0
 node=     7 local x,y,z forces =    0.0000E+00    0.0000E+00    0.0000E+00  setid=       0
 node=     7 local x,y,z moments=    0.0000E+00    0.0000E+00    0.0000E+00  setid=       0
 node=     8 local x,y,z forces =    0.0000E+00    0.0000E+00    0.0000E+00  setid=       0
 node=     8 local x,y,z moments=    0.0000E+00    0.0000E+00    0.0000E+00  setid=       0
 node=     9 local x,y,z forces =    0.0000E+00    0.0000E+00    0.0000E+00  setid=       0
 node=     9 local x,y,z moments=    0.0000E+00    0.0000E+00    0.0000E+00  setid=       0
 node=    10 local x,y,z forces =    0.0000E+00    0.0000E+00    0.0000E+00  setid=       0
 node=    10 local x,y,z moments=    0.0000E+00    0.0000E+00    0.0000E+00  setid=       0
 node=    11 local x,y,z forces =    0.0000E+00    0.0000E+00    0.0000E+00  setid=       0
 node=    11 local x,y,z moments=    0.0000E+00    0.0000E+00    0.0000E+00  setid=       0
 node=    12 local x,y,z forces =    0.0000E+00    0.0000E+00    0.0000E+00  setid=       0
 node=    12 local x,y,z moments=    0.0000E+00    0.0000E+00    0.0000E+00  setid=       0
 node=    13 local x,y,z forces =    0.0000E+00    0.0000E+00    0.0000E+00  setid=       0
 node=    13 local x,y,z moments=    0.0000E+00    0.0000E+00    0.0000E+00  setid=       0
 node=    14 local x,y,z forces =    0.0000E+00    0.0000E+00    0.0000E+00  setid=       0
 node=    14 local x,y,z moments=    0.0000E+00    0.0000E+00    0.0000E+00  setid=       0
 node=    15 local x,y,z forces =    0.0000E+00    0.0000E+00    0.0000E+00  setid=       0
 node=    15 local x,y,z moments=    0.0000E+00    0.0000E+00    0.0000E+00  setid=       0
 node=    16 local x,y,z forces =    0.0000E+00    0.0000E+00    0.0000E+00  setid=       0
 node=    16 local x,y,z moments=    0.0000E+00    0.0000E+00    0.0000E+00  setid=       0
 node=    17 local x,y,z forces =    0.0000E+00    0.0000E+00    0.0000E+00  setid=       0
 node=    17 local x,y,z moments=    0.0000E+00    0.0000E+00    0.0000E+00  setid=       0
 node=    18 local x,y,z forces =    0.0000E+00    0.0000E+00    0.0000E+00  setid=       0
 node=    18 local x,y,z moments=    0.0000E+00    0.0000E+00    0.0000E+00  setid=       0
 node=    19 local x,y,z forces =    0.0000E+00    0.0000E+00    0.0000E+00  setid=       0
 node=    19 local x,y,z moments=    0.0000E+00    0.0000E+00    0.0000E+00  setid=       0
 node=    51 local x,y,z forces =    0.0000E+00    0.0000E+00    0.0000E+00  setid=       0
 node=    51 local x,y,z moments=    0.0000E+00    0.0000E+00    0.0000E+00  setid=       0
 node=    52 local x,y,z forces =    0.0000E+00    0.0000E+00    0.0000E+00  setid=       0
 node=    52 local x,y,z moments=    0.0000E+00    0.0000E+00    0.0000E+00  setid=       0
 node=    53 local x,y,z forces =    0.0000E+00    0.0000E+00    0.0000E+00  setid=       0
 node=    53 local x,y,z moments=    0.0000E+00    0.0000E+00    0.0000E+00  setid=       0
 node=    55 local x,y,z forces =    0.0000E+00    0.0000E+00    0.0000E+00  setid=       0
 node=    55 local x,y,z moments=    0.0000E+00    0.0000E+00    0.0000E+00  setid=       0
 node=    56 local x,y,z forces =    0.0000E+00    0.0000E+00    0.0000E+00  setid=       0
 node=    56 local x,y,z moments=    0.0000E+00    0.0000E+00    0.0000E+00  setid=       0
 node=    57 local x,y,z forces =    0.0000E+00    0.0000E+00    0.0000E+00  setid=       0
 node=    57 local x,y,z moments=    0.0000E+00    0.0000E+00    0.0000E+00  setid=       0
 node=    59 local x,y,z forces =    0.0000E+00    0.0000E+00    0.0000E+00  setid=       0
 node=    59 local x,y,z moments=    0.0000E+00    0.0000E+00    0.0000E+00  setid=       0
 node=    60 local x,y,z forces =    0.0000E+00    0.0000E+00    0.0000E+00  setid=       0
 node=    60 local x,y,z moments=    0.0000E+00    0.0000E+00    0.0000E+00  setid=       0
 node=    61 local x,y,z forces =    0.0000E+00    0.0000E+00    0.0000E+00  setid=       0
 node=    61 local x,y,z moments=    0.0000E+00    0.0000E+00    0.0000E+00  setid=       0
 node=    63 local x,y,z forces =    0.0000E+00    0.0000E+00    0.0000E+00  setid=       0
 node=    63 local x,y,z moments=    0.0000E+00    0.0000E+00    0.0000E+00  setid=       0
 node=    64 local x,y,z forces =    0.0000E+00    0.0000E+00    0.0000E+00  setid=       0
 node=    64 local x,y,z moments=    0.0000E+00    0.0000E+00    0.0000E+00  setid=       0
 node=    65 local x,y,z forces =    0.0000E+00    0.0000E+00    0.0000E+00  setid=       0
 node=    65 local x,y,z moments=    0.0000E+00    0.0000E+00    0.0000E+00  setid=       0
 node=    67 local x,y,z forces =    0.0000E+00    0.0000E+00    0.0000E+00  setid=       0
 node=    67 local x,y,z moments=    0.0000E+00    0.0000E+00    0.0000E+00  setid=       0
 node=    68 local x,y,z forces =    0.0000E+00    0.0000E+00    0.0000E+00  setid=       0
 node=    68 local x,y,z moments=    0.0000E+00    0.0000E+00    0.0000E+00  setid=       0
 node=    69 local x,y,z forces =    0.0000E+00    0.0000E+00    0.0000E+00  setid=       0
 node=    69 local x,y,z moments=    0.0000E+00    0.0000E+00    0.0000E+00  setid=       0
 node=    85 local x,y,z forces =    0.0000E+00    0.0000E+00    0.0000E+00  setid=       0
 node=    85 local x,y,z moments=    0.0000E+00    0.0000E+00    0.0000E+00  setid=       0
 node=    86 local x,y,z forces =    0.0000E+00    0.0000E+00    0.0000E+00  setid=       0
 node=    86 local x,y,z moments=    0.0000E+00    0.0000E+00    0.0000E+00  setid=       0
 node=    87 local x,y,z forces =    0.0000E+00    0.0000E+00    0.0000E+00  setid=       0
 node=    87 local x,y,z moments=    0.0000E+00    0.0000E+00    0.0000E+00  setid=       0
 node=    88 local x,y,z forces =    0.0000E+00    0.0000E+00    0.0000E+00  setid=       0
 node=    88 local x,y,z moments=    0.0000E+00    0.0000E+00    0.0000E+00  setid=       0
 node=    89 local x,y,z forces =    0.0000E+00    0.0000E+00    0.0000E+00  setid=       0
 node=    89 local x,y,z moments=    0.0000E+00    0.0000E+00    0.0000E+00  setid=       0
 node=    90 local x,y,z forces =    0.0000E+00    0.0000E+00    0.0000E+00  setid=       0
 node=    90 local x,y,z moments=    0.0000E+00    0.0000E+00    0.0000E+00  setid=       0
 node=    91 local x,y,z forces =    0.0000E+00    0.0000E+00    0.0000E+00  setid=       0
 node=    91 local x,y,z moments=    0.0000E+00    0.0000E+00    0.0000E+00  setid=       0
 node=    92 local x,y,z forces =    0.0000E+00    0.0000E+00    0.0000E+00  setid=       0
 node=    92 local x,y,z moments=    0.0000E+00    0.0000E+00    0.0000E+00  setid=       0
 node=    93 local x,y,z forces =    0.0000E+00    0.0000E+00    0.0000E+00  setid=       0
 node=    93 local x,y,z moments=    0.0000E+00    0.0000E+00    0.0000E+00  setid=       0
 node=    94 local x,y,z forces =    0.0000E+00    0.0000E+00    0.0000E+00  setid=       0
 node=    94 local x,y,z moments=    0.0000E+00    0.0000E+00    0.0000E+00  setid=       0
 node=    95 local x,y,z forces =    0.0000E+00    0.0000E+00    0.0000E+00  setid=       0
 node=    95 local x,y,z moments=    0.0000E+00    0.0000E+00    0.0000E+00  setid=       0
 node=    96 local x,y,z forces =    0.0000E+00    0.0000E+00    0.0000E+00  setid=       0
 node=    96 local x,y,z moments=    0.0000E+00    0.0000E+00    0.0000E+00  setid=       0
 node=    97 local x,y,z forces =    0.0000E+00    0.0000E+00    0.0000E+00  setid=       0
 node=    97 local x,y,z moments=    0.0000E+00    0.0000E+00    0.0000E+00  setid=       0
 node=    98 local x,y,z forces =    0.0000E+00    0.0000E+00    0.0000E+00  setid=       0
 node=    98 local x,y,z moments=    0.0000E+00    0.0000E+00    0.0000E+00  setid=       0
 node=    99 local x,y,z forces =    0.0000E+00    0.0000E+00    0.0000E+00  setid=       0
 node=    99 local x,y,z moments=    0.0000E+00    0.0000E+00    0.0000E+00  setid=       0
 node=   100 local x,y,z forces =    0.0000E+00    0.0000E+00    0.0000E+00  setid=       0
 node=   100 local x,y,z moments=    0.0000E+00    0.0000E+00    0.0000E+00  setid=       0
 node=   101 local x,y,z forces =    0.0000E+00    0.0000E+00    0.0000E+00  setid=       0
 node=   101 local x,y,z moments=    0.0000E+00    0.0000E+00    0.0000E+00  setid=       0
 node=   102 local x,y,z forces =    0.0000E+00    0.0000E+00    0.0000E+00  setid=       0
 node=   102 local x,y,z moments=    0.0000E+00    0.0000E+00    0.0000E+00  setid=       0
 node=   103 local x,y,z forces =    0.0000E+00    0.0000E+00    0.0000E+00  setid=       0
 node=   103 local x,y,z moments=    0.0000E+00    0.0000E+00    0.0000E+00  setid=       0
 node=   104 local x,y,z forces =    0.0000E+00    0.0000E+00    0.0000E+00  setid=       0
 node=   104 local x,y,z moments=    0.0000E+00    0.0000E+00    0.0000E+00  setid=       0
 node=   105 local x,y,z forces =    0.0000E+00    0.0000E+00    0.0000E+00  setid=       0
 node=   105 local x,y,z moments=    0.0000E+00    0.0000E+00    0.0000E+00  setid=       0
 node=   106 local x,y,z forces =    0.0000E+00    0.0000E+00    0.0000E+00  setid=       0
 node=   106 local x,y,z moments=    0.0000E+00    0.0000E+00    0.0000E+00  setid=       0
 node=   107 local x,y,z forces =    0.0000E+00    0.0000E+00    0.0000E+00  setid=       0
 node=   107 local x,y,z moments=    0.0000E+00    0.0000E+00    0.0000E+00  setid=       0
 node=   108 local x,y,z forces =    0.0000E+00    0.0000E+00    0.0000E+00  setid=       0
 node=   108 local x,y,z moments=    0.0000E+00    0.0000E+00    0.0000E+00  setid=       0
 node=   109 local x,y,z forces =    0.0000E+00    0.0000E+00    0.0000E+00  setid=       0
 node=   109 local x,y,z moments=    0.0000E+00    0.0000E+00    0.0000E+00  setid=       0
 node=   110 local x,y,z forces =    0.0000E+00    0.0000E+00    0.0000E+00  setid=       0
 node=   110 local x,y,z moments=    0.0000E+00    0.0000E+00    0.0000E+00  setid=       0
 node=   111 local x,y,z forces =    0.0000E+00    0.0000E+00    0.0000E+00  setid=       0
 node=   111 local x,y,z moments=    0.0000E+00    0.0000E+00    0.0000E+00  setid=       0
 node=   112 local x,y,z forces =    0.0000E+00    0.0000E+00    0.0000E+00  setid=       0
 node=   112 local x,y,z moments=    0.0000E+00    0.0000E+00    0.0000E+00  setid=       0
 node=   113 local x,y,z forces =    0.0000E+00    0.0000E+00    0.0000E+00  setid=       0
 node=   113 local x,y,z moments=    0.0000E+00    0.0000E+00    0.0000E+00  setid=       0
 node=   114 local x,y,z forces =    0.0000E+00    0.0000E+00    0.0000E+00  setid=       0
 node=   114 local x,y,z moments=    0.0000E+00    0.0000E+00    0.0000E+00  setid=       0
 node=   199 local x,y,z forces =    0.0000E+00    0.0000E+00    0.0000E+00  setid=       0
 node=   199 local x,y,z moments=    0.0000E+00    0.0000E+00    0.0000E+00  setid=       0
 node=   200 local x,y,z forces =    0.0000E+00    0.0000E+00    0.0000E+00  setid=       0
 node=   200 local x,y,z moments=    0.0000E+00    0.0000E+00    0.0000E+00  setid=       0
 node=   201 local x,y,z forces =    0.0000E+00    0.0000E+00    0.0000E+00  setid=       0
 node=   201 local x,y,z moments=    0.0000E+00    0.0000E+00    0.0000E+00  setid=       0
 node=   202 local x,y,z forces =    0.0000E+00    0.0000E+00    0.0000E+00  setid=       0
 node=   202 local x,y,z moments=    0.0000E+00    0.0000E+00    0.0000E+00  setid=       0
 node=   203 local x,y,z forces =    0.0000E+00    0.0000E+00    0.0000E+00  setid=       0
 node=   203 local x,y,z moments=    0.0000E+00    0.0000E+00    0.0000E+00  setid=       0
 node=   204 local x,y,z forces =    0.0000E+00    0.0000E+00    0.0000E+00  setid=       0
 node=   204 local x,y,z moments=    0.0000E+00    0.0000E+00    0.0000E+00  setid=       0
 node=   205 local x,y,z forces =    0.0000E+00    0.0000E+00    0.0000E+00  setid=       0
 node=   205 local x,y,z moments=    0.0000E+00    0.0000E+00    0.0000E+00  setid=       0
 node=   206 local x,y,z forces =    0.0000E+00    0.0000E+00    0.0000E+00  setid=       0
 node=   206 local x,y,z moments=    0.0000E+00    0.0000E+00    0.0000E+00  setid=       0
 node=   207 local x,y,z forces =    0.0000E+00    0.0000E+00    0.0000E+00  setid=       0
 node=   207 local x,y,z moments=    0.0000E+00    0.0000E+00    0.0000E+00  setid=       0
 node=   208 local x,y,z forces =    0.0000E+00    0.0000E+00    0.0000E+00  setid=       0
 node=   208 local x,y,z moments=    0.0000E+00    0.0000E+00    0.0000E+00  setid=       0
 node=   209 local x,y,z forces =    0.0000E+00    0.0000E+00    0.0000E+00  setid=       0
 node=   209 local x,y,z moments=    0.0000E+00    0.0000E+00    0.0000E+00  setid=       0
 node=   210 local x,y,z forces =    0.0000E+00    0.0000E+00    0.0000E+00  setid=       0
 node=   210 local x,y,z moments=    0.0000E+00    0.0000E+00    0.0000E+00  setid=       0
 node=   211 local x,y,z forces =    0.0000E+00    0.0000E+00    0.0000E+00  setid=       0
 node=   211 local x,y,z moments=    0.0000E+00    0.0000E+00    0.0000E+00  setid=       0
 node=   212 local x,y,z forces =    0.0000E+00    0.0000E+00    0.0000E+00  setid=       0
 node=   212 local x,y,z moments=    0.0000E+00    0.0000E+00    0.0000E+00  setid=       0
 node=   213 local x,y,z forces =    0.0000E+00    0.0000E+00    0.0000E+00  setid=       0
 node=   213 local x,y,z moments=    0.0000E+00    0.0000E+00    0.0000E+00  setid=       0
 node=   214 local x,y,z forces =    0.0000E+00    0.0000E+00    0.0000E+00  setid=       0
 node=   214 local x,y,z moments=    0.0000E+00    0.0000E+00    0.0000E+00  setid=       0
 node=   215 local x,y,z forces =    0.0000E+00    0.0000E+00    0.0000E+00  setid=       0
 node=   215 local x,y,z moments=    0.0000E+00    0.0000E+00    0.0000E+00  setid=       0
 node=   216 local x,y,z forces =    0.0000E+00    0.0000E+00    0.0000E+00  setid=       0
 node=   216 local x,y,z moments=    0.0000E+00    0.0000E+00    0.0000E+00  setid=       0
 node=   217 local x,y,z forces =    0.0000E+00    0.0000E+00    0.0000E+00  setid=       0
 node=   217 local x,y,z moments=    0.0000E+00    0.0000E+00    0.0000E+00  setid=       0
 node=   218 local x,y,z forces =    0.0000E+00    0.0000E+00    0.0000E+00  setid=       0
 node=   218 local x,y,z moments=    0.0000E+00    0.0000E+00    0.0000E+00  setid=       0
 node=   219 local x,y,z forces =    0.0000E+00    0.0000E+00    0.0000E+00  setid=       0
 node=   219 local x,y,z moments=    0.0000E+00    0.0000E+00    0.0000E+00  setid=       0
 node=   220 local x,y,z forces =    0.0000E+00    0.0000E+00    0.0000E+00  setid=       0
 node=   220 local x,y,z moments=    0.0000E+00    0.0000E+00    0.0000E+00  setid=       0
 node=   221 local x,y,z forces =    0.0000E+00    0.0000E+00    0.0000E+00  setid=       0
 node=   221 local x,y,z moments=    0.0000E+00    0.0000E+00    0.0000E+00  setid=       0
 node=   222 local x,y,z forces =    0.0000E+00    0.0000E+00    0.0000E+00  setid=       0
 node=   222 local x,y,z moments=    0.0000E+00    0.0000E+00    0.0000E+00  setid=       0
 node=   223 local x,y,z forces =    0.0000E+00    0.0000E+00    0.0000E+00  setid=       0
 node=   223 local x,y,z moments=    0.0000E+00    0.0000E+00    0.0000E+00  setid=       0
 node=   224 local x,y,z forces =    0.0000E+00    0.0000E+00    0.0000E+00  setid=       0
 node=   224 local x,y,z moments=    0.0000E+00    0.0000E+00    0.0000E+00  setid=       0
 node=   225 local x,y,z forces =    0.0000E+00    0.0000E+00    0.0000E+00  setid=       0
 node=   225 local x,y,z moments=    0.0000E+00    0.0000E+00    0.0000E+00  setid=       0
 node=   226 local x,y,z forces =    0.0000E+00    0.0000E+00    0.0000E+00  setid=       0
 node=   226 local x,y,z moments=    0.0000E+00    0.0000E+00    0.0000E+00  setid=       0
 node=   227 local x,y,z forces =    0.0000E+00    0.0000E+00    0.0000E+00  setid=       0
 node=   227 local x,y,z moments=    0.0000E+00    0.0000E+00    0.0000E+00  setid=       0
 node=   229 local x,y,z forces =    0.0000E+00    0.0000E+00    0.0000E+00  setid=       0
 node=   229 local x,y,z moments=    0.0000E+00    0.0000E+00    0.0000E+00  setid=       0
 node=   230 local x,y,z forces =    0.0000E+00    0.0000E+00    0.0000E+00  setid=       0
 node=   230 local x,y,z moments=    0.0000E+00    0.0000E+00    0.0000E+00  setid=       0
 node=   231 local x,y,z forces =    0.0000E+00    0.0000E+00    0.0000E+00  setid=       0
 node=   231 local x,y,z moments=    0.0000E+00    0.0000E+00    0.0000E+00  setid=       0
 node=   233 local x,y,z forces =    0.0000E+00    0.0000E+00    0.0000E+00  setid=       0
 node=   233 local x,y,z moments=    0.0000E+00    0.0000E+00    0.0000E+00  setid=       0
 node=   234 local x,y,z forces =    0.0000E+00    0.0000E+00    0.0000E+00  setid=       0
 node=   234 local x,y,z moments=    0.0000E+00    0.0000E+00    0.0000E+00  setid=       0
 node=   235 local x,y,z forces =    0.0000E+00    0.0000E+00    0.0000E+00  setid=       0
 node=   235 local x,y,z moments=    0.0000E+00    0.0000E+00    0.0000E+00  setid=       0
 node=   237 local x,y,z forces =    0.0000E+00    0.0000E+00    0.0000E+00  setid=       0
 node=   237 local x,y,z moments=    0.0000E+00    0.0000E+00    0.0000E+00  setid=       0
 node=   238 local x,y,z forces =    0.0000E+00    0.0000E+00    0.0000E+00  setid=       0
 node=   238 local x,y,z moments=    0.0000E+00    0.0000E+00    0.0000E+00  setid=       0
 node=   239 local x,y,z forces =    0.0000E+00    0.0000E+00    0.0000E+00  setid=       0
 node=   239 local x,y,z moments=    0.0000E+00    0.0000E+00    0.0000E+00  setid=       0
 node=   241 local x,y,z forces =    0.0000E+00    0.0000E+00    0.0000E+00  setid=       0
 node=   241 local x,y,z moments=    0.0000E+00    0.0000E+00    0.0000E+00  setid=       0
 node=   242 local x,y,z forces =    0.0000E+00    0.0000E+00    0.0000E+00  setid=       0
 node=   242 local x,y,z moments=    0.0000E+00    0.0000E+00    0.0000E+00  setid=       0
 node=   243 local x,y,z forces =    0.0000E+00    0.0000E+00    0.0000E+00  setid=       0
 node=   243 local x,y,z moments=    0.0000E+00    0.0000E+00    0.0000E+00  setid=       0
 node=   245 local x,y,z forces =    0.0000E+00    0.0000E+00    0.0000E+00  setid=       0
 node=   245 local x,y,z moments=    0.0000E+00    0.0000E+00    0.0000E+00  setid=       0
 node=   246 local x,y,z forces =    0.0000E+00    0.0000E+00    0.0000E+00  setid=       0
 node=   246 local x,y,z moments=    0.0000E+00    0.0000E+00    0.0000E+00  setid=       0
 node=   247 local x,y,z forces =    0.0000E+00    0.0000E+00    0.0000E+00  setid=       0
 node=   247 local x,y,z moments=    0.0000E+00    0.0000E+00    0.0000E+00  setid=       0
 node=   249 local x,y,z forces =    0.0000E+00    0.0000E+00    0.0000E+00  setid=       0
 node=   249 local x,y,z moments=    0.0000E+00    0.0000E+00    0.0000E+00  setid=       0
 node=   250 local x,y,z forces =    0.0000E+00    0.0000E+00    0.0000E+00  setid=       0
 node=   250 local x,y,z moments=    0.0000E+00    0.0000E+00    0.0000E+00  setid=       0
 node=   251 local x,y,z forces =    0.0000E+00    0.0000E+00    0.0000E+00  setid=       0
 node=   251 local x,y,z moments=    0.0000E+00    0.0000E+00    0.0000E+00  setid=       0
 node=   253 local x,y,z forces =    0.0000E+00    0.0000E+00    0.0000E+00  setid=       0
 node=   253 local x,y,z moments=    0.0000E+00    0.0000E+00    0.0000E+00  setid=       0
 node=   254 local x,y,z forces =    0.0000E+00    0.0000E+00    0.0000E+00  setid=       0
 node=   254 local x,y,z moments=    0.0000E+00    0.0000E+00    0.0000E+00  setid=       0
 node=   255 local x,y,z forces =    0.0000E+00    0.0000E+00    0.0000E+00  setid=       0
 node=   255 local x,y,z moments=    0.0000E+00    0.0000E+00    0.0000E+00  setid=       0
 node=   257 local x,y,z forces =    0.0000E+00    0.0000E+00    0.0000E+00  setid=       0
 node=   257 local x,y,z moments=    0.0000E+00    0.0000E+00    0.0000E+00  setid=       0
 node=   258 local x,y,z forces =    0.0000E+00    0.0000E+00    0.0000E+00  setid=       0
 node=   258 local x,y,z moments=    0.0000E+00    0.0000E+00    0.0000E+00  setid=       0
 node=   259 local x,y,z forces =    0.0000E+00    0.0000E+00    0.0000E+00  setid=       0
 node=   259 local x,y,z moments=    0.0000E+00    0.0000E+00    0.0000E+00  setid=       0
 node=   261 local x,y,z forces =    0.0000E+00    0.0000E+00    0.0000E+00  setid=       0
 node=   261 local x,y,z moments=    0.0000E+00    0.0000E+00    0.0000E+00  setid=       0
 node=   262 local x,y,z forces =    0.0000E+00    0.0000E+00    0.0000E+00  setid=       0
 node=   262 local x,y,z moments=    0.0000E+00    0.0000E+00    0.0000E+00  setid=       0
 node=   263 local x,y,z forces =    0.0000E+00    0.0000E+00    0.0000E+00  setid=       0
 node=   263 local x,y,z moments=    0.0000E+00    0.0000E+00    0.0000E+00  setid=       0
 node=   265 local x,y,z forces =    0.0000E+00    0.0000E+00    0.0000E+00  setid=       0
 node=   265 local x,y,z moments=    0.0000E+00    0.0000E+00    0.0000E+00  setid=       0
 node=   266 local x,y,z forces =    0.0000E+00    0.0000E+00    0.0000E+00  setid=       0
 node=   266 local x,y,z moments=    0.0000E+00    0.0000E+00    0.0000E+00  setid=       0
 node=   267 local x,y,z forces =    0.0000E+00    0.0000E+00    0.0000E+00  setid=       0
 node=   267 local x,y,z moments=    0.0000E+00    0.0000E+00    0.0000E+00  setid=       0
 node=   269 local x,y,z forces =    0.0000E+00    0.0000E+00    0.0000E+00  setid=       0
 node=   269 local x,y,z moments=    0.0000E+00    0.0000E+00    0.0000E+00  setid=       0
 node=   270 local x,y,z forces =    0.0000E+00    0.0000E+00    0.0000E+00  setid=       0
 node=   270 local x,y,z moments=    0.0000E+00    0.0000E+00    0.0000E+00  setid=       0
 node=   271 local x,y,z forces =    0.0000E+00    0.0000E+00    0.0000E+00  setid=       0
 node=   271 local x,y,z moments=    0.0000E+00    0.0000E+00    0.0000E+00  setid=       0
 node=   273 local x,y,z forces =    0.0000E+00    0.0000E+00    0.0000E+00  setid=       0
 node=   273 local x,y,z moments=    0.0000E+00    0.0000E+00    0.0000E+00  setid=       0
 node=   274 local x,y,z forces =    0.0000E+00    0.0000E+00    0.0000E+00  setid=       0
 node=   274 local x,y,z moments=    0.0000E+00    0.0000E+00    0.0000E+00  setid=       0
 node=   275 local x,y,z forces =    0.0000E+00    0.0000E+00    0.0000E+00  setid=       0
 node=   275 local x,y,z moments=    0.0000E+00    0.0000E+00    0.0000E+00  setid=       0
 node=   277 local x,y,z forces =    0.0000E+00    0.0000E+00    0.0000E+00  setid=       0
 node=   277 local x,y,z moments=    0.0000E+00    0.0000E+00    0.0000E+00  setid=       0
 node=   278 local x,y,z forces =    0.0000E+00    0.0000E+00    0.0000E+00  setid=       0
 node=   278 local x,y,z moments=    0.0000E+00    0.0000E+00    0.0000E+00  setid=       0
 node=   279 local x,y,z forces =    0.0000E+00    0.0000E+00    0.0000E+00  setid=       0
 node=   279 local x,y,z moments=    0.0000E+00    0.0000E+00    0.0000E+00  setid=       0
 node=   281 local x,y,z forces =    0.0000E+00    0.0000E+00    0.0000E+00  setid=       0
 node=   281 local x,y,z moments=    0.0000E+00    0.0000E+00    0.0000E+00  setid=       0
 node=   282 local x,y,z forces =    0.0000E+00    0.0000E+00    0.0000E+00  setid=       0
 node=   282 local x,y,z moments=    0.0000E+00    0.0000E+00    0.0000E+00  setid=       0
 node=   283 local x,y,z forces =    0.0000E+00    0.0000E+00    0.0000E+00  setid=       0
 node=   283 local x,y,z moments=    0.0000E+00    0.0000E+00    0.0000E+00  setid=       0
 node=   284 local x,y,z forces =    0.0000E+00    0.0000E+00    0.0000E+00  setid=       0
 node=   284 local x,y,z moments=    0.0000E+00    0.0000E+00    0.0000E+00  setid=       0
 node=   285 local x,y,z forces =    0.0000E+00    0.0000E+00    0.0000E+00  setid=       0
 node=   285 local x,y,z moments=    0.0000E+00    0.0000E+00    0.0000E+00  setid=       0
 node=   286 local x,y,z forces =    0.0000E+00    0.0000E+00    0.0000E+00  setid=       0
 node=   286 local x,y,z moments=    0.0000E+00    0.0000E+00    0.0000E+00  setid=       0
 node=   287 local x,y,z forces =    0.0000E+00    0.0000E+00    0.0000E+00  setid=       0
 node=   287 local x,y,z moments=    0.0000E+00    0.0000E+00    0.0000E+00  setid=       0
 node=   288 local x,y,z forces =    0.0000E+00    0.0000E+00    0.0000E+00  setid=       0
 node=   288 local x,y,z moments=    0.0000E+00    0.0000E+00    0.0000E+00  setid=       0
 node=   289 local x,y,z forces =    0.0000E+00    0.0000E+00    0.0000E+00  setid=       0
 node=   289 local x,y,z moments=    0.0000E+00    0.0000E+00    0.0000E+00  setid=       0
 node=   290 local x,y,z forces =    0.0000E+00    0.0000E+00    0.0000E+00  setid=       0
 node=   290 local x,y,z moments=    0.0000E+00    0.0000E+00    0.0000E+00  setid=       0
 node=   291 local x,y,z forces =    0.0000E+00    0.0000E+00    0.0000E+00  setid=       0
 node=   291 local x,y,z moments=    0.0000E+00    0.0000E+00    0.0000E+00  setid=       0
 node=   292 local x,y,z forces =    0.0000E+00    0.0000E+00    0.0000E+00  setid=       0
 node=   292 local x,y,z moments=    0.0000E+00    0.0000E+00    0.0000E+00  setid=       0
 node=   293 local x,y,z forces =    0.0000E+00    0.0000E+00    0.0000E+00  setid=       0
 node=   293 local x,y,z moments=    0.0000E+00    0.0000E+00    0.0000E+00  setid=       0
 node=   294 local x,y,z forces =    0.0000E+00    0.0000E+00    0.0000E+00  setid=       0
 node=   294 local x,y,z moments=    0.0000E+00    0.0000E+00    0.0000E+00  setid=       0
 node=   295 local x,y,z forces =    0.0000E+00    0.0000E+00    0.0000E+00  setid=       0
 node=   295 local x,y,z moments=    0.0000E+00    0.0000E+00    0.0000E+00  setid=       0
 node=   296 local x,y,z forces =    0.0000E+00    0.0000E+00    0.0000E+00  setid=       0
 node=   296 local x,y,z moments=    0.0000E+00    0.0000E+00    0.0000E+00  setid=       0
 node=   339 local x,y,z forces =    0.0000E+00    0.0000E+00    0.0000E+00  setid=       0
 node=   339 local x,y,z moments=    0.0000E+00    0.0000E+00    0.0000E+00  setid=       0
 node=   340 local x,y,z forces =    0.0000E+00    0.0000E+00    0.0000E+00  setid=       0
 node=   340 local x,y,z moments=    0.0000E+00    0.0000E+00    0.0000E+00  setid=       0
 node=   341 local x,y,z forces =    0.0000E+00    0.0000E+00    0.0000E+00  setid=       0
 node=   341 local x,y,z moments=    0.0000E+00    0.0000E+00    0.0000E+00  setid=       0
 node=   342 local x,y,z forces =    0.0000E+00    0.0000E+00    0.0000E+00  setid=       0
 node=   342 local x,y,z moments=    0.0000E+00    0.0000E+00    0.0000E+00  setid=       0
 node=   343 local x,y,z forces =    0.0000E+00    0.0000E+00    0.0000E+00  setid=       0
 node=   343 local x,y,z moments=    0.0000E+00    0.0000E+00    0.0000E+00  setid=       0
 node=   344 local x,y,z forces =    0.0000E+00    0.0000E+00    0.0000E+00  setid=       0
 node=   344 local x,y,z moments=    0.0000E+00    0.0000E+00    0.0000E+00  setid=       0
 node=   345 local x,y,z forces =    0.0000E+00    0.0000E+00    0.0000E+00  setid=       0
 node=   345 local x,y,z moments=    0.0000E+00    0.0000E+00    0.0000E+00  setid=       0
 node=   346 local x,y,z forces =    0.0000E+00    0.0000E+00    0.0000E+00  setid=       0
 node=   346 local x,y,z moments=    0.0000E+00    0.0000E+00    0.0000E+00  setid=       0
 node=   347 local x,y,z forces =    0.0000E+00    0.0000E+00    0.0000E+00  setid=       0
 node=   347 local x,y,z moments=    0.0000E+00    0.0000E+00    0.0000E+00  setid=       0
 node=   348 local x,y,z forces =    0.0000E+00    0.0000E+00    0.0000E+00  setid=       0
 node=   348 local x,y,z moments=    0.0000E+00    0.0000E+00    0.0000E+00  setid=       0
 node=   349 local x,y,z forces =    0.0000E+00    0.0000E+00    0.0000E+00  setid=       0
 node=   349 local x,y,z moments=    0.0000E+00    0.0000E+00    0.0000E+00  setid=       0
 node=   350 local x,y,z forces =    0.0000E+00    0.0000E+00    0.0000E+00  setid=       0
 node=   350 local x,y,z moments=    0.0000E+00    0.0000E+00    0.0000E+00  setid=       0
 node=   351 local x,y,z forces =    0.0000E+00    0.0000E+00    0.0000E+00  setid=       0
 node=   351 local x,y,z moments=    0.0000E+00    0.0000E+00    0.0000E+00  setid=       0
 node=   352 local x,y,z forces =    0.0000E+00    0.0000E+00    0.0000E+00  setid=       0
 node=   352 local x,y,z moments=    0.0000E+00    0.0000E+00    0.0000E+00  setid=       0
 node=   353 local x,y,z forces =    0.0000E+00    0.0000E+00    0.0000E+00  setid=       0
 node=   353 local x,y,z moments=    0.0000E+00    0.0000E+00    0.0000E+00  setid=       0
 node=   354 local x,y,z forces =    0.0000E+00    0.0000E+00    0.0000E+00  setid=       0
 node=   354 local x,y,z moments=    0.0000E+00    0.0000E+00    0.0000E+00  setid=       0
 node=   355 local x,y,z forces =    0.0000E+00    0.0000E+00    0.0000E+00  setid=       0
 node=   355 local x,y,z moments=    0.0000E+00    0.0000E+00    0.0000E+00  setid=       0
 node=   356 local x,y,z forces =    0.0000E+00    0.0000E+00    0.0000E+00  setid=       0
 node=   356 local x,y,z moments=    0.0000E+00    0.0000E+00    0.0000E+00  setid=       0
 node=   357 local x,y,z forces =    0.0000E+00    0.0000E+00    0.0000E+00  setid=       0
 node=   357 local x,y,z moments=    0.0000E+00    0.0000E+00    0.0000E+00  setid=       0
 node=   358 local x,y,z forces =    0.0000E+00    0.0000E+00    0.0000E+00  setid=       0
 node=   358 local x,y,z moments=    0.0000E+00    0.0000E+00    0.0000E+00  setid=       0
 node=   359 local x,y,z forces =    0.0000E+00    0.0000E+00    0.0000E+00  setid=       0
 node=   359 local x,y,z moments=    0.0000E+00    0.0000E+00    0.0000E+00  setid=       0
 node=   360 local x,y,z forces =    0.0000E+00    0.0000E+00    0.0000E+00  setid=       0
 node=   360 local x,y,z moments=    0.0000E+00    0.0000E+00    0.0000E+00  setid=       0
 node=   361 local x,y,z forces =    0.0000E+00    0.0000E+00    0.0000E+00  setid=       0
 node=   361 local x,y,z moments=    0.0000E+00    0.0000E+00    0.0000E+00  setid=       0
 node=   362 local x,y,z forces =    0.0000E+00    0.0000E+00    0.0000E+00  setid=       0
 node=   362 local x,y,z moments=    0.0000E+00    0.0000E+00    0.0000E+00  setid=       0
 node=   363 local x,y,z forces =    0.0000E+00    0.0000E+00    0.0000E+00  setid=       0
 node=   363 local x,y,z moments=    0.0000E+00    0.0000E+00    0.0000E+00  setid=       0
 node=   364 local x,y,z forces =    0.0000E+00    0.0000E+00    0.0000E+00  setid=       0
 node=   364 local x,y,z moments=    0.0000E+00    0.0000E+00    0.0000E+00  setid=       0
 node=   365 local x,y,z forces =    0.0000E+00    0.0000E+00    0.0000E+00  setid=       0
 node=   365 local x,y,z moments=    0.0000E+00    0.0000E+00    0.0000E+00  setid=       0
 node=   366 local x,y,z forces =    0.0000E+00    0.0000E+00    0.0000E+00  setid=       0
 node=   366 local x,y,z moments=    0.0000E+00    0.0000E+00    0.0000E+00  setid=       0
 node=   367 local x,y,z forces =    0.0000E+00    0.0000E+00    0.0000E+00  setid=       0
 node=   367 local x,y,z moments=    0.0000E+00    0.0000E+00    0.0000E+00  setid=       0
 node=   368 local x,y,z forces =    0.0000E+00    0.0000E+00    0.0000E+00  setid=       0
 node=   368 local x,y,z moments=    0.0000E+00    0.0000E+00    0.0000E+00  setid=       0
 node=   369 local x,y,z forces =    0.0000E+00    0.0000E+00    0.0000E+00  setid=       0
 node=   369 local x,y,z moments=    0.0000E+00    0.0000E+00    0.0000E+00  setid=       0
 node=   370 local x,y,z forces =    0.0000E+00    0.0000E+00    0.0000E+00  setid=       0
 node=   370 local x,y,z moments=    0.0000E+00    0.0000E+00    0.0000E+00  setid=       0
 node=   371 local x,y,z forces =    0.0000E+00    0.0000E+00    0.0000E+00  setid=       0
 node=   371 local x,y,z moments=    0.0000E+00    0.0000E+00    0.0000E+00  setid=       0
 node=   372 local x,y,z forces =    0.0000E+00    0.0000E+00    0.0000E+00  setid=       0
 node=   372 local x,y,z moments=    0.0000E+00    0.0000E+00    0.0000E+00  setid=       0
 node=   373 local x,y,z forces =    0.0000E+00    0.0000E+00    0.0000E+00  setid=       0
 node=   373 local x,y,z moments=    0.0000E+00    0.0000E+00    0.0000E+00  setid=       0
 node=   374 local x,y,z forces =    0.0000E+00    0.0000E+00    0.0000E+00  setid=       0
 node=   374 local x,y,z moments=    0.0000E+00    0.0000E+00    0.0000E+00  setid=       0
 node=   375 local x,y,z forces =    0.0000E+00    0.0000E+00    0.0000E+00  setid=       0
 node=   375 local x,y,z moments=    0.0000E+00    0.0000E+00    0.0000E+00  setid=       0
 node=   376 local x,y,z forces =    0.0000E+00    0.0000E+00    0.0000E+00  setid=       0
 node=   376 local x,y,z moments=    0.0000E+00    0.0000E+00    0.0000E+00  setid=       0
 node=   377 local x,y,z forces =    0.0000E+00    0.0000E+00    0.0000E+00  setid=       0
 node=   377 local x,y,z moments=    0.0000E+00    0.0000E+00    0.0000E+00  setid=       0
 node=   378 local x,y,z forces =    0.0000E+00    0.0000E+00    0.0000E+00  setid=       0
 node=   378 local x,y,z moments=    0.0000E+00    0.0000E+00    0.0000E+00  setid=       0
 node=   379 local x,y,z forces =    0.0000E+00    0.0000E+00    0.0000E+00  setid=       0
 node=   379 local x,y,z moments=    0.0000E+00    0.0000E+00    0.0000E+00  setid=       0
 node=   380 local x,y,z forces =    0.0000E+00    0.0000E+00    0.0000E+00  setid=       0
 node=   380 local x,y,z moments=    0.0000E+00    0.0000E+00    0.0000E+00  setid=       0
 node=   591 local x,y,z forces =    0.0000E+00    0.0000E+00    0.0000E+00  setid=       0
 node=   591 local x,y,z moments=    0.0000E+00    0.0000E+00    0.0000E+00  setid=       0
 node=   592 local x,y,z forces =    0.0000E+00    0.0000E+00    0.0000E+00  setid=       0
 node=   592 local x,y,z moments=    0.0000E+00    0.0000E+00    0.0000E+00  setid=       0
 node=   593 local x,y,z forces =    0.0000E+00    0.0000E+00    0.0000E+00  setid=       0
 node=   593 local x,y,z moments=    0.0000E+00    0.0000E+00    0.0000E+00  setid=       0
 node=   594 local x,y,z forces =    0.0000E+00    0.0000E+00    0.0000E+00  setid=       0
 node=   594 local x,y,z moments=    0.0000E+00    0.0000E+00    0.0000E+00  setid=       0
 node=   595 local x,y,z forces =    0.0000E+00    0.0000E+00    0.0000E+00  setid=       0
 node=   595 local x,y,z moments=    0.0000E+00    0.0000E+00    0.0000E+00  setid=       0
 node=   596 local x,y,z forces =    0.0000E+00    0.0000E+00    0.0000E+00  setid=       0
 node=   596 local x,y,z moments=    0.0000E+00    0.0000E+00    0.0000E+00  setid=       0
 node=   597 local x,y,z forces =    0.0000E+00    0.0000E+00    0.0000E+00  setid=       0
 node=   597 local x,y,z moments=    0.0000E+00    0.0000E+00    0.0000E+00  setid=       0
 node=   598 local x,y,z forces =    0.0000E+00    0.0000E+00    0.0000E+00  setid=       0
 node=   598 local x,y,z moments=    0.0000E+00    0.0000E+00    0.0000E+00  setid=       0
 node=   599 local x,y,z forces =    0.0000E+00    0.0000E+00    0.0000E+00  setid=       0
 node=   599 local x,y,z moments=    0.0000E+00    0.0000E+00    0.0000E+00  setid=       0
 node=   600 local x,y,z forces =    0.0000E+00    0.0000E+00    0.0000E+00  setid=       0
 node=   600 local x,y,z moments=    0.0000E+00    0.0000E+00    0.0000E+00  setid=       0
 node=   601 local x,y,z forces =    0.0000E+00    0.0000E+00    0.0000E+00  setid=       0
 node=   601 local x,y,z moments=    0.0000E+00    0.0000E+00    0.0000E+00  setid=       0
 node=   602 local x,y,z forces =    0.0000E+00    0.0000E+00    0.0000E+00  setid=       0
 node=   602 local x,y,z moments=    0.0000E+00    0.0000E+00    0.0000E+00  setid=       0
 node=   603 local x,y,z forces =    0.0000E+00    0.0000E+00    0.0000E+00  setid=       0
 node=   603 local x,y,z moments=    0.0000E+00    0.0000E+00    0.0000E+00  setid=       0
 node=   604 local x,y,z forces =    0.0000E+00    0.0000E+00    0.0000E+00  setid=       0
 node=   604 local x,y,z moments=    0.0000E+00    0.0000E+00    0.0000E+00  setid=       0
 node=   605 local x,y,z forces =    0.0000E+00    0.0000E+00    0.0000E+00  setid=       0
 node=   605 local x,y,z moments=    0.0000E+00    0.0000E+00    0.0000E+00  setid=       0
 node=   606 local x,y,z forces =    0.0000E+00    0.0000E+00    0.0000E+00  setid=       0
 node=   606 local x,y,z moments=    0.0000E+00    0.0000E+00    0.0000E+00  setid=       0
 node=   607 local x,y,z forces =    0.0000E+00    0.0000E+00    0.0000E+00  setid=       0
 node=   607 local x,y,z moments=    0.0000E+00    0.0000E+00    0.0000E+00  setid=       0
 node=   608 local x,y,z forces =    0.0000E+00    0.0000E+00    0.0000E+00  setid=       0
 node=   608 local x,y,z moments=    0.0000E+00    0.0000E+00    0.0000E+00  setid=       0
 node=   609 local x,y,z forces =    0.0000E+00    0.0000E+00    0.0000E+00  setid=       0
 node=   609 local x,y,z moments=    0.0000E+00    0.0000E+00    0.0000E+00  setid=       0
 node=   610 local x,y,z forces =    0.0000E+00    0.0000E+00    0.0000E+00  setid=       0
 node=   610 local x,y,z moments=    0.0000E+00    0.0000E+00    0.0000E+00  setid=       0
 node=   611 local x,y,z forces =    0.0000E+00    0.0000E+00    0.0000E+00  setid=       0
 node=   611 local x,y,z moments=    0.0000E+00    0.0000E+00    0.0000E+00  setid=       0
 node=   612 local x,y,z forces =    0.0000E+00    0.0000E+00    0.0000E+00  setid=       0
 node=   612 local x,y,z moments=    0.0000E+00    0.0000E+00    0.0000E+00  setid=       0
 node=   613 local x,y,z forces =    0.0000E+00    0.0000E+00    0.0000E+00  setid=       0
 node=   613 local x,y,z moments=    0.0000E+00    0.0000E+00    0.0000E+00  setid=       0
 node=   614 local x,y,z forces =    0.0000E+00    0.0000E+00    0.0000E+00  setid=       0
 node=   614 local x,y,z moments=    0.0000E+00    0.0000E+00    0.0000E+00  setid=       0
 node=   615 local x,y,z forces =    0.0000E+00    0.0000E+00    0.0000E+00  setid=       0
 node=   615 local x,y,z moments=    0.0000E+00    0.0000E+00    0.0000E+00  setid=       0
 node=   616 local x,y,z forces =    0.0000E+00    0.0000E+00    0.0000E+00  setid=       0
 node=   616 local x,y,z moments=    0.0000E+00    0.0000E+00    0.0000E+00  setid=       0
 node=   617 local x,y,z forces =    0.0000E+00    0.0000E+00    0.0000E+00  setid=       0
 node=   617 local x,y,z moments=    0.0000E+00    0.0000E+00    0.0000E+00  setid=       0
 node=   618 local x,y,z forces =    0.0000E+00    0.0000E+00    0.0000E+00  setid=       0
 node=   618 local x,y,z moments=    0.0000E+00    0.0000E+00    0.0000E+00  setid=       0
 node=   619 local x,y,z forces =    0.0000E+00    0.0000E+00    0.0000E+00  setid=       0
 node=   619 local x,y,z moments=    0.0000E+00    0.0000E+00    0.0000E+00  setid=       0
 node=   620 local x,y,z forces =    0.0000E+00    0.0000E+00    0.0000E+00  setid=       0
 node=   620 local x,y,z moments=    0.0000E+00    0.0000E+00    0.0000E+00  setid=       0
 node=   621 local x,y,z forces =    0.0000E+00    0.0000E+00    0.0000E+00  setid=       0
 node=   621 local x,y,z moments=    0.0000E+00    0.0000E+00    0.0000E+00  setid=       0
 node=   622 local x,y,z forces =    0.0000E+00    0.0000E+00    0.0000E+00  setid=       0
 node=   622 local x,y,z moments=    0.0000E+00    0.0000E+00    0.0000E+00  setid=       0
 node=   623 local x,y,z forces =    0.0000E+00    0.0000E+00    0.0000E+00  setid=       0
 node=   623 local x,y,z moments=    0.0000E+00    0.0000E+00    0.0000E+00  setid=       0
 node=   624 local x,y,z forces =    0.0000E+00    0.0000E+00    0.0000E+00  setid=       0
 node=   624 local x,y,z moments=    0.0000E+00    0.0000E+00    0.0000E+00  setid=       0
 node=   625 local x,y,z forces =    0.0000E+00    0.0000E+00    0.0000E+00  setid=       0
 node=   625 local x,y,z moments=    0.0000E+00    0.0000E+00    0.0000E+00  setid=       0
 node=   626 local x,y,z forces =    0.0000E+00    0.0000E+00    0.0000E+00  setid=       0
 node=   626 local x,y,z moments=    0.0000E+00    0.0000E+00    0.0000E+00  setid=       0
 node=   627 local x,y,z forces =    0.0000E+00    0.0000E+00    0.0000E+00  setid=       0
 node=   627 local x,y,z moments=    0.0000E+00    0.0000E+00    0.0000E+00  setid=       0
 node=   628 local x,y,z forces =    0.0000E+00    0.0000E+00    0.0000E+00  setid=       0
 node=   628 local x,y,z moments=    0.0000E+00    0.0000E+00    0.0000E+00  setid=       0
 node=   629 local x,y,z forces =    0.0000E+00    0.0000E+00    0.0000E+00  setid=       0
 node=   629 local x,y,z moments=    0.0000E+00    0.0000E+00    0.0000E+00  setid=       0
 node=   630 local x,y,z forces =    0.0000E+00    0.0000E+00    0.0000E+00  setid=       0
 node=   630 local x,y,z moments=    0.0000E+00    0.0000E+00    0.0000E+00  setid=       0
 node=   631 local x,y,z forces =    0.0000E+00    0.0000E+00    0.0000E+00  setid=       0
 node=   631 local x,y,z moments=    0.0000E+00    0.0000E+00    0.0000E+00  setid=       0
 node=   632 local x,y,z forces =    0.0000E+00    0.0000E+00    0.0000E+00  setid=       0
 node=   632 local x,y,z moments=    0.0000E+00    0.0000E+00    0.0000E+00  setid=       0
 node=   633 local x,y,z forces =    0.0000E+00    0.0000E+00    0.0000E+00  setid=       0
 node=   633 local x,y,z moments=    0.0000E+00    0.0000E+00    0.0000E+00  setid=       0
 node=   634 local x,y,z forces =    0.0000E+00    0.0000E+00    0.0000E+00  setid=       0
 node=   634 local x,y,z moments=    0.0000E+00    0.0000E+00    0.0000E+00  setid=       0
 node=   635 local x,y,z forces =    0.0000E+00    0.0000E+00    0.0000E+00  setid=       0
 node=   635 local x,y,z moments=    0.0000E+00    0.0000E+00    0.0000E+00  setid=       0
 node=   636 local x,y,z forces =    0.0000E+00    0.0000E+00    0.0000E+00  setid=       0
 node=   636 local x,y,z moments=    0.0000E+00    0.0000E+00    0.0000E+00  setid=       0
 node=   637 local x,y,z forces =    0.0000E+00    0.0000E+00    0.0000E+00  setid=       0
 node=   637 local x,y,z moments=    0.0000E+00    0.0000E+00    0.0000E+00  setid=       0
 node=   638 local x,y,z forces =    0.0000E+00    0.0000E+00    0.0000E+00  setid=       0
 node=   638 local x,y,z moments=    0.0000E+00    0.0000E+00    0.0000E+00  setid=       0
 node=   639 local x,y,z forces =    0.0000E+00    0.0000E+00    0.0000E+00  setid=       0
 node=   639 local x,y,z moments=    0.0000E+00    0.0000E+00    0.0000E+00  setid=       0
 node=   640 local x,y,z forces =    0.0000E+00    0.0000E+00    0.0000E+00  setid=       0
 node=   640 local x,y,z moments=    0.0000E+00    0.0000E+00    0.0000E+00  setid=       0
 node=   641 local x,y,z forces =    0.0000E+00    0.0000E+00    0.0000E+00  setid=       0
 node=   641 local x,y,z moments=    0.0000E+00    0.0000E+00    0.0000E+00  setid=       0
 node=   642 local x,y,z forces =    0.0000E+00    0.0000E+00    0.0000E+00  setid=       0
 node=   642 local x,y,z moments=    0.0000E+00    0.0000E+00    0.0000E+00  setid=       0
 node=   643 local x,y,z forces =    0.0000E+00    0.0000E+00    0.0000E+00  setid=       0
 node=   643 local x,y,z moments=    0.0000E+00    0.0000E+00    0.0000E+00  setid=       0
 node=   644 local x,y,z forces =    0.0000E+00    0.0000E+00    0.0000E+00  setid=       0
 node=   644 local x,y,z moments=    0.0000E+00    0.0000E+00    0.0000E+00  setid=       0
 node=   645 local x,y,z forces =    0.0000E+00    0.0000E+00    0.0000E+00  setid=       0
 node=   645 local x,y,z moments=    0.0000E+00    0.0000E+00    0.0000E+00  setid=       0
 node=   646 local x,y,z forces =    0.0000E+00    0.0000E+00    0.0000E+00  setid=       0
 node=   646 local x,y,z moments=    0.0000E+00    0.0000E+00    0.0000E+00  setid=       0
 node=   647 local x,y,z forces =    0.0000E+00    0.0000E+00    0.0000E+00  setid=       0
 node=   647 local x,y,z moments=    0.0000E+00    0.0000E+00    0.0000E+00  setid=       0
 node=   648 local x,y,z forces =    0.0000E+00    0.0000E+00    0.0000E+00  setid=       0
 node=   648 local x,y,z moments=    0.0000E+00    0.0000E+00    0.0000E+00  setid=       0
 node=   649 local x,y,z forces =    0.0000E+00    0.0000E+00    0.0000E+00  setid=       0
 node=   649 local x,y,z moments=    0.0000E+00    0.0000E+00    0.0000E+00  setid=       0
 node=   650 local x,y,z forces =    0.0000E+00    0.0000E+00    0.0000E+00  setid=       0
 node=   650 local x,y,z moments=    0.0000E+00    0.0000E+00    0.0000E+00  setid=       0
 node=   657 local x,y,z forces =    0.0000E+00    0.0000E+00    0.0000E+00  setid=       0
 node=   657 local x,y,z moments=    0.0000E+00    0.0000E+00    0.0000E+00  setid=       0
 node=   658 local x,y,z forces =    0.0000E+00    0.0000E+00    0.0000E+00  setid=       0
 node=   658 local x,y,z moments=    0.0000E+00    0.0000E+00    0.0000E+00  setid=       0
 node=   671 local x,y,z forces =    0.0000E+00    0.0000E+00    0.0000E+00  setid=       0
 node=   671 local x,y,z moments=    0.0000E+00    0.0000E+00    0.0000E+00  setid=       0
 node=   672 local x,y,z forces =    0.0000E+00    0.0000E+00    0.0000E+00  setid=       0
 node=   672 local x,y,z moments=    0.0000E+00    0.0000E+00    0.0000E+00  setid=       0
 node=   673 local x,y,z forces =    0.0000E+00    0.0000E+00    0.0000E+00  setid=       0
 node=   673 local x,y,z moments=    0.0000E+00    0.0000E+00    0.0000E+00  setid=       0
 node=   674 local x,y,z forces =    0.0000E+00    0.0000E+00    0.0000E+00  setid=       0
 node=   674 local x,y,z moments=    0.0000E+00    0.0000E+00    0.0000E+00  setid=       0
 node=   681 local x,y,z forces =    0.0000E+00    0.0000E+00    0.0000E+00  setid=       0
 node=   681 local x,y,z moments=    0.0000E+00    0.0000E+00    0.0000E+00  setid=       0
 node=   682 local x,y,z forces =    0.0000E+00    0.0000E+00    0.0000E+00  setid=       0
 node=   682 local x,y,z moments=    0.0000E+00    0.0000E+00    0.0000E+00  setid=       0
 node=   695 local x,y,z forces =    0.0000E+00    0.0000E+00    0.0000E+00  setid=       0
 node=   695 local x,y,z moments=    0.0000E+00    0.0000E+00    0.0000E+00  setid=       0
 node=   696 local x,y,z forces =    0.0000E+00    0.0000E+00    0.0000E+00  setid=       0
 node=   696 local x,y,z moments=    0.0000E+00    0.0000E+00    0.0000E+00  setid=       0
 node=   697 local x,y,z forces =    0.0000E+00    0.0000E+00    0.0000E+00  setid=       0
 node=   697 local x,y,z moments=    0.0000E+00    0.0000E+00    0.0000E+00  setid=       0
 node=   698 local x,y,z forces =    0.0000E+00    0.0000E+00    0.0000E+00  setid=       0
 node=   698 local x,y,z moments=    0.0000E+00    0.0000E+00    0.0000E+00  setid=       0
 node=   711 local x,y,z forces =    0.0000E+00    0.0000E+00    0.0000E+00  setid=       0
 node=   711 local x,y,z moments=    0.0000E+00    0.0000E+00    0.0000E+00  setid=       0
 node=   712 local x,y,z forces =    0.0000E+00    0.0000E+00    0.0000E+00  setid=       0
 node=   712 local x,y,z moments=    0.0000E+00    0.0000E+00    0.0000E+00  setid=       0
 node=   713 local x,y,z forces =    0.0000E+00    0.0000E+00    0.0000E+00  setid=       0
 node=   713 local x,y,z moments=    0.0000E+00    0.0000E+00    0.0000E+00  setid=       0
 node=   714 local x,y,z forces =    0.0000E+00    0.0000E+00    0.0000E+00  setid=       0
 node=   714 local x,y,z moments=    0.0000E+00    0.0000E+00    0.0000E+00  setid=       0
 node=   721 local x,y,z forces =    0.0000E+00    0.0000E+00    0.0000E+00  setid=       0
 node=   721 local x,y,z moments=    0.0000E+00    0.0000E+00    0.0000E+00  setid=       0
 node=   722 local x,y,z forces =    0.0000E+00    0.0000E+00    0.0000E+00  setid=       0
 node=   722 local x,y,z moments=    0.0000E+00    0.0000E+00    0.0000E+00  setid=       0
 node=   735 local x,y,z forces =    0.0000E+00    0.0000E+00    0.0000E+00  setid=       0
 node=   735 local x,y,z moments=    0.0000E+00    0.0000E+00    0.0000E+00  setid=       0
 node=   736 local x,y,z forces =    0.0000E+00    0.0000E+00    0.0000E+00  setid=       0
 node=   736 local x,y,z moments=    0.0000E+00    0.0000E+00    0.0000E+00  setid=       0
 node=   737 local x,y,z forces =    0.0000E+00    0.0000E+00    0.0000E+00  setid=       0
 node=   737 local x,y,z moments=    0.0000E+00    0.0000E+00    0.0000E+00  setid=       0
 node=   738 local x,y,z forces =    0.0000E+00    0.0000E+00    0.0000E+00  setid=       0
 node=   738 local x,y,z moments=    0.0000E+00    0.0000E+00    0.0000E+00  setid=       0
 node=   745 local x,y,z forces =    0.0000E+00    0.0000E+00    0.0000E+00  setid=       0
 node=   745 local x,y,z moments=    0.0000E+00    0.0000E+00    0.0000E+00  setid=       0
 node=   746 local x,y,z forces =    0.0000E+00    0.0000E+00    0.0000E+00  setid=       0
 node=   746 local x,y,z moments=    0.0000E+00    0.0000E+00    0.0000E+00  setid=       0
 node=   753 local x,y,z forces =    0.0000E+00    0.0000E+00    0.0000E+00  setid=       0
 node=   753 local x,y,z moments=    0.0000E+00    0.0000E+00    0.0000E+00  setid=       0
 node=   754 local x,y,z forces =    0.0000E+00    0.0000E+00    0.0000E+00  setid=       0
 node=   754 local x,y,z moments=    0.0000E+00    0.0000E+00    0.0000E+00  setid=       0
 node=   761 local x,y,z forces =    0.0000E+00    0.0000E+00    0.0000E+00  setid=       0
 node=   761 local x,y,z moments=    0.0000E+00    0.0000E+00    0.0000E+00  setid=       0
 node=   762 local x,y,z forces =    0.0000E+00    0.0000E+00    0.0000E+00  setid=       0
 node=   762 local x,y,z moments=    0.0000E+00    0.0000E+00    0.0000E+00  setid=       0
 node=   769 local x,y,z forces =    0.0000E+00    0.0000E+00    0.0000E+00  setid=       0
 node=   769 local x,y,z moments=    0.0000E+00    0.0000E+00    0.0000E+00  setid=       0
 node=   770 local x,y,z forces =    0.0000E+00    0.0000E+00    0.0000E+00  setid=       0
 node=   770 local x,y,z moments=    0.0000E+00    0.0000E+00    0.0000E+00  setid=       0
 node=   780 local x,y,z forces =    0.0000E+00    0.0000E+00    0.0000E+00  setid=       0
 node=   780 local x,y,z moments=    0.0000E+00    0.0000E+00    0.0000E+00  setid=       0
 node=   781 local x,y,z forces =    0.0000E+00    0.0000E+00    0.0000E+00  setid=       0
 node=   781 local x,y,z moments=    0.0000E+00    0.0000E+00    0.0000E+00  setid=       0
 node=   782 local x,y,z forces =    0.0000E+00    0.0000E+00    0.0000E+00  setid=       0
 node=   782 local x,y,z moments=    0.0000E+00    0.0000E+00    0.0000E+00  setid=       0
 node=   795 local x,y,z forces =    0.0000E+00    0.0000E+00    0.0000E+00  setid=       0
 node=   795 local x,y,z moments=    0.0000E+00    0.0000E+00    0.0000E+00  setid=       0
 node=   796 local x,y,z forces =    0.0000E+00    0.0000E+00    0.0000E+00  setid=       0
 node=   796 local x,y,z moments=    0.0000E+00    0.0000E+00    0.0000E+00  setid=       0
 node=   797 local x,y,z forces =    0.0000E+00    0.0000E+00    0.0000E+00  setid=       0
 node=   797 local x,y,z moments=    0.0000E+00    0.0000E+00    0.0000E+00  setid=       0
 node=   798 local x,y,z forces =    0.0000E+00    0.0000E+00    0.0000E+00  setid=       0
 node=   798 local x,y,z moments=    0.0000E+00    0.0000E+00    0.0000E+00  setid=       0
 node=   802 local x,y,z forces =    0.0000E+00    0.0000E+00    0.0000E+00  setid=       0
 node=   802 local x,y,z moments=    0.0000E+00    0.0000E+00    0.0000E+00  setid=       0
 node=   809 local x,y,z forces =    0.0000E+00    0.0000E+00    0.0000E+00  setid=       0
 node=   809 local x,y,z moments=    0.0000E+00    0.0000E+00    0.0000E+00  setid=       0
 node=   810 local x,y,z forces =    0.0000E+00    0.0000E+00    0.0000E+00  setid=       0
 node=   810 local x,y,z moments=    0.0000E+00    0.0000E+00    0.0000E+00  setid=       0
 node=   814 local x,y,z forces =    0.0000E+00    0.0000E+00    0.0000E+00  setid=       0
 node=   814 local x,y,z moments=    0.0000E+00    0.0000E+00    0.0000E+00  setid=       0
 node=   824 local x,y,z forces =    0.0000E+00    0.0000E+00    0.0000E+00  setid=       0
 node=   824 local x,y,z moments=    0.0000E+00    0.0000E+00    0.0000E+00  setid=       0
 node=   825 local x,y,z forces =    0.0000E+00    0.0000E+00    0.0000E+00  setid=       0
 node=   825 local x,y,z moments=    0.0000E+00    0.0000E+00    0.0000E+00  setid=       0
 node=   826 local x,y,z forces =    0.0000E+00    0.0000E+00    0.0000E+00  setid=       0
 node=   826 local x,y,z moments=    0.0000E+00    0.0000E+00    0.0000E+00  setid=       0
 node=   833 local x,y,z forces =    0.0000E+00    0.0000E+00    0.0000E+00  setid=       0
 node=   833 local x,y,z moments=    0.0000E+00    0.0000E+00    0.0000E+00  setid=       0
 node=   834 local x,y,z forces =    0.0000E+00    0.0000E+00    0.0000E+00  setid=       0
 node=   834 local x,y,z moments=    0.0000E+00    0.0000E+00    0.0000E+00  setid=       0
 node=   838 local x,y,z forces =    0.0000E+00    0.0000E+00    0.0000E+00  setid=       0
 node=   838 local x,y,z moments=    0.0000E+00    0.0000E+00    0.0000E+00  setid=       0
 node=   842 local x,y,z forces =    0.0000E+00    0.0000E+00    0.0000E+00  setid=       0
 node=   842 local x,y,z moments=    0.0000E+00    0.0000E+00    0.0000E+00  setid=       0
 node=   849 local x,y,z forces =    0.0000E+00    0.0000E+00    0.0000E+00  setid=       0
 node=   849 local x,y,z moments=    0.0000E+00    0.0000E+00    0.0000E+00  setid=       0
 node=   850 local x,y,z forces =    0.0000E+00    0.0000E+00    0.0000E+00  setid=       0
 node=   850 local x,y,z moments=    0.0000E+00    0.0000E+00    0.0000E+00  setid=       0
 node=   857 local x,y,z forces =    0.0000E+00    0.0000E+00    0.0000E+00  setid=       0
 node=   857 local x,y,z moments=    0.0000E+00    0.0000E+00    0.0000E+00  setid=       0
 node=   858 local x,y,z forces =    0.0000E+00    0.0000E+00    0.0000E+00  setid=       0
 node=   858 local x,y,z moments=    0.0000E+00    0.0000E+00    0.0000E+00  setid=       0
 node=   862 local x,y,z forces =    0.0000E+00    0.0000E+00    0.0000E+00  setid=       0
 node=   862 local x,y,z moments=    0.0000E+00    0.0000E+00    0.0000E+00  setid=       0
 node=   869 local x,y,z forces =    0.0000E+00    0.0000E+00    0.0000E+00  setid=       0
 node=   869 local x,y,z moments=    0.0000E+00    0.0000E+00    0.0000E+00  setid=       0
 node=   870 local x,y,z forces =    0.0000E+00    0.0000E+00    0.0000E+00  setid=       0
 node=   870 local x,y,z moments=    0.0000E+00    0.0000E+00    0.0000E+00  setid=       0
 node=   874 local x,y,z forces =    0.0000E+00    0.0000E+00    0.0000E+00  setid=       0
 node=   874 local x,y,z moments=    0.0000E+00    0.0000E+00    0.0000E+00  setid=       0
 node=   878 local x,y,z forces =    0.0000E+00    0.0000E+00    0.0000E+00  setid=       0
 node=   878 local x,y,z moments=    0.0000E+00    0.0000E+00    0.0000E+00  setid=       0
 node=   885 local x,y,z forces =    0.0000E+00    0.0000E+00    0.0000E+00  setid=       0
 node=   885 local x,y,z moments=    0.0000E+00    0.0000E+00    0.0000E+00  setid=       0
 node=   886 local x,y,z forces =    0.0000E+00    0.0000E+00    0.0000E+00  setid=       0
 node=   886 local x,y,z moments=    0.0000E+00    0.0000E+00    0.0000E+00  setid=       0
 node=   890 local x,y,z forces =    0.0000E+00    0.0000E+00    0.0000E+00  setid=       0
 node=   890 local x,y,z moments=    0.0000E+00    0.0000E+00    0.0000E+00  setid=       0
             force resultants   =    0.0000E+00    0.0000E+00    0.0000E+00
 output at time =   5.00000E-01
 node=     1 local x,y,z forces =    0.0000E+00    1.8076E+00    1.5699E+01  setid=       0
 node=     1 local x,y,z moments=    2.7646E-03    2.3017E-03   -2.9577E-04  setid=       0
 node=     2 local x,y,z forces =    0.0000E+00    3.6774E+00    2.1979E+01  setid=       0
 node=     2 local x,y,z moments=    2.7031E-03    4.5381E-05    9.3829E-06  setid=       0
 node=     3 local x,y,z forces =    0.0000E+00    4.0650E+00    1.4981E+01  setid=       0
 node=     3 local x,y,z moments=    1.0173E-03    3.0370E-05    1.0070E-05  setid=       0
 node=     4 local x,y,z forces =    0.0000E+00    4.2254E+00    1.4243E+01  setid=       0
 node=     4 local x,y,z moments=    1.0891E-03    1.1820E-04    3.9500E-06  setid=       0
 node=     5 local x,y,z forces =    2.0909E+00    2.1518E+00    7.1509E+00  setid=       0
 node=     5 local x,y,z moments=    5.5982E-04   -5.6770E-04    7.3440E-06  setid=       0
 node=     6 local x,y,z forces =    4.1211E+00    0.0000E+00    1.3868E+01  setid=       0
 node=     6 local x,y,z moments=   -6.0417E-05   -1.0071E-03   -9.8198E-06  setid=       0
 node=     7 local x,y,z forces =    3.9204E+00    0.0000E+00    1.4466E+01  setid=       0
 node=     7 local x,y,z moments=    8.1880E-05   -9.2094E-04   -2.1144E-05  setid=       0
 node=     8 local x,y,z forces =    3.5216E+00    0.0000E+00    2.1696E+01  setid=       0
 node=     8 local x,y,z moments=    1.1472E-04   -2.7284E-03   -3.9418E-05  setid=       0
 node=     9 local x,y,z forces =    1.8639E+00    0.0000E+00    1.4643E+01  setid=       0
 node=     9 local x,y,z moments=   -2.0383E-03   -2.6293E-03    2.4512E-04  setid=       0
 node=    10 local x,y,z forces =    0.0000E+00    0.0000E+00    2.8737E+01  setid=       0
 node=    10 local x,y,z moments=   -3.5824E-03    1.8107E-03    0.0000E+00  setid=       0
 node=    11 local x,y,z forces =    0.0000E+00    0.0000E+00    2.6635E+01  setid=       0
 node=    11 local x,y,z moments=   -2.0356E-03    2.4267E-03    0.0000E+00  setid=       0
 node=    12 local x,y,z forces =    0.0000E+00    0.0000E+00    3.0121E+01  setid=       0
 node=    12 local x,y,z moments=   -1.3953E-03    4.0625E-03    0.0000E+00  setid=       0
 node=    13 local x,y,z forces =    0.0000E+00    0.0000E+00    1.7986E+01  setid=       0
 node=    13 local x,y,z moments=    3.7252E-05   -2.2152E-04    0.0000E+00  setid=       0
 node=    14 local x,y,z forces =    0.0000E+00    0.0000E+00    2.7173E+01  setid=       0
 node=    14 local x,y,z moments=    3.4752E-04   -1.7010E-04    0.0000E+00  setid=       0
 node=    15 local x,y,z forces =    0.0000E+00    0.0000E+00    2.6563E+01  setid=       0
 node=    15 local x,y,z moments=    2.3686E-04   -6.4498E-04    0.0000E+00  setid=       0
 node=    16 local x,y,z forces =    0.0000E+00    0.0000E+00    2.6668E+01  setid=       0
 node=    16 local x,y,z moments=   -4.5063E-04    2.2667E-04    0.0000E+00  setid=       0
 node=    17 local x,y,z forces =    0.0000E+00    0.0000E+00    3.7772E+01  setid=       0
 node=    17 local x,y,z moments=   -1.1289E-04   -4.8438E-04    0.0000E+00  setid=       0
 node=    18 local x,y,z forces =    0.0000E+00    0.0000E+00    4.1465E+01  setid=       0
 node=    18 local x,y,z moments=    1.0048E-03   -3.1005E-04    0.0000E+00  setid=       0
 node=    19 local x,y,z forces =    0.0000E+00    0.0000E+00    4.1843E+01  setid=       0
 node=    19 local x,y,z moments=   -3.7897E-04   -1.4816E-03    0.0000E+00  setid=       0
 node=    51 local x,y,z forces =    8.0652E+00    0.0000E+00    0.0000E+00  setid=       0
 node=    51 local x,y,z moments=    0.0000E+00   -1.4180E-05   -1.2436E-05  setid=       0
 node=    52 local x,y,z forces =    4.0933E+00    4.2017E+00    0.0000E+00  setid=       0
 node=    52 local x,y,z moments=   -8.2263E-06    5.1062E-06    1.5581E-05  setid=       0
 node=    53 local x,y,z forces =    0.0000E+00    8.2609E+00    0.0000E+00  setid=       0
 node=    53 local x,y,z moments=   -2.1487E-05    0.0000E+00    9.0810E-06  setid=       0
 node=    55 local x,y,z forces =    7.2549E+00    0.0000E+00    0.0000E+00  setid=       0
 node=    55 local x,y,z moments=    0.0000E+00   -7.1793E-05    1.9441E-05  setid=       0
 node=    56 local x,y,z forces =    3.6978E+00    3.8015E+00    0.0000E+00  setid=       0
 node=    56 local x,y,z moments=    1.3039E-05   -1.2228E-05    2.2766E-05  setid=       0
 node=    57 local x,y,z forces =    0.0000E+00    7.5127E+00    0.0000E+00  setid=       0
 node=    57 local x,y,z moments=   -1.5622E-05    0.0000E+00    1.0793E-05  setid=       0
 node=    59 local x,y,z forces =    5.7586E+00    0.0000E+00    0.0000E+00  setid=       0
 node=    59 local x,y,z moments=    0.0000E+00   -1.1517E-04   -3.2127E-05  setid=       0
 node=    60 local x,y,z forces =    2.7914E+00    2.8428E+00    0.0000E+00  setid=       0
 node=    60 local x,y,z moments=    1.2131E-04   -9.0148E-05    2.8326E-05  setid=       0
 node=    61 local x,y,z forces =    0.0000E+00    5.7551E+00    0.0000E+00  setid=       0
 node=    61 local x,y,z moments=    1.5079E-04    0.0000E+00    1.9433E-05  setid=       0
 node=    63 local x,y,z forces =    4.4860E+00    0.0000E+00    0.0000E+00  setid=       0
 node=    63 local x,y,z moments=    0.0000E+00    1.3048E-04   -5.5714E-05  setid=       0
 node=    64 local x,y,z forces =    2.1063E+00    2.0704E+00    0.0000E+00  setid=       0
 node=    64 local x,y,z moments=   -1.1499E-04    1.8143E-04    2.3222E-06  setid=       0
 node=    65 local x,y,z forces =    0.0000E+00    4.0899E+00    0.0000E+00  setid=       0
 node=    65 local x,y,z moments=   -1.4819E-04    0.0000E+00    4.2921E-05  setid=       0
 node=    67 local x,y,z forces =    4.4966E+00    0.0000E+00    0.0000E+00  setid=       0
 node=    67 local x,y,z moments=    0.0000E+00    1.0563E-03    6.4653E-05  setid=       0
 node=    68 local x,y,z forces =    2.2698E+00    2.2136E+00    0.0000E+00  setid=       0
 node=    68 local x,y,z moments=   -6.7589E-04    7.9835E-04   -1.2310E-05  setid=       0
 node=    69 local x,y,z forces =    0.0000E+00    4.2335E+00    0.0000E+00  setid=       0
 node=    69 local x,y,z moments=   -1.1052E-03    0.0000E+00   -6.4727E-05  setid=       0
 node=    85 local x,y,z forces =    0.0000E+00    7.6727E+00    0.0000E+00  setid=       0
 node=    85 local x,y,z moments=   -1.8551E-04    0.0000E+00    6.1481E-05  setid=       0
 node=    86 local x,y,z forces =    0.0000E+00    3.4321E+00    0.0000E+00  setid=       0
 node=    86 local x,y,z moments=    9.2469E-05    0.0000E+00   -5.6235E-04  setid=       0
 node=    87 local x,y,z forces =    0.0000E+00    7.9831E+00    0.0000E+00  setid=       0
 node=    87 local x,y,z moments=   -3.6848E-04    0.0000E+00    1.4967E-04  setid=       0
 node=    88 local x,y,z forces =    0.0000E+00    3.0082E+00    0.0000E+00  setid=       0
 node=    88 local x,y,z moments=    7.5138E-05    0.0000E+00   -4.8311E-04  setid=       0
 node=    89 local x,y,z forces =    0.0000E+00    7.3812E+00    0.0000E+00  setid=       0
 node=    89 local x,y,z moments=   -4.1183E-04    0.0000E+00    1.7504E-04  setid=       0
 node=    90 local x,y,z forces =    0.0000E+00    2.5580E+00    0.0000E+00  setid=       0
 node=    90 local x,y,z moments=    5.1388E-05    0.0000E+00   -4.0584E-04  setid=       0
 node=    91 local x,y,z forces =    0.0000E+00    5.6669E+00    0.0000E+00  setid=       0
 node=    91 local x,y,z moments=   -3.3044E-04    0.0000E+00    3.6175E-05  setid=       0
 node=    92 local x,y,z forces =    0.0000E+00    1.8732E+00    0.0000E+00  setid=       0
 node=    92 local x,y,z moments=    9.2561E-05    0.0000E+00   -3.2924E-04  setid=       0
 node=    93 local x,y,z forces =    0.0000E+00    5.1632E+00    0.0000E+00  setid=       0
 node=    93 local x,y,z moments=   -1.1958E-03    0.0000E+00   -2.1362E-04  setid=       0
 node=    94 local x,y,z forces =    0.0000E+00    1.8933E+00    0.0000E+00  setid=       0
 node=    94 local x,y,z moments=   -6.6406E-04    0.0000E+00   -1.1889E-04  setid=       0
 node=    95 local x,y,z forces =    7.7497E+00    0.0000E+00    0.0000E+00  setid=       0
 node=    95 local x,y,z moments=    0.0000E+00   -1.2215E-04   -3.5117E-05  setid=       0
 node=    96 local x,y,z forces =    7.0373E+00    0.0000E+00    0.0000E+00  setid=       0
 node=    96 local x,y,z moments=    0.0000E+00   -2.7645E-04    8.2034E-06  setid=       0
 node=    97 local x,y,z forces =    6.0679E+00    0.0000E+00    0.0000E+00  setid=       0
 node=    97 local x,y,z moments=    0.0000E+00   -2.4091E-04   -9.9232E-05  setid=       0
 node=    98 local x,y,z forces =    4.9571E+00    0.0000E+00    0.0000E+00  setid=       0
 node=    98 local x,y,z moments=    0.0000E+00   -2.5758E-04   -7.0977E-05  setid=       0
 node=    99 local x,y,z forces =    4.8298E+00    0.0000E+00    0.0000E+00  setid=       0
 node=    99 local x,y,z moments=    0.0000E+00    2.5343E-04    8.9126E-05  setid=       0
 node=   100 local x,y,z forces =    7.2108E+00    0.0000E+00    0.0000E+00  setid=       0
 node=   100 local x,y,z moments=    0.0000E+00   -1.9289E-04   -5.2507E-05  setid=       0
 node=   101 local x,y,z forces =    6.9237E+00    0.0000E+00    0.0000E+00  setid=       0
 node=   101 local x,y,z moments=    0.0000E+00   -3.4979E-04    1.9469E-05  setid=       0
 node=   102 local x,y,z forces =    6.7034E+00    0.0000E+00    0.0000E+00  setid=       0
 node=   102 local x,y,z moments=    0.0000E+00   -9.3832E-05   -1.9256E-04  setid=       0
 node=   103 local x,y,z forces =    5.4585E+00    0.0000E+00    0.0000E+00  setid=       0
 node=   103 local x,y,z moments=    0.0000E+00   -1.7896E-04    1.4558E-05  setid=       0
 node=   104 local x,y,z forces =    5.1284E+00    0.0000E+00    0.0000E+00  setid=       0
 node=   104 local x,y,z moments=    0.0000E+00    4.9688E-04    1.1976E-04  setid=       0
 node=   105 local x,y,z forces =    0.0000E+00    8.0312E+00    0.0000E+00  setid=       0
 node=   105 local x,y,z moments=   -4.4631E-05    0.0000E+00    3.4022E-05  setid=       0
 node=   106 local x,y,z forces =    0.0000E+00    7.4922E+00    0.0000E+00  setid=       0
 node=   106 local x,y,z moments=   -6.0853E-05    0.0000E+00    6.2265E-05  setid=       0
 node=   107 local x,y,z forces =    0.0000E+00    6.1069E+00    0.0000E+00  setid=       0
 node=   107 local x,y,z moments=    3.8861E-05    0.0000E+00    7.9191E-05  setid=       0
 node=   108 local x,y,z forces =    0.0000E+00    4.5446E+00    0.0000E+00  setid=       0
 node=   108 local x,y,z moments=   -1.5953E-04    0.0000E+00    1.0279E-04  setid=       0
 node=   109 local x,y,z forces =    0.0000E+00    4.4965E+00    0.0000E+00  setid=       0
 node=   109 local x,y,z moments=   -1.0643E-03    0.0000E+00   -1.0089E-04  setid=       0
 node=   110 local x,y,z forces =    3.8122E+00    0.0000E+00    0.0000E+00  setid=       0
 node=   110 local x,y,z moments=    0.0000E+00    1.6205E-04    5.3209E-04  setid=       0
 node=   111 local x,y,z forces =    3.7341E+00    0.0000E+00    0.0000E+00  setid=       0
 node=   111 local x,y,z moments=    0.0000E+00    3.0800E-04    5.7700E-04  setid=       0
 node=   112 local x,y,z forces =    3.2656E+00    0.0000E+00    0.0000E+00  setid=       0
 node=   112 local x,y,z moments=    0.0000E+00    3.6736E-04    5.4498E-04  setid=       0
 node=   113 local x,y,z forces =    1.9504E+00    0.0000E+00    0.0000E+00  setid=       0
 node=   113 local x,y,z moments=    0.0000E+00    2.1581E-04    3.9813E-04  setid=       0
 node=   114 local x,y,z forces =    2.4759E+00    0.0000E+00    0.0000E+00  setid=       0
 node=   114 local x,y,z moments=    0.0000E+00    5.7512E-04    1.9956E-05  setid=       0
 node=   199 local x,y,z forces =    0.0000E+00    2.9848E+00    0.0000E+00  setid=       0
 node=   199 local x,y,z moments=    2.8115E-05    0.0000E+00    1.5209E-05  setid=       0
 node=   200 local x,y,z forces =    0.0000E+00    2.5473E+00    0.0000E+00  setid=       0
 node=   200 local x,y,z moments=   -1.0412E-05    0.0000E+00    1.1221E-05  setid=       0
 node=   201 local x,y,z forces =    0.0000E+00   -3.7912E-02    0.0000E+00  setid=       0
 node=   201 local x,y,z moments=   -1.1919E-04    0.0000E+00    3.1362E-05  setid=       0
 node=   202 local x,y,z forces =    0.0000E+00   -1.0770E-01    0.0000E+00  setid=       0
 node=   202 local x,y,z moments=   -1.4456E-04    0.0000E+00    2.4819E-05  setid=       0
 node=   203 local x,y,z forces =    0.0000E+00   -1.4859E+00    0.0000E+00  setid=       0
 node=   203 local x,y,z moments=   -1.6211E-04    0.0000E+00    2.8041E-05  setid=       0
 node=   204 local x,y,z forces =    0.0000E+00   -1.4284E+00    0.0000E+00  setid=       0
 node=   204 local x,y,z moments=   -1.5820E-04    0.0000E+00    3.1348E-05  setid=       0
 node=   205 local x,y,z forces =    0.0000E+00   -2.1056E+00    0.0000E+00  setid=       0
 node=   205 local x,y,z moments=   -1.6583E-04    0.0000E+00    2.3718E-05  setid=       0
 node=   206 local x,y,z forces =    0.0000E+00   -1.9954E+00    0.0000E+00  setid=       0
 node=   206 local x,y,z moments=   -1.4589E-04    0.0000E+00    2.4676E-05  setid=       0
 node=   207 local x,y,z forces =    0.0000E+00   -2.2867E+00    0.0000E+00  setid=       0
 node=   207 local x,y,z moments=   -1.5421E-04    0.0000E+00    1.7800E-05  setid=       0
 node=   208 local x,y,z forces =    0.0000E+00   -2.1674E+00    0.0000E+00  setid=       0
 node=   208 local x,y,z moments=   -1.2352E-04    0.0000E+00    1.7355E-05  setid=       0
 node=   209 local x,y,z forces =    0.0000E+00   -2.2317E+00    0.0000E+00  setid=       0
 node=   209 local x,y,z moments=   -1.3849E-04    0.0000E+00    1.2959E-05  setid=       0
 node=   210 local x,y,z forces =    0.0000E+00   -2.1178E+00    0.0000E+00  setid=       0
 node=   210 local x,y,z moments=   -9.9139E-05    0.0000E+00    1.1778E-05  setid=       0
 node=   211 local x,y,z forces =    0.0000E+00   -2.0487E+00    0.0000E+00  setid=       0
 node=   211 local x,y,z moments=   -1.2207E-04    0.0000E+00    9.2303E-06  setid=       0
 node=   212 local x,y,z forces =    0.0000E+00   -1.9457E+00    0.0000E+00  setid=       0
 node=   212 local x,y,z moments=   -7.4575E-05    0.0000E+00    7.7916E-06  setid=       0
 node=   213 local x,y,z forces =    0.0000E+00   -1.7967E+00    0.0000E+00  setid=       0
 node=   213 local x,y,z moments=   -1.0699E-04    0.0000E+00    6.0263E-06  setid=       0
 node=   214 local x,y,z forces =    0.0000E+00   -1.7098E+00    0.0000E+00  setid=       0
 node=   214 local x,y,z moments=   -5.1620E-05    0.0000E+00    4.5464E-06  setid=       0
 node=   215 local x,y,z forces =    0.0000E+00   -1.5039E+00    0.0000E+00  setid=       0
 node=   215 local x,y,z moments=   -9.4302E-05    0.0000E+00    2.7176E-06  setid=       0
 node=   216 local x,y,z forces =    0.0000E+00   -1.4397E+00    0.0000E+00  setid=       0
 node=   216 local x,y,z moments=   -3.1596E-05    0.0000E+00    1.1823E-06  setid=       0
 node=   217 local x,y,z forces =    0.0000E+00   -1.1760E+00    0.0000E+00  setid=       0
 node=   217 local x,y,z moments=   -8.4939E-05    0.0000E+00   -8.7941E-07  setid=       0
 node=   218 local x,y,z forces =    0.0000E+00   -1.1418E+00    0.0000E+00  setid=       0
 node=   218 local x,y,z moments=   -1.6019E-05    0.0000E+00   -2.7530E-06  setid=       0
 node=   219 local x,y,z forces =    0.0000E+00   -8.1026E-01    0.0000E+00  setid=       0
 node=   219 local x,y,z moments=   -7.8382E-05    0.0000E+00   -3.1603E-06  setid=       0
 node=   220 local x,y,z forces =    0.0000E+00   -8.0832E-01    0.0000E+00  setid=       0
 node=   220 local x,y,z moments=   -5.8197E-06    0.0000E+00   -6.4514E-06  setid=       0
 node=   221 local x,y,z forces =    0.0000E+00   -4.1752E-01    0.0000E+00  setid=       0
 node=   221 local x,y,z moments=   -7.2009E-05    0.0000E+00   -8.2098E-09  setid=       0
 node=   222 local x,y,z forces =    0.0000E+00   -4.3395E-01    0.0000E+00  setid=       0
 node=   222 local x,y,z moments=    1.7931E-06    0.0000E+00   -6.3407E-06  setid=       0
 node=   223 local x,y,z forces =    0.0000E+00    1.6141E-01    0.0000E+00  setid=       0
 node=   223 local x,y,z moments=   -1.0249E-04    0.0000E+00    5.6755E-07  setid=       0
 node=   224 local x,y,z forces =    0.0000E+00   -1.7578E-02    0.0000E+00  setid=       0
 node=   224 local x,y,z moments=   -5.9242E-06    0.0000E+00    1.2625E-05  setid=       0
 node=   225 local x,y,z forces =    0.0000E+00    1.0138E+00    0.0000E+00  setid=       0
 node=   225 local x,y,z moments=   -9.0173E-04    0.0000E+00   -1.6323E-06  setid=       0
 node=   226 local x,y,z forces =    0.0000E+00    1.2084E+00    0.0000E+00  setid=       0
 node=   226 local x,y,z moments=   -1.3016E-03    0.0000E+00    3.2802E-05  setid=       0
 node=   227 local x,y,z forces =    0.0000E+00    3.0448E+00    0.0000E+00  setid=       0
 node=   227 local x,y,z moments=    2.3950E-05    0.0000E+00   -1.6653E-06  setid=       0
 node=   229 local x,y,z forces =    3.1751E+00    0.0000E+00    0.0000E+00  setid=       0
 node=   229 local x,y,z moments=    0.0000E+00    8.1476E-05    7.3209E-06  setid=       0
 node=   230 local x,y,z forces =    1.6670E+00    1.5712E+00    0.0000E+00  setid=       0
 node=   230 local x,y,z moments=   -7.0318E-05    3.4162E-04   -1.9096E-05  setid=       0
 node=   231 local x,y,z forces =    0.0000E+00   -1.4893E-03    0.0000E+00  setid=       0
 node=   231 local x,y,z moments=   -1.0336E-04    0.0000E+00    3.9884E-06  setid=       0
 node=   233 local x,y,z forces =    1.1066E-01    0.0000E+00    0.0000E+00  setid=       0
 node=   233 local x,y,z moments=    0.0000E+00    2.0236E-04    4.7192E-06  setid=       0
 node=   234 local x,y,z forces =    1.2432E-01    4.2867E-02    0.0000E+00  setid=       0
 node=   234 local x,y,z moments=   -1.2868E-04    3.8115E-04   -1.8255E-05  setid=       0
 node=   235 local x,y,z forces =    0.0000E+00   -1.4917E+00    0.0000E+00  setid=       0
 node=   235 local x,y,z moments=   -1.3392E-04    0.0000E+00    5.3469E-06  setid=       0
 node=   237 local x,y,z forces =   -1.4258E+00    0.0000E+00    0.0000E+00  setid=       0
 node=   237 local x,y,z moments=    0.0000E+00    2.9665E-04   -6.8264E-07  setid=       0
 node=   238 local x,y,z forces =   -6.6612E-01   -7.0954E-01    0.0000E+00  setid=       0
 node=   238 local x,y,z moments=   -1.4103E-04    4.2187E-04   -1.1367E-05  setid=       0
 node=   239 local x,y,z forces =    0.0000E+00   -2.1320E+00    0.0000E+00  setid=       0
 node=   239 local x,y,z moments=   -1.2448E-04    0.0000E+00    4.7241E-06  setid=       0
 node=   241 local x,y,z forces =   -2.0938E+00    0.0000E+00    0.0000E+00  setid=       0
 node=   241 local x,y,z moments=    0.0000E+00    3.5719E-04   -2.9350E-06  setid=       0
 node=   242 local x,y,z forces =   -1.0171E+00   -1.0438E+00    0.0000E+00  setid=       0
 node=   242 local x,y,z moments=   -1.3362E-04    4.5070E-04   -7.7608E-06  setid=       0
 node=   243 local x,y,z forces =    0.0000E+00   -2.3207E+00    0.0000E+00  setid=       0
 node=   243 local x,y,z moments=   -1.0282E-04    0.0000E+00    4.3250E-06  setid=       0
 node=   245 local x,y,z forces =   -2.2933E+00    0.0000E+00    0.0000E+00  setid=       0
 node=   245 local x,y,z moments=    0.0000E+00    3.9618E-04   -3.2503E-06  setid=       0
 node=   246 local x,y,z forces =   -1.1268E+00   -1.1513E+00    0.0000E+00  setid=       0
 node=   246 local x,y,z moments=   -1.1999E-04    4.7118E-04   -6.6218E-06  setid=       0
 node=   247 local x,y,z forces =    0.0000E+00   -2.2669E+00    0.0000E+00  setid=       0
 node=   247 local x,y,z moments=   -7.9420E-05    0.0000E+00    3.4170E-06  setid=       0
 node=   249 local x,y,z forces =   -2.2387E+00    0.0000E+00    0.0000E+00  setid=       0
 node=   249 local x,y,z moments=    0.0000E+00    4.2245E-04   -2.8349E-06  setid=       0
 node=   250 local x,y,z forces =   -1.1048E+00   -1.1316E+00    0.0000E+00  setid=       0
 node=   250 local x,y,z moments=   -1.0543E-04    4.8715E-04   -6.4906E-06  setid=       0
 node=   251 local x,y,z forces =    0.0000E+00   -2.0812E+00    0.0000E+00  setid=       0
 node=   251 local x,y,z moments=   -5.7546E-05    0.0000E+00    2.4143E-06  setid=       0
 node=   253 local x,y,z forces =   -2.0478E+00    0.0000E+00    0.0000E+00  setid=       0
 node=   253 local x,y,z moments=    0.0000E+00    4.4043E-04   -2.2972E-06  setid=       0
 node=   254 local x,y,z forces =   -1.0120E+00   -1.0425E+00    0.0000E+00  setid=       0
 node=   254 local x,y,z moments=   -9.1938E-05    5.0106E-04   -6.7894E-06  setid=       0
 node=   255 local x,y,z forces =    0.0000E+00   -1.8225E+00    0.0000E+00  setid=       0
 node=   255 local x,y,z moments=   -3.9039E-05    0.0000E+00    1.2822E-06  setid=       0
 node=   257 local x,y,z forces =   -1.7811E+00    0.0000E+00    0.0000E+00  setid=       0
 node=   257 local x,y,z moments=    0.0000E+00    4.5294E-04   -1.6896E-06  setid=       0
 node=   258 local x,y,z forces =   -8.7992E-01   -9.1495E-01    0.0000E+00  setid=       0
 node=   258 local x,y,z moments=   -8.0482E-05    5.1424E-04   -7.3785E-06  setid=       0
 node=   259 local x,y,z forces =    0.0000E+00   -1.5180E+00    0.0000E+00  setid=       0
 node=   259 local x,y,z moments=   -2.4733E-05    0.0000E+00   -6.2711E-08  setid=       0
 node=   261 local x,y,z forces =   -1.4645E+00    0.0000E+00    0.0000E+00  setid=       0
 node=   261 local x,y,z moments=    0.0000E+00    4.6165E-04   -1.0236E-06  setid=       0
 node=   262 local x,y,z forces =   -7.2236E-01   -7.6365E-01    0.0000E+00  setid=       0
 node=   262 local x,y,z moments=   -7.1378E-05    5.2686E-04   -8.4885E-06  setid=       0
 node=   263 local x,y,z forces =    0.0000E+00   -1.1759E+00    0.0000E+00  setid=       0
 node=   263 local x,y,z moments=   -1.5285E-05    0.0000E+00   -1.3693E-06  setid=       0
 node=   265 local x,y,z forces =   -1.1008E+00    0.0000E+00    0.0000E+00  setid=       0
 node=   265 local x,y,z moments=    0.0000E+00    4.6808E-04   -5.2762E-07  setid=       0
 node=   266 local x,y,z forces =   -5.4211E-01   -5.9433E-01    0.0000E+00  setid=       0
 node=   266 local x,y,z moments=   -6.4620E-05    5.3808E-04   -1.0781E-05  setid=       0
 node=   267 local x,y,z forces =    0.0000E+00   -8.0777E-01    0.0000E+00  setid=       0
 node=   267 local x,y,z moments=   -7.4740E-06    0.0000E+00   -1.3682E-06  setid=       0
[...]
 node=   603 local x,y,z forces =    0.0000E+00   -1.3302E+01    0.0000E+00  setid=       0
 node=   603 local x,y,z moments=   -5.1322E-03    0.0000E+00    1.2338E-03  setid=       0
 node=   604 local x,y,z forces =    0.0000E+00   -1.7170E+01    0.0000E+00  setid=       0
 node=   604 local x,y,z moments=   -4.4830E-03    0.0000E+00    7.1859E-04  setid=       0
 node=   605 local x,y,z forces =    0.0000E+00   -2.2250E+01    0.0000E+00  setid=       0
 node=   605 local x,y,z moments=   -5.4680E-03    0.0000E+00   -1.9295E-04  setid=       0
 node=   606 local x,y,z forces =    0.0000E+00   -2.9529E+01    0.0000E+00  setid=       0
 node=   606 local x,y,z moments=   -4.8930E-03    0.0000E+00   -1.0657E-03  setid=       0
 node=   607 local x,y,z forces =    0.0000E+00   -3.3217E+01    0.0000E+00  setid=       0
 node=   607 local x,y,z moments=   -4.7457E-03    0.0000E+00   -5.6504E-03  setid=       0
 node=   608 local x,y,z forces =    0.0000E+00    7.8631E+01    0.0000E+00  setid=       0
 node=   608 local x,y,z moments=    4.3893E-02    0.0000E+00   -4.0051E-02  setid=       0
 node=   609 local x,y,z forces =    0.0000E+00    1.4377E+02    0.0000E+00  setid=       0
 node=   609 local x,y,z moments=    1.1217E-02    0.0000E+00    1.7053E-03  setid=       0
 node=   610 local x,y,z forces =    0.0000E+00    1.1140E+02    0.0000E+00  setid=       0
 node=   610 local x,y,z moments=   -4.3257E-03    0.0000E+00    2.5707E-03  setid=       0
 node=   611 local x,y,z forces =    0.0000E+00    8.4184E+01    0.0000E+00  setid=       0
 node=   611 local x,y,z moments=   -9.2692E-03    0.0000E+00    3.4667E-03  setid=       0
 node=   612 local x,y,z forces =    0.0000E+00   -1.2532E+01    0.0000E+00  setid=       0
 node=   612 local x,y,z moments=   -4.2293E-03    0.0000E+00    3.8974E-03  setid=       0
 node=   613 local x,y,z forces =    0.0000E+00   -1.3542E+01    0.0000E+00  setid=       0
 node=   613 local x,y,z moments=   -3.4985E-03    0.0000E+00    1.2445E-03  setid=       0
 node=   614 local x,y,z forces =    0.0000E+00   -1.5174E+01    0.0000E+00  setid=       0
 node=   614 local x,y,z moments=   -2.4136E-03    0.0000E+00   -4.3618E-04  setid=       0
 node=   615 local x,y,z forces =    0.0000E+00   -1.9812E+01    0.0000E+00  setid=       0
 node=   615 local x,y,z moments=   -5.5758E-05    0.0000E+00    3.8395E-03  setid=       0
 node=   616 local x,y,z forces =    0.0000E+00   -2.1208E+01    0.0000E+00  setid=       0
 node=   616 local x,y,z moments=   -1.0799E-03    0.0000E+00    2.0367E-03  setid=       0
 node=   617 local x,y,z forces =    0.0000E+00   -2.2703E+01    0.0000E+00  setid=       0
 node=   617 local x,y,z moments=   -1.4435E-03    0.0000E+00    1.2132E-03  setid=       0
 node=   618 local x,y,z forces =    0.0000E+00   -2.2792E+01    0.0000E+00  setid=       0
 node=   618 local x,y,z moments=   -9.4129E-04    0.0000E+00    1.8426E-03  setid=       0
 node=   619 local x,y,z forces =    0.0000E+00   -2.3165E+01    0.0000E+00  setid=       0
 node=   619 local x,y,z moments=   -3.1791E-04    0.0000E+00    1.4425E-03  setid=       0
 node=   620 local x,y,z forces =    0.0000E+00   -2.2081E+01    0.0000E+00  setid=       0
 node=   620 local x,y,z moments=   -3.0822E-04    0.0000E+00    3.3834E-03  setid=       0
 node=   621 local x,y,z forces =    0.0000E+00   -2.3197E+01    0.0000E+00  setid=       0
 node=   621 local x,y,z moments=   -4.6107E-04    0.0000E+00    2.2411E-03  setid=       0
 node=   622 local x,y,z forces =    0.0000E+00   -2.2423E+01    0.0000E+00  setid=       0
 node=   622 local x,y,z moments=   -1.2275E-03    0.0000E+00    1.3495E-03  setid=       0
 node=   623 local x,y,z forces =    0.0000E+00   -2.0602E+01    0.0000E+00  setid=       0
 node=   623 local x,y,z moments=   -3.2352E-03    0.0000E+00    1.2968E-03  setid=       0
 node=   624 local x,y,z forces =    0.0000E+00   -1.4559E+01    0.0000E+00  setid=       0
 node=   624 local x,y,z moments=   -2.9095E-03    0.0000E+00    1.4234E-03  setid=       0
 node=   625 local x,y,z forces =    0.0000E+00   -1.6537E+01    0.0000E+00  setid=       0
 node=   625 local x,y,z moments=   -2.2819E-03    0.0000E+00    1.6562E-03  setid=       0
 node=   626 local x,y,z forces =    0.0000E+00   -1.8879E+01    0.0000E+00  setid=       0
 node=   626 local x,y,z moments=   -2.1394E-03    0.0000E+00    1.8685E-03  setid=       0
 node=   627 local x,y,z forces =    0.0000E+00   -1.4616E+01    0.0000E+00  setid=       0
 node=   627 local x,y,z moments=   -1.6351E-03    0.0000E+00    3.7702E-03  setid=       0
 node=   628 local x,y,z forces =    0.0000E+00   -1.2949E+01    0.0000E+00  setid=       0
 node=   628 local x,y,z moments=   -2.9632E-03    0.0000E+00    3.7294E-03  setid=       0
 node=   629 local x,y,z forces =    0.0000E+00   -1.7090E+01    0.0000E+00  setid=       0
 node=   629 local x,y,z moments=   -9.3384E-04    0.0000E+00    3.9027E-03  setid=       0
 node=   630 local x,y,z forces =    0.0000E+00   -1.9158E+01    0.0000E+00  setid=       0
 node=   630 local x,y,z moments=   -2.1280E-03    0.0000E+00    2.8680E-04  setid=       0
 node=   631 local x,y,z forces =    0.0000E+00   -1.6914E+01    0.0000E+00  setid=       0
 node=   631 local x,y,z moments=   -2.2330E-03    0.0000E+00   -8.2795E-05  setid=       0
 node=   632 local x,y,z forces =    0.0000E+00   -2.1308E+01    0.0000E+00  setid=       0
 node=   632 local x,y,z moments=   -2.3041E-03    0.0000E+00    6.6978E-04  setid=       0
 node=   633 local x,y,z forces =    0.0000E+00   -2.2549E+01    0.0000E+00  setid=       0
 node=   633 local x,y,z moments=   -4.9002E-03    0.0000E+00    6.1120E-03  setid=       0
 node=   634 local x,y,z forces =    0.0000E+00   -2.0499E+01    0.0000E+00  setid=       0
 node=   634 local x,y,z moments=   -2.7287E-03    0.0000E+00    1.6327E-03  setid=       0
 node=   635 local x,y,z forces =    0.0000E+00   -1.8194E+01    0.0000E+00  setid=       0
 node=   635 local x,y,z moments=   -2.1358E-03    0.0000E+00   -9.3106E-04  setid=       0
 node=   636 local x,y,z forces =    0.0000E+00   -1.6439E+01    0.0000E+00  setid=       0
 node=   636 local x,y,z moments=   -4.5014E-03    0.0000E+00    1.3874E-03  setid=       0
 node=   637 local x,y,z forces =    0.0000E+00   -1.4017E+01    0.0000E+00  setid=       0
 node=   637 local x,y,z moments=   -4.2446E-03    0.0000E+00    1.2105E-03  setid=       0
 node=   638 local x,y,z forces =    0.0000E+00   -1.7277E+01    0.0000E+00  setid=       0
 node=   638 local x,y,z moments=   -6.7713E-03    0.0000E+00    5.1176E-03  setid=       0
 node=   639 local x,y,z forces =    0.0000E+00   -1.3815E+01    0.0000E+00  setid=       0
 node=   639 local x,y,z moments=   -5.7732E-03    0.0000E+00    4.3387E-03  setid=       0
 node=   640 local x,y,z forces =    0.0000E+00   -1.5786E+01    0.0000E+00  setid=       0
 node=   640 local x,y,z moments=   -3.0622E-03    0.0000E+00   -9.5389E-04  setid=       0
 node=   641 local x,y,z forces =    0.0000E+00   -1.4637E+01    0.0000E+00  setid=       0
 node=   641 local x,y,z moments=   -2.8633E-03    0.0000E+00   -7.9915E-04  setid=       0
 node=   642 local x,y,z forces =    0.0000E+00   -4.7026E+01    0.0000E+00  setid=       0
 node=   642 local x,y,z moments=    1.5460E-03    0.0000E+00    6.5372E-03  setid=       0
 node=   643 local x,y,z forces =    0.0000E+00   -3.6722E+01    0.0000E+00  setid=       0
 node=   643 local x,y,z moments=   -5.9140E-04    0.0000E+00    4.1657E-03  setid=       0
 node=   644 local x,y,z forces =    0.0000E+00   -2.6636E+01    0.0000E+00  setid=       0
 node=   644 local x,y,z moments=   -1.2277E-03    0.0000E+00    2.3572E-03  setid=       0
 node=   645 local x,y,z forces =    0.0000E+00   -4.3885E+01    0.0000E+00  setid=       0
 node=   645 local x,y,z moments=   -4.3066E-03    0.0000E+00    9.5730E-03  setid=       0
 node=   646 local x,y,z forces =    0.0000E+00   -5.3957E+01    0.0000E+00  setid=       0
 node=   646 local x,y,z moments=   -1.4004E-03    0.0000E+00    1.0299E-02  setid=       0
 node=   647 local x,y,z forces =    0.0000E+00   -3.0821E+01    0.0000E+00  setid=       0
 node=   647 local x,y,z moments=   -5.7514E-03    0.0000E+00    7.3420E-03  setid=       0
 node=   648 local x,y,z forces =    0.0000E+00   -2.9192E+01    0.0000E+00  setid=       0
 node=   648 local x,y,z moments=   -5.1818E-05    0.0000E+00    6.7279E-04  setid=       0
 node=   649 local x,y,z forces =    0.0000E+00   -3.6661E+01    0.0000E+00  setid=       0
 node=   649 local x,y,z moments=    2.9312E-03    0.0000E+00    3.0208E-03  setid=       0
 node=   650 local x,y,z forces =    0.0000E+00   -2.1821E+01    0.0000E+00  setid=       0
 node=   650 local x,y,z moments=    2.9727E-05    0.0000E+00   -5.9678E-04  setid=       0
 node=   657 local x,y,z forces =    3.4497E-01    0.0000E+00    0.0000E+00  setid=       0
 node=   657 local x,y,z moments=    0.0000E+00    2.8734E-03    1.5734E-04  setid=       0
 node=   658 local x,y,z forces =   -1.6320E+01    0.0000E+00    0.0000E+00  setid=       0
 node=   658 local x,y,z moments=    0.0000E+00    8.9506E-03   -2.3847E-03  setid=       0
 node=   671 local x,y,z forces =   -7.5525E+00    0.0000E+00    0.0000E+00  setid=       0
 node=   671 local x,y,z moments=    0.0000E+00    1.5771E-03   -5.1540E-04  setid=       0
 node=   672 local x,y,z forces =   -9.8205E+00    0.0000E+00    0.0000E+00  setid=       0
 node=   672 local x,y,z moments=    0.0000E+00    2.4444E-03   -8.0735E-04  setid=       0
 node=   673 local x,y,z forces =   -6.8422E+00    0.0000E+00    0.0000E+00  setid=       0
 node=   673 local x,y,z moments=    0.0000E+00    2.7845E-03   -9.1653E-04  setid=       0
 node=   674 local x,y,z forces =   -6.6397E+00    0.0000E+00    0.0000E+00  setid=       0
 node=   674 local x,y,z moments=    0.0000E+00    2.3701E-03   -1.1952E-03  setid=       0
 node=   681 local x,y,z forces =   -1.9053E+01    0.0000E+00    0.0000E+00  setid=       0
 node=   681 local x,y,z moments=    0.0000E+00    2.3029E-03   -9.8119E-04  setid=       0
 node=   682 local x,y,z forces =   -1.6396E+01    0.0000E+00    0.0000E+00  setid=       0
 node=   682 local x,y,z moments=    0.0000E+00    1.9071E-03   -9.4021E-04  setid=       0
 node=   695 local x,y,z forces =   -9.4023E+00    0.0000E+00    0.0000E+00  setid=       0
 node=   695 local x,y,z moments=    0.0000E+00   -7.1408E-04    5.1163E-04  setid=       0
 node=   696 local x,y,z forces =   -1.2833E+01    0.0000E+00    0.0000E+00  setid=       0
 node=   696 local x,y,z moments=    0.0000E+00    5.1306E-04   -4.0553E-04  setid=       0
 node=   697 local x,y,z forces =   -1.0005E+01    0.0000E+00    0.0000E+00  setid=       0
 node=   697 local x,y,z moments=    0.0000E+00    4.7904E-04   -3.6947E-04  setid=       0
 node=   698 local x,y,z forces =   -7.1722E+00    0.0000E+00    0.0000E+00  setid=       0
 node=   698 local x,y,z moments=    0.0000E+00   -1.8743E-03    5.5639E-04  setid=       0
 node=   711 local x,y,z forces =   -2.4808E+01    0.0000E+00    0.0000E+00  setid=       0
 node=   711 local x,y,z moments=    0.0000E+00    4.3211E-03   -1.5591E-03  setid=       0
 node=   712 local x,y,z forces =   -2.2503E+01    0.0000E+00    0.0000E+00  setid=       0
 node=   712 local x,y,z moments=    0.0000E+00    4.2293E-03   -7.1714E-04  setid=       0
 node=   713 local x,y,z forces =   -2.4722E+01    0.0000E+00    0.0000E+00  setid=       0
 node=   713 local x,y,z moments=    0.0000E+00    4.5004E-03   -9.4493E-04  setid=       0
 node=   714 local x,y,z forces =   -2.5464E+01    0.0000E+00    0.0000E+00  setid=       0
 node=   714 local x,y,z moments=    0.0000E+00    5.0473E-03   -1.7718E-03  setid=       0
 node=   721 local x,y,z forces =   -2.6134E+01    0.0000E+00    0.0000E+00  setid=       0
 node=   721 local x,y,z moments=    0.0000E+00    5.6554E-03   -1.5727E-03  setid=       0
 node=   722 local x,y,z forces =   -2.4966E+01    0.0000E+00    0.0000E+00  setid=       0
 node=   722 local x,y,z moments=    0.0000E+00    6.7305E-03   -2.2841E-03  setid=       0
 node=   735 local x,y,z forces =   -7.6007E+00    0.0000E+00    0.0000E+00  setid=       0
 node=   735 local x,y,z moments=    0.0000E+00    1.5877E-03   -3.4010E-03  setid=       0
 node=   736 local x,y,z forces =   -1.9429E+01    0.0000E+00    0.0000E+00  setid=       0
 node=   736 local x,y,z moments=    0.0000E+00    3.3124E-03   -5.2989E-04  setid=       0
 node=   737 local x,y,z forces =   -1.6470E+01    0.0000E+00    0.0000E+00  setid=       0
 node=   737 local x,y,z moments=    0.0000E+00    2.6281E-03   -2.9611E-04  setid=       0
 node=   738 local x,y,z forces =   -6.2195E+00    0.0000E+00    0.0000E+00  setid=       0
 node=   738 local x,y,z moments=    0.0000E+00    1.5987E-03   -2.6923E-03  setid=       0
 node=   745 local x,y,z forces =   -9.3076E+00    0.0000E+00    0.0000E+00  setid=       0
 node=   745 local x,y,z moments=    0.0000E+00    2.3111E-03   -4.1156E-03  setid=       0
 node=   746 local x,y,z forces =   -1.0965E+01    0.0000E+00    0.0000E+00  setid=       0
 node=   746 local x,y,z moments=    0.0000E+00    3.1271E-03   -4.5031E-03  setid=       0
 node=   753 local x,y,z forces =   -1.1522E+01    0.0000E+00    0.0000E+00  setid=       0
 node=   753 local x,y,z moments=    0.0000E+00    4.3559E-04    2.8262E-04  setid=       0
 node=   754 local x,y,z forces =   -1.5531E+01    0.0000E+00    0.0000E+00  setid=       0
 node=   754 local x,y,z moments=    0.0000E+00    1.1989E-03   -5.0157E-04  setid=       0
 node=   761 local x,y,z forces =   -5.9958E+00    0.0000E+00    0.0000E+00  setid=       0
 node=   761 local x,y,z moments=    0.0000E+00    1.2208E-03   -1.3077E-03  setid=       0
 node=   762 local x,y,z forces =   -2.4262E+01    0.0000E+00    0.0000E+00  setid=       0
 node=   762 local x,y,z moments=    0.0000E+00    6.2204E-03   -1.7702E-03  setid=       0
 node=   769 local x,y,z forces =   -2.3031E+01    0.0000E+00    0.0000E+00  setid=       0
 node=   769 local x,y,z moments=    0.0000E+00    3.3020E-03   -1.2789E-03  setid=       0
 node=   770 local x,y,z forces =   -2.0610E+01    0.0000E+00    0.0000E+00  setid=       0
 node=   770 local x,y,z moments=    0.0000E+00    2.8067E-03   -9.6557E-04  setid=       0
 node=   780 local x,y,z forces =   -5.9033E+00    0.0000E+00    0.0000E+00  setid=       0
 node=   780 local x,y,z moments=    0.0000E+00   -1.1578E-03   -9.1668E-04  setid=       0
 node=   781 local x,y,z forces =   -8.2259E+00    0.0000E+00    0.0000E+00  setid=       0
 node=   781 local x,y,z moments=    0.0000E+00    2.8367E-03   -4.4232E-03  setid=       0
 node=   782 local x,y,z forces =   -1.1712E+01    0.0000E+00    0.0000E+00  setid=       0
 node=   782 local x,y,z moments=    0.0000E+00    2.7794E-03   -7.8337E-03  setid=       0
 node=   795 local x,y,z forces =   -2.5715E+01    0.0000E+00    0.0000E+00  setid=       0
 node=   795 local x,y,z moments=    0.0000E+00    4.4875E-03   -1.3415E-03  setid=       0
 node=   796 local x,y,z forces =   -1.2344E+01    0.0000E+00    0.0000E+00  setid=       0
 node=   796 local x,y,z moments=    0.0000E+00    4.4945E-03   -4.3510E-03  setid=       0
 node=   797 local x,y,z forces =   -3.3381E+00    0.0000E+00    0.0000E+00  setid=       0
 node=   797 local x,y,z moments=    0.0000E+00    2.5194E-03   -1.1760E-03  setid=       0
 node=   798 local x,y,z forces =   -7.3832E+00    0.0000E+00    0.0000E+00  setid=       0
 node=   798 local x,y,z moments=    0.0000E+00   -2.0837E-05   -1.9770E-03  setid=       0
 node=   802 local x,y,z forces =   -1.3245E+01    0.0000E+00    0.0000E+00  setid=       0
 node=   802 local x,y,z moments=    0.0000E+00    1.8071E-03   -8.7611E-04  setid=       0
 node=   809 local x,y,z forces =   -4.0622E+00    0.0000E+00    0.0000E+00  setid=       0
 node=   809 local x,y,z moments=    0.0000E+00   -4.6415E-03   -3.7650E-03  setid=       0
 node=   810 local x,y,z forces =    1.1275E+01    0.0000E+00    0.0000E+00  setid=       0
 node=   810 local x,y,z moments=    0.0000E+00    1.4896E-02    1.8651E-03  setid=       0
 node=   814 local x,y,z forces =   -5.8827E+00    0.0000E+00    0.0000E+00  setid=       0
 node=   814 local x,y,z moments=    0.0000E+00    1.3599E-03   -1.6914E-03  setid=       0
 node=   824 local x,y,z forces =   -2.5940E+00    0.0000E+00    0.0000E+00  setid=       0
 node=   824 local x,y,z moments=    0.0000E+00    8.8642E-03   -5.9376E-05  setid=       0
 node=   825 local x,y,z forces =   -5.3035E+00    0.0000E+00    0.0000E+00  setid=       0
 node=   825 local x,y,z moments=    0.0000E+00   -1.9383E-03    4.1189E-04  setid=       0
 node=   826 local x,y,z forces =   -1.8197E+00    0.0000E+00    0.0000E+00  setid=       0
 node=   826 local x,y,z moments=    0.0000E+00    1.5159E-02    1.2170E-03  setid=       0
 node=   833 local x,y,z forces =   -1.3824E+01    0.0000E+00    0.0000E+00  setid=       0
 node=   833 local x,y,z moments=    0.0000E+00    1.5436E-03   -2.0447E-05  setid=       0
 node=   834 local x,y,z forces =   -1.8061E+01    0.0000E+00    0.0000E+00  setid=       0
 node=   834 local x,y,z moments=    0.0000E+00    1.9620E-03   -7.1134E-04  setid=       0
 node=   838 local x,y,z forces =   -2.5660E+01    0.0000E+00    0.0000E+00  setid=       0
 node=   838 local x,y,z moments=    0.0000E+00    4.3244E-03   -1.3127E-03  setid=       0
 node=   842 local x,y,z forces =   -2.3767E+01    0.0000E+00    0.0000E+00  setid=       0
 node=   842 local x,y,z moments=    0.0000E+00    3.5151E-03   -1.1010E-03  setid=       0
 node=   849 local x,y,z forces =   -3.2220E+00    0.0000E+00    0.0000E+00  setid=       0
 node=   849 local x,y,z moments=    0.0000E+00    4.0757E-03   -8.4184E-04  setid=       0
 node=   850 local x,y,z forces =   -2.6327E+00    0.0000E+00    0.0000E+00  setid=       0
 node=   850 local x,y,z moments=    0.0000E+00    5.7952E-03   -3.6831E-04  setid=       0
 node=   857 local x,y,z forces =   -1.1760E+01    0.0000E+00    0.0000E+00  setid=       0
 node=   857 local x,y,z moments=    0.0000E+00   -6.1992E-03   -5.2649E-03  setid=       0
 node=   858 local x,y,z forces =    1.3572E+01    0.0000E+00    0.0000E+00  setid=       0
 node=   858 local x,y,z moments=    0.0000E+00    1.0545E-02    2.9068E-03  setid=       0
 node=   862 local x,y,z forces =   -4.9905E+00    0.0000E+00    0.0000E+00  setid=       0
 node=   862 local x,y,z moments=    0.0000E+00    1.9801E-03   -2.0002E-03  setid=       0
 node=   869 local x,y,z forces =   -2.6673E+01    0.0000E+00    0.0000E+00  setid=       0
 node=   869 local x,y,z moments=    0.0000E+00   -1.4140E-02   -1.0835E-02  setid=       0
 node=   870 local x,y,z forces =    7.4248E+00    0.0000E+00    0.0000E+00  setid=       0
 node=   870 local x,y,z moments=    0.0000E+00   -1.9410E-02    9.8829E-03  setid=       0
 node=   874 local x,y,z forces =   -2.1438E+01    0.0000E+00    0.0000E+00  setid=       0
 node=   874 local x,y,z moments=    0.0000E+00    2.7428E-03   -1.0286E-03  setid=       0
 node=   878 local x,y,z forces =   -4.0267E+00    0.0000E+00    0.0000E+00  setid=       0
 node=   878 local x,y,z moments=    0.0000E+00    2.7273E-03   -1.3925E-03  setid=       0
 node=   885 local x,y,z forces =   -7.2687E+00    0.0000E+00    0.0000E+00  setid=       0
 node=   885 local x,y,z moments=    0.0000E+00    9.0247E-03    1.1009E-02  setid=       0
 node=   886 local x,y,z forces =    5.0040E+00    0.0000E+00    0.0000E+00  setid=       0
 node=   886 local x,y,z moments=    0.0000E+00   -7.4708E-02    4.6855E-03  setid=       0
 node=   890 local x,y,z forces =   -2.2936E+00    0.0000E+00    0.0000E+00  setid=       0
 node=   890 local x,y,z moments=    0.0000E+00    2.7200E-02    7.7786E-03  setid=       0
             force resultants   =    3.4152E+01   -1.1881E+02    2.1765E+03
