 LS-DYNA keyword deck by LS-PrePost                                      
                    ls-dyna smp d R14 R14.1.1s_1_ef50e1 date 06/16/2024

 n o d a l   f o r c e/e n e r g y    o u t p u t  t=   0.00000E+00

 velocity boundary condition forces/rigid body moments 

 nd#     354  xforce=   0.0000E+00   yforce=   0.0000E+00  zforce=   0.0000E+00   energy=   0.0000E+00   setid =     354 xmoment=   0.0000E+00 ymoment=   0.0000E+00 zmoment=   0.0000E+00
 nd#     355  xforce=   0.0000E+00   yforce=   0.0000E+00  zforce=   0.0000E+00   energy=   0.0000E+00   setid =     355 xmoment=   0.0000E+00 ymoment=   0.0000E+00 zmoment=   0.0000E+00
 nd#     356  xforce=   0.0000E+00   yforce=   0.0000E+00  zforce=   0.0000E+00   energy=   0.0000E+00   setid =     356 xmoment=   0.0000E+00 ymoment=   0.0000E+00 zmoment=   0.0000E+00
 nd#     357  xforce=   0.0000E+00   yforce=   0.0000E+00  zforce=   0.0000E+00   energy=   0.0000E+00   setid =     357 xmoment=   0.0000E+00 ymoment=   0.0000E+00 zmoment=   0.0000E+00
 nd#     403  xforce=   0.0000E+00   yforce=   0.0000E+00  zforce=   0.0000E+00   energy=   0.0000E+00   setid =     403 xmoment=   0.0000E+00 ymoment=   0.0000E+00 zmoment=   0.0000E+00
 nd#     404  xforce=   0.0000E+00   yforce=   0.0000E+00  zforce=   0.0000E+00   energy=   0.0000E+00   setid =     404 xmoment=   0.0000E+00 ymoment=   0.0000E+00 zmoment=   0.0000E+00
 nd#     405  xforce=   0.0000E+00   yforce=   0.0000E+00  zforce=   0.0000E+00   energy=   0.0000E+00   setid =     405 xmoment=   0.0000E+00 ymoment=   0.0000E+00 zmoment=   0.0000E+00
 nd#     466  xforce=   0.0000E+00   yforce=   0.0000E+00  zforce=   0.0000E+00   energy=   0.0000E+00   setid =     466 xmoment=   0.0000E+00 ymoment=   0.0000E+00 zmoment=   0.0000E+00
 nd#     467  xforce=   0.0000E+00   yforce=   0.0000E+00  zforce=   0.0000E+00   energy=   0.0000E+00   setid =     467 xmoment=   0.0000E+00 ymoment=   0.0000E+00 zmoment=   0.0000E+00
 nd#     468  xforce=   0.0000E+00   yforce=   0.0000E+00  zforce=   0.0000E+00   energy=   0.0000E+00   setid =     468 xmoment=   0.0000E+00 ymoment=   0.0000E+00 zmoment=   0.0000E+00
 nd#     469  xforce=   0.0000E+00   yforce=   0.0000E+00  zforce=   0.0000E+00   energy=   0.0000E+00   setid =     469 xmoment=   0.0000E+00 ymoment=   0.0000E+00 zmoment=   0.0000E+00
 nd#     530  xforce=   0.0000E+00   yforce=   0.0000E+00  zforce=   0.0000E+00   energy=   0.0000E+00   setid =     530 xmoment=   0.0000E+00 ymoment=   0.0000E+00 zmoment=   0.0000E+00
 nd#     531  xforce=   0.0000E+00   yforce=   0.0000E+00  zforce=   0.0000E+00   energy=   0.0000E+00   setid =     531 xmoment=   0.0000E+00 ymoment=   0.0000E+00 zmoment=   0.0000E+00
 nd#     532  xforce=   0.0000E+00   yforce=   0.0000E+00  zforce=   0.0000E+00   energy=   0.0000E+00   setid =     532 xmoment=   0.0000E+00 ymoment=   0.0000E+00 zmoment=   0.0000E+00
 nd#     533  xforce=   0.0000E+00   yforce=   0.0000E+00  zforce=   0.0000E+00   energy=   0.0000E+00   setid =     533 xmoment=   0.0000E+00 ymoment=   0.0000E+00 zmoment=   0.0000E+00
 nd#     549  xforce=   0.0000E+00   yforce=   0.0000E+00  zforce=   0.0000E+00   energy=   0.0000E+00   setid =     549 xmoment=   0.0000E+00 ymoment=   0.0000E+00 zmoment=   0.0000E+00
 nd#     610  xforce=   0.0000E+00   yforce=   0.0000E+00  zforce=   0.0000E+00   energy=   0.0000E+00   setid =     610 xmoment=   0.0000E+00 ymoment=   0.0000E+00 zmoment=   0.0000E+00
 nd#     611  xforce=   0.0000E+00   yforce=   0.0000E+00  zforce=   0.0000E+00   energy=   0.0000E+00   setid =     611 xmoment=   0.0000E+00 ymoment=   0.0000E+00 zmoment=   0.0000E+00
 nd#     612  xforce=   0.0000E+00   yforce=   0.0000E+00  zforce=   0.0000E+00   energy=   0.0000E+00   setid =     612 xmoment=   0.0000E+00 ymoment=   0.0000E+00 zmoment=   0.0000E+00
 nd#     613  xforce=   0.0000E+00   yforce=   0.0000E+00  zforce=   0.0000E+00   energy=   0.0000E+00   setid =     613 xmoment=   0.0000E+00 ymoment=   0.0000E+00 zmoment=   0.0000E+00
 nd#     629  xforce=   0.0000E+00   yforce=   0.0000E+00  zforce=   0.0000E+00   energy=   0.0000E+00   setid =     629 xmoment=   0.0000E+00 ymoment=   0.0000E+00 zmoment=   0.0000E+00
 nd#     660  xforce=   0.0000E+00   yforce=   0.0000E+00  zforce=   0.0000E+00   energy=   0.0000E+00   setid =     660 xmoment=   0.0000E+00 ymoment=   0.0000E+00 zmoment=   0.0000E+00
 nd#     661  xforce=   0.0000E+00   yforce=   0.0000E+00  zforce=   0.0000E+00   energy=   0.0000E+00   setid =     661 xmoment=   0.0000E+00 ymoment=   0.0000E+00 zmoment=   0.0000E+00
 nd#     692  xforce=   0.0000E+00   yforce=   0.0000E+00  zforce=   0.0000E+00   energy=   0.0000E+00   setid =     692 xmoment=   0.0000E+00 ymoment=   0.0000E+00 zmoment=   0.0000E+00
 nd#     693  xforce=   0.0000E+00   yforce=   0.0000E+00  zforce=   0.0000E+00   energy=   0.0000E+00   setid =     693 xmoment=   0.0000E+00 ymoment=   0.0000E+00 zmoment=   0.0000E+00
 nd#     724  xforce=   0.0000E+00   yforce=   0.0000E+00  zforce=   0.0000E+00   energy=   0.0000E+00   setid =     724 xmoment=   0.0000E+00 ymoment=   0.0000E+00 zmoment=   0.0000E+00
 nd#     725  xforce=   0.0000E+00   yforce=   0.0000E+00  zforce=   0.0000E+00   energy=   0.0000E+00   setid =     725 xmoment=   0.0000E+00 ymoment=   0.0000E+00 zmoment=   0.0000E+00
 nd#     771  xforce=   0.0000E+00   yforce=   0.0000E+00  zforce=   0.0000E+00   energy=   0.0000E+00   setid =     771 xmoment=   0.0000E+00 ymoment=   0.0000E+00 zmoment=   0.0000E+00
 nd#     772  xforce=   0.0000E+00   yforce=   0.0000E+00  zforce=   0.0000E+00   energy=   0.0000E+00   setid =     772 xmoment=   0.0000E+00 ymoment=   0.0000E+00 zmoment=   0.0000E+00
 nd#     773  xforce=   0.0000E+00   yforce=   0.0000E+00  zforce=   0.0000E+00   energy=   0.0000E+00   setid =     773 xmoment=   0.0000E+00 ymoment=   0.0000E+00 zmoment=   0.0000E+00
 nd#     804  xforce=   0.0000E+00   yforce=   0.0000E+00  zforce=   0.0000E+00   energy=   0.0000E+00   setid =     804 xmoment=   0.0000E+00 ymoment=   0.0000E+00 zmoment=   0.0000E+00
 nd#     805  xforce=   0.0000E+00   yforce=   0.0000E+00  zforce=   0.0000E+00   energy=   0.0000E+00   setid =     805 xmoment=   0.0000E+00 ymoment=   0.0000E+00 zmoment=   0.0000E+00
 nd#     821  xforce=   0.0000E+00   yforce=   0.0000E+00  zforce=   0.0000E+00   energy=   0.0000E+00   setid =     821 xmoment=   0.0000E+00 ymoment=   0.0000E+00 zmoment=   0.0000E+00
 nd#     852  xforce=   0.0000E+00   yforce=   0.0000E+00  zforce=   0.0000E+00   energy=   0.0000E+00   setid =     852 xmoment=   0.0000E+00 ymoment=   0.0000E+00 zmoment=   0.0000E+00
 nd#     853  xforce=   0.0000E+00   yforce=   0.0000E+00  zforce=   0.0000E+00   energy=   0.0000E+00   setid =     853 xmoment=   0.0000E+00 ymoment=   0.0000E+00 zmoment=   0.0000E+00
 nd#     869  xforce=   0.0000E+00   yforce=   0.0000E+00  zforce=   0.0000E+00   energy=   0.0000E+00   setid =     869 xmoment=   0.0000E+00 ymoment=   0.0000E+00 zmoment=   0.0000E+00
 nd#     885  xforce=   0.0000E+00   yforce=   0.0000E+00  zforce=   0.0000E+00   energy=   0.0000E+00   setid =     885 xmoment=   0.0000E+00 ymoment=   0.0000E+00 zmoment=   0.0000E+00
 nd#    1082  xforce=   0.0000E+00   yforce=   0.0000E+00  zforce=   0.0000E+00   energy=   0.0000E+00   setid =    1082 xmoment=   0.0000E+00 ymoment=   0.0000E+00 zmoment=   0.0000E+00
 nd#    1083  xforce=   0.0000E+00   yforce=   0.0000E+00  zforce=   0.0000E+00   energy=   0.0000E+00   setid =    1083 xmoment=   0.0000E+00 ymoment=   0.0000E+00 zmoment=   0.0000E+00
 nd#    1084  xforce=   0.0000E+00   yforce=   0.0000E+00  zforce=   0.0000E+00   energy=   0.0000E+00   setid =    1084 xmoment=   0.0000E+00 ymoment=   0.0000E+00 zmoment=   0.0000E+00
 nd#    1085  xforce=   0.0000E+00   yforce=   0.0000E+00  zforce=   0.0000E+00   energy=   0.0000E+00   setid =    1085 xmoment=   0.0000E+00 ymoment=   0.0000E+00 zmoment=   0.0000E+00
 nd#    1086  xforce=   0.0000E+00   yforce=   0.0000E+00  zforce=   0.0000E+00   energy=   0.0000E+00   setid =    1086 xmoment=   0.0000E+00 ymoment=   0.0000E+00 zmoment=   0.0000E+00
 nd#    1087  xforce=   0.0000E+00   yforce=   0.0000E+00  zforce=   0.0000E+00   energy=   0.0000E+00   setid =    1087 xmoment=   0.0000E+00 ymoment=   0.0000E+00 zmoment=   0.0000E+00
 nd#    1649  xforce=   0.0000E+00   yforce=   0.0000E+00  zforce=   0.0000E+00   energy=   0.0000E+00   setid =    1649 xmoment=   0.0000E+00 ymoment=   0.0000E+00 zmoment=   0.0000E+00
 nd#    1651  xforce=   0.0000E+00   yforce=   0.0000E+00  zforce=   0.0000E+00   energy=   0.0000E+00   setid =    1651 xmoment=   0.0000E+00 ymoment=   0.0000E+00 zmoment=   0.0000E+00
 nd#    1653  xforce=   0.0000E+00   yforce=   0.0000E+00  zforce=   0.0000E+00   energy=   0.0000E+00   setid =    1653 xmoment=   0.0000E+00 ymoment=   0.0000E+00 zmoment=   0.0000E+00
 nd#    1655  xforce=   0.0000E+00   yforce=   0.0000E+00  zforce=   0.0000E+00   energy=   0.0000E+00   setid =    1655 xmoment=   0.0000E+00 ymoment=   0.0000E+00 zmoment=   0.0000E+00
 nd#    1657  xforce=   0.0000E+00   yforce=   0.0000E+00  zforce=   0.0000E+00   energy=   0.0000E+00   setid =    1657 xmoment=   0.0000E+00 ymoment=   0.0000E+00 zmoment=   0.0000E+00
 nd#    1659  xforce=   0.0000E+00   yforce=   0.0000E+00  zforce=   0.0000E+00   energy=   0.0000E+00   setid =    1659 xmoment=   0.0000E+00 ymoment=   0.0000E+00 zmoment=   0.0000E+00
 nd#    1733  xforce=   0.0000E+00   yforce=   0.0000E+00  zforce=   0.0000E+00   energy=   0.0000E+00   setid =    1733 xmoment=   0.0000E+00 ymoment=   0.0000E+00 zmoment=   0.0000E+00
 nd#    1734  xforce=   0.0000E+00   yforce=   0.0000E+00  zforce=   0.0000E+00   energy=   0.0000E+00   setid =    1734 xmoment=   0.0000E+00 ymoment=   0.0000E+00 zmoment=   0.0000E+00
 nd#    1735  xforce=   0.0000E+00   yforce=   0.0000E+00  zforce=   0.0000E+00   energy=   0.0000E+00   setid =    1735 xmoment=   0.0000E+00 ymoment=   0.0000E+00 zmoment=   0.0000E+00
 nd#    1736  xforce=   0.0000E+00   yforce=   0.0000E+00  zforce=   0.0000E+00   energy=   0.0000E+00   setid =    1736 xmoment=   0.0000E+00 ymoment=   0.0000E+00 zmoment=   0.0000E+00
 nd#    1737  xforce=   0.0000E+00   yforce=   0.0000E+00  zforce=   0.0000E+00   energy=   0.0000E+00   setid =    1737 xmoment=   0.0000E+00 ymoment=   0.0000E+00 zmoment=   0.0000E+00
 nd#    1738  xforce=   0.0000E+00   yforce=   0.0000E+00  zforce=   0.0000E+00   energy=   0.0000E+00   setid =    1738 xmoment=   0.0000E+00 ymoment=   0.0000E+00 zmoment=   0.0000E+00
 nd#    1739  xforce=   0.0000E+00   yforce=   0.0000E+00  zforce=   0.0000E+00   energy=   0.0000E+00   setid =    1739 xmoment=   0.0000E+00 ymoment=   0.0000E+00 zmoment=   0.0000E+00
 nd#    1740  xforce=   0.0000E+00   yforce=   0.0000E+00  zforce=   0.0000E+00   energy=   0.0000E+00   setid =    1740 xmoment=   0.0000E+00 ymoment=   0.0000E+00 zmoment=   0.0000E+00
 nd#    1741  xforce=   0.0000E+00   yforce=   0.0000E+00  zforce=   0.0000E+00   energy=   0.0000E+00   setid =    1741 xmoment=   0.0000E+00 ymoment=   0.0000E+00 zmoment=   0.0000E+00
 nd#    1742  xforce=   0.0000E+00   yforce=   0.0000E+00  zforce=   0.0000E+00   energy=   0.0000E+00   setid =    1742 xmoment=   0.0000E+00 ymoment=   0.0000E+00 zmoment=   0.0000E+00
 nd#    1743  xforce=   0.0000E+00   yforce=   0.0000E+00  zforce=   0.0000E+00   energy=   0.0000E+00   setid =    1743 xmoment=   0.0000E+00 ymoment=   0.0000E+00 zmoment=   0.0000E+00
 nd#    1744  xforce=   0.0000E+00   yforce=   0.0000E+00  zforce=   0.0000E+00   energy=   0.0000E+00   setid =    1744 xmoment=   0.0000E+00 ymoment=   0.0000E+00 zmoment=   0.0000E+00
 nd#    1751  xforce=   0.0000E+00   yforce=   0.0000E+00  zforce=   0.0000E+00   energy=   0.0000E+00   setid =    1751 xmoment=   0.0000E+00 ymoment=   0.0000E+00 zmoment=   0.0000E+00
 nd#    1752  xforce=   0.0000E+00   yforce=   0.0000E+00  zforce=   0.0000E+00   energy=   0.0000E+00   setid =    1752 xmoment=   0.0000E+00 ymoment=   0.0000E+00 zmoment=   0.0000E+00
 nd#    1753  xforce=   0.0000E+00   yforce=   0.0000E+00  zforce=   0.0000E+00   energy=   0.0000E+00   setid =    1753 xmoment=   0.0000E+00 ymoment=   0.0000E+00 zmoment=   0.0000E+00
 nd#    1754  xforce=   0.0000E+00   yforce=   0.0000E+00  zforce=   0.0000E+00   energy=   0.0000E+00   setid =    1754 xmoment=   0.0000E+00 ymoment=   0.0000E+00 zmoment=   0.0000E+00
 nd#    1755  xforce=   0.0000E+00   yforce=   0.0000E+00  zforce=   0.0000E+00   energy=   0.0000E+00   setid =    1755 xmoment=   0.0000E+00 ymoment=   0.0000E+00 zmoment=   0.0000E+00
 nd#    1756  xforce=   0.0000E+00   yforce=   0.0000E+00  zforce=   0.0000E+00   energy=   0.0000E+00   setid =    1756 xmoment=   0.0000E+00 ymoment=   0.0000E+00 zmoment=   0.0000E+00
 nd#    1757  xforce=   0.0000E+00   yforce=   0.0000E+00  zforce=   0.0000E+00   energy=   0.0000E+00   setid =    1757 xmoment=   0.0000E+00 ymoment=   0.0000E+00 zmoment=   0.0000E+00
 nd#    1758  xforce=   0.0000E+00   yforce=   0.0000E+00  zforce=   0.0000E+00   energy=   0.0000E+00   setid =    1758 xmoment=   0.0000E+00 ymoment=   0.0000E+00 zmoment=   0.0000E+00
 nd#    1759  xforce=   0.0000E+00   yforce=   0.0000E+00  zforce=   0.0000E+00   energy=   0.0000E+00   setid =    1759 xmoment=   0.0000E+00 ymoment=   0.0000E+00 zmoment=   0.0000E+00
 nd#    1760  xforce=   0.0000E+00   yforce=   0.0000E+00  zforce=   0.0000E+00   energy=   0.0000E+00   setid =    1760 xmoment=   0.0000E+00 ymoment=   0.0000E+00 zmoment=   0.0000E+00
 nd#    1761  xforce=   0.0000E+00   yforce=   0.0000E+00  zforce=   0.0000E+00   energy=   0.0000E+00   setid =    1761 xmoment=   0.0000E+00 ymoment=   0.0000E+00 zmoment=   0.0000E+00
 nd#    1762  xforce=   0.0000E+00   yforce=   0.0000E+00  zforce=   0.0000E+00   energy=   0.0000E+00   setid =    1762 xmoment=   0.0000E+00 ymoment=   0.0000E+00 zmoment=   0.0000E+00
 nd#    1769  xforce=   0.0000E+00   yforce=   0.0000E+00  zforce=   0.0000E+00   energy=   0.0000E+00   setid =    1769 xmoment=   0.0000E+00 ymoment=   0.0000E+00 zmoment=   0.0000E+00
 nd#    1770  xforce=   0.0000E+00   yforce=   0.0000E+00  zforce=   0.0000E+00   energy=   0.0000E+00   setid =    1770 xmoment=   0.0000E+00 ymoment=   0.0000E+00 zmoment=   0.0000E+00
 nd#    1771  xforce=   0.0000E+00   yforce=   0.0000E+00  zforce=   0.0000E+00   energy=   0.0000E+00   setid =    1771 xmoment=   0.0000E+00 ymoment=   0.0000E+00 zmoment=   0.0000E+00
 nd#    1772  xforce=   0.0000E+00   yforce=   0.0000E+00  zforce=   0.0000E+00   energy=   0.0000E+00   setid =    1772 xmoment=   0.0000E+00 ymoment=   0.0000E+00 zmoment=   0.0000E+00
 nd#    1773  xforce=   0.0000E+00   yforce=   0.0000E+00  zforce=   0.0000E+00   energy=   0.0000E+00   setid =    1773 xmoment=   0.0000E+00 ymoment=   0.0000E+00 zmoment=   0.0000E+00
 nd#    1774  xforce=   0.0000E+00   yforce=   0.0000E+00  zforce=   0.0000E+00   energy=   0.0000E+00   setid =    1774 xmoment=   0.0000E+00 ymoment=   0.0000E+00 zmoment=   0.0000E+00
              xtotal=   0.0000E+00   ytotal=   0.0000E+00  ztotal=   0.0000E+00   etotal=   0.0000E+00

 n o d a l   f o r c e/e n e r g y    o u t p u t  t=   2.50000E+00

 velocity boundary condition forces/rigid body moments 

 nd#     354  xforce=   0.0000E+00   yforce=   0.0000E+00  zforce=  -1.4226E+01   energy=   8.8911E-05   setid =     354 xmoment=   0.0000E+00 ymoment=   0.0000E+00 zmoment=   0.0000E+00
 nd#     355  xforce=   0.0000E+00   yforce=   0.0000E+00  zforce=  -2.1145E+01   energy=   1.3215E-04   setid =     355 xmoment=   0.0000E+00 ymoment=   0.0000E+00 zmoment=   0.0000E+00
 nd#     356  xforce=   0.0000E+00   yforce=   0.0000E+00  zforce=  -1.0937E+01   energy=   6.8356E-05   setid =     356 xmoment=   0.0000E+00 ymoment=   0.0000E+00 zmoment=   0.0000E+00
 nd#     357  xforce=   0.0000E+00   yforce=   0.0000E+00  zforce=  -7.6686E+00   energy=   4.7929E-05   setid =     357 xmoment=   0.0000E+00 ymoment=   0.0000E+00 zmoment=   0.0000E+00
 nd#     403  xforce=   0.0000E+00   yforce=   0.0000E+00  zforce=  -9.3419E+00   energy=   5.8387E-05   setid =     403 xmoment=   0.0000E+00 ymoment=   0.0000E+00 zmoment=   0.0000E+00
 nd#     404  xforce=   0.0000E+00   yforce=   0.0000E+00  zforce=  -1.2438E+01   energy=   7.7738E-05   setid =     404 xmoment=   0.0000E+00 ymoment=   0.0000E+00 zmoment=   0.0000E+00
 nd#     405  xforce=   0.0000E+00   yforce=   0.0000E+00  zforce=  -1.1464E+01   energy=   7.1649E-05   setid =     405 xmoment=   0.0000E+00 ymoment=   0.0000E+00 zmoment=   0.0000E+00
 nd#     466  xforce=   0.0000E+00   yforce=   0.0000E+00  zforce=  -4.9448E+00   energy=   3.0905E-05   setid =     466 xmoment=   0.0000E+00 ymoment=   0.0000E+00 zmoment=   0.0000E+00
 nd#     467  xforce=   0.0000E+00   yforce=   0.0000E+00  zforce=  -7.3292E+00   energy=   4.5807E-05   setid =     467 xmoment=   0.0000E+00 ymoment=   0.0000E+00 zmoment=   0.0000E+00
 nd#     468  xforce=   0.0000E+00   yforce=   0.0000E+00  zforce=  -9.3958E+00   energy=   5.8724E-05   setid =     468 xmoment=   0.0000E+00 ymoment=   0.0000E+00 zmoment=   0.0000E+00
 nd#     469  xforce=   0.0000E+00   yforce=   0.0000E+00  zforce=  -7.8913E+00   energy=   4.9320E-05   setid =     469 xmoment=   0.0000E+00 ymoment=   0.0000E+00 zmoment=   0.0000E+00
 nd#     530  xforce=   0.0000E+00   yforce=   0.0000E+00  zforce=  -7.9950E+00   energy=   4.9969E-05   setid =     530 xmoment=   0.0000E+00 ymoment=   0.0000E+00 zmoment=   0.0000E+00
 nd#     531  xforce=   0.0000E+00   yforce=   0.0000E+00  zforce=  -1.0170E+01   energy=   6.3563E-05   setid =     531 xmoment=   0.0000E+00 ymoment=   0.0000E+00 zmoment=   0.0000E+00
 nd#     532  xforce=   0.0000E+00   yforce=   0.0000E+00  zforce=  -1.1163E+01   energy=   6.9767E-05   setid =     532 xmoment=   0.0000E+00 ymoment=   0.0000E+00 zmoment=   0.0000E+00
 nd#     533  xforce=   0.0000E+00   yforce=   0.0000E+00  zforce=  -9.0337E+00   energy=   5.6461E-05   setid =     533 xmoment=   0.0000E+00 ymoment=   0.0000E+00 zmoment=   0.0000E+00
 nd#     549  xforce=   0.0000E+00   yforce=   0.0000E+00  zforce=  -6.2098E+00   energy=   3.8811E-05   setid =     549 xmoment=   0.0000E+00 ymoment=   0.0000E+00 zmoment=   0.0000E+00
 nd#     610  xforce=   0.0000E+00   yforce=   0.0000E+00  zforce=  -1.2497E+01   energy=   7.8103E-05   setid =     610 xmoment=   0.0000E+00 ymoment=   0.0000E+00 zmoment=   0.0000E+00
 nd#     611  xforce=   0.0000E+00   yforce=   0.0000E+00  zforce=  -1.3964E+01   energy=   8.7272E-05   setid =     611 xmoment=   0.0000E+00 ymoment=   0.0000E+00 zmoment=   0.0000E+00
 nd#     612  xforce=   0.0000E+00   yforce=   0.0000E+00  zforce=  -2.2944E+01   energy=   1.4340E-04   setid =     612 xmoment=   0.0000E+00 ymoment=   0.0000E+00 zmoment=   0.0000E+00
 nd#     613  xforce=   0.0000E+00   yforce=   0.0000E+00  zforce=  -2.1987E+01   energy=   1.3742E-04   setid =     613 xmoment=   0.0000E+00 ymoment=   0.0000E+00 zmoment=   0.0000E+00
 nd#     629  xforce=   0.0000E+00   yforce=   0.0000E+00  zforce=  -1.1164E+01   energy=   6.9776E-05   setid =     629 xmoment=   0.0000E+00 ymoment=   0.0000E+00 zmoment=   0.0000E+00
 nd#     660  xforce=   0.0000E+00   yforce=   0.0000E+00  zforce=  -5.9232E+00   energy=   3.7020E-05   setid =     660 xmoment=   0.0000E+00 ymoment=   0.0000E+00 zmoment=   0.0000E+00
 nd#     661  xforce=   0.0000E+00   yforce=   0.0000E+00  zforce=  -6.3140E+00   energy=   3.9462E-05   setid =     661 xmoment=   0.0000E+00 ymoment=   0.0000E+00 zmoment=   0.0000E+00
 nd#     692  xforce=   0.0000E+00   yforce=   0.0000E+00  zforce=  -2.0709E+01   energy=   1.2943E-04   setid =     692 xmoment=   0.0000E+00 ymoment=   0.0000E+00 zmoment=   0.0000E+00
 nd#     693  xforce=   0.0000E+00   yforce=   0.0000E+00  zforce=  -2.0586E+01   energy=   1.2866E-04   setid =     693 xmoment=   0.0000E+00 ymoment=   0.0000E+00 zmoment=   0.0000E+00
 nd#     724  xforce=   0.0000E+00   yforce=   0.0000E+00  zforce=  -3.2659E+00   energy=   2.0412E-05   setid =     724 xmoment=   0.0000E+00 ymoment=   0.0000E+00 zmoment=   0.0000E+00
 nd#     725  xforce=   0.0000E+00   yforce=   0.0000E+00  zforce=  -5.8009E+00   energy=   3.6255E-05   setid =     725 xmoment=   0.0000E+00 ymoment=   0.0000E+00 zmoment=   0.0000E+00
 nd#     771  xforce=   0.0000E+00   yforce=   0.0000E+00  zforce=  -8.4302E+00   energy=   5.2689E-05   setid =     771 xmoment=   0.0000E+00 ymoment=   0.0000E+00 zmoment=   0.0000E+00
 nd#     772  xforce=   0.0000E+00   yforce=   0.0000E+00  zforce=  -6.4559E+00   energy=   4.0350E-05   setid =     772 xmoment=   0.0000E+00 ymoment=   0.0000E+00 zmoment=   0.0000E+00
 nd#     773  xforce=   0.0000E+00   yforce=   0.0000E+00  zforce=  -5.2830E+00   energy=   3.3019E-05   setid =     773 xmoment=   0.0000E+00 ymoment=   0.0000E+00 zmoment=   0.0000E+00
 nd#     804  xforce=   0.0000E+00   yforce=   0.0000E+00  zforce=  -7.1444E+00   energy=   4.4652E-05   setid =     804 xmoment=   0.0000E+00 ymoment=   0.0000E+00 zmoment=   0.0000E+00
 nd#     805  xforce=   0.0000E+00   yforce=   0.0000E+00  zforce=  -1.1530E+01   energy=   7.2063E-05   setid =     805 xmoment=   0.0000E+00 ymoment=   0.0000E+00 zmoment=   0.0000E+00
 nd#     821  xforce=   0.0000E+00   yforce=   0.0000E+00  zforce=  -4.7002E+00   energy=   2.9376E-05   setid =     821 xmoment=   0.0000E+00 ymoment=   0.0000E+00 zmoment=   0.0000E+00
 nd#     852  xforce=   0.0000E+00   yforce=   0.0000E+00  zforce=  -9.9825E+00   energy=   6.2391E-05   setid =     852 xmoment=   0.0000E+00 ymoment=   0.0000E+00 zmoment=   0.0000E+00
 nd#     853  xforce=   0.0000E+00   yforce=   0.0000E+00  zforce=  -1.0925E+01   energy=   6.8284E-05   setid =     853 xmoment=   0.0000E+00 ymoment=   0.0000E+00 zmoment=   0.0000E+00
 nd#     869  xforce=   0.0000E+00   yforce=   0.0000E+00  zforce=  -5.7271E+00   energy=   3.5794E-05   setid =     869 xmoment=   0.0000E+00 ymoment=   0.0000E+00 zmoment=   0.0000E+00
 nd#     885  xforce=   0.0000E+00   yforce=   0.0000E+00  zforce=  -5.5991E+00   energy=   3.4994E-05   setid =     885 xmoment=   0.0000E+00 ymoment=   0.0000E+00 zmoment=   0.0000E+00
 nd#    1082  xforce=   0.0000E+00   yforce=   0.0000E+00  zforce=  -7.3552E+00   energy=   4.5970E-05   setid =    1082 xmoment=   0.0000E+00 ymoment=   0.0000E+00 zmoment=   0.0000E+00
 nd#    1083  xforce=   0.0000E+00   yforce=   0.0000E+00  zforce=  -2.8215E+01   energy=   1.7635E-04   setid =    1083 xmoment=   0.0000E+00 ymoment=   0.0000E+00 zmoment=   0.0000E+00
 nd#    1084  xforce=   0.0000E+00   yforce=   0.0000E+00  zforce=  -2.5398E+01   energy=   1.5874E-04   setid =    1084 xmoment=   0.0000E+00 ymoment=   0.0000E+00 zmoment=   0.0000E+00
 nd#    1085  xforce=   0.0000E+00   yforce=   0.0000E+00  zforce=  -2.2158E+01   energy=   1.3849E-04   setid =    1085 xmoment=   0.0000E+00 ymoment=   0.0000E+00 zmoment=   0.0000E+00
 nd#    1086  xforce=   0.0000E+00   yforce=   0.0000E+00  zforce=  -1.9264E+01   energy=   1.2040E-04   setid =    1086 xmoment=   0.0000E+00 ymoment=   0.0000E+00 zmoment=   0.0000E+00
 nd#    1087  xforce=   0.0000E+00   yforce=   0.0000E+00  zforce=  -1.6274E+01   energy=   1.0171E-04   setid =    1087 xmoment=   0.0000E+00 ymoment=   0.0000E+00 zmoment=   0.0000E+00
 nd#    1649  xforce=   0.0000E+00   yforce=   0.0000E+00  zforce=  -3.2457E+01   energy=   2.0286E-04   setid =    1649 xmoment=   0.0000E+00 ymoment=   0.0000E+00 zmoment=   0.0000E+00
 nd#    1651  xforce=   0.0000E+00   yforce=   0.0000E+00  zforce=  -3.1943E+01   energy=   1.9965E-04   setid =    1651 xmoment=   0.0000E+00 ymoment=   0.0000E+00 zmoment=   0.0000E+00
 nd#    1653  xforce=   0.0000E+00   yforce=   0.0000E+00  zforce=  -3.1433E+01   energy=   1.9646E-04   setid =    1653 xmoment=   0.0000E+00 ymoment=   0.0000E+00 zmoment=   0.0000E+00
 nd#    1655  xforce=   0.0000E+00   yforce=   0.0000E+00  zforce=  -3.1412E+01   energy=   1.9633E-04   setid =    1655 xmoment=   0.0000E+00 ymoment=   0.0000E+00 zmoment=   0.0000E+00
 nd#    1657  xforce=   0.0000E+00   yforce=   0.0000E+00  zforce=  -3.1977E+01   energy=   1.9986E-04   setid =    1657 xmoment=   0.0000E+00 ymoment=   0.0000E+00 zmoment=   0.0000E+00
 nd#    1659  xforce=   0.0000E+00   yforce=   0.0000E+00  zforce=  -1.6364E+01   energy=   1.0228E-04   setid =    1659 xmoment=   0.0000E+00 ymoment=   0.0000E+00 zmoment=   0.0000E+00
 nd#    1733  xforce=   0.0000E+00   yforce=   0.0000E+00  zforce=  -5.0952E+01   energy=   3.1845E-04   setid =    1733 xmoment=   0.0000E+00 ymoment=   0.0000E+00 zmoment=   0.0000E+00
 nd#    1734  xforce=   0.0000E+00   yforce=   0.0000E+00  zforce=  -5.6919E+01   energy=   3.5574E-04   setid =    1734 xmoment=   0.0000E+00 ymoment=   0.0000E+00 zmoment=   0.0000E+00
 nd#    1735  xforce=   0.0000E+00   yforce=   0.0000E+00  zforce=  -5.1110E+01   energy=   3.1944E-04   setid =    1735 xmoment=   0.0000E+00 ymoment=   0.0000E+00 zmoment=   0.0000E+00
 nd#    1736  xforce=   0.0000E+00   yforce=   0.0000E+00  zforce=  -5.7745E+01   energy=   3.6091E-04   setid =    1736 xmoment=   0.0000E+00 ymoment=   0.0000E+00 zmoment=   0.0000E+00
 nd#    1737  xforce=   0.0000E+00   yforce=   0.0000E+00  zforce=  -5.1184E+01   energy=   3.1990E-04   setid =    1737 xmoment=   0.0000E+00 ymoment=   0.0000E+00 zmoment=   0.0000E+00
 nd#    1738  xforce=   0.0000E+00   yforce=   0.0000E+00  zforce=  -5.7976E+01   energy=   3.6235E-04   setid =    1738 xmoment=   0.0000E+00 ymoment=   0.0000E+00 zmoment=   0.0000E+00
 nd#    1739  xforce=   0.0000E+00   yforce=   0.0000E+00  zforce=  -5.1202E+01   energy=   3.2001E-04   setid =    1739 xmoment=   0.0000E+00 ymoment=   0.0000E+00 zmoment=   0.0000E+00
 nd#    1740  xforce=   0.0000E+00   yforce=   0.0000E+00  zforce=  -5.7244E+01   energy=   3.5778E-04   setid =    1740 xmoment=   0.0000E+00 ymoment=   0.0000E+00 zmoment=   0.0000E+00
 nd#    1741  xforce=   0.0000E+00   yforce=   0.0000E+00  zforce=  -5.1212E+01   energy=   3.2007E-04   setid =    1741 xmoment=   0.0000E+00 ymoment=   0.0000E+00 zmoment=   0.0000E+00
 nd#    1742  xforce=   0.0000E+00   yforce=   0.0000E+00  zforce=  -5.6134E+01   energy=   3.5084E-04   setid =    1742 xmoment=   0.0000E+00 ymoment=   0.0000E+00 zmoment=   0.0000E+00
 nd#    1743  xforce=   0.0000E+00   yforce=   0.0000E+00  zforce=  -2.5683E+01   energy=   1.6052E-04   setid =    1743 xmoment=   0.0000E+00 ymoment=   0.0000E+00 zmoment=   0.0000E+00
 nd#    1744  xforce=   0.0000E+00   yforce=   0.0000E+00  zforce=  -2.7859E+01   energy=   1.7412E-04   setid =    1744 xmoment=   0.0000E+00 ymoment=   0.0000E+00 zmoment=   0.0000E+00
 nd#    1751  xforce=   0.0000E+00   yforce=   0.0000E+00  zforce=  -3.8528E+01   energy=   2.4080E-04   setid =    1751 xmoment=   0.0000E+00 ymoment=   0.0000E+00 zmoment=   0.0000E+00
 nd#    1752  xforce=   0.0000E+00   yforce=   0.0000E+00  zforce=  -4.4382E+01   energy=   2.7739E-04   setid =    1752 xmoment=   0.0000E+00 ymoment=   0.0000E+00 zmoment=   0.0000E+00
 nd#    1753  xforce=   0.0000E+00   yforce=   0.0000E+00  zforce=  -3.8248E+01   energy=   2.3905E-04   setid =    1753 xmoment=   0.0000E+00 ymoment=   0.0000E+00 zmoment=   0.0000E+00
 nd#    1754  xforce=   0.0000E+00   yforce=   0.0000E+00  zforce=  -4.4287E+01   energy=   2.7679E-04   setid =    1754 xmoment=   0.0000E+00 ymoment=   0.0000E+00 zmoment=   0.0000E+00
 nd#    1755  xforce=   0.0000E+00   yforce=   0.0000E+00  zforce=  -3.7877E+01   energy=   2.3673E-04   setid =    1755 xmoment=   0.0000E+00 ymoment=   0.0000E+00 zmoment=   0.0000E+00
 nd#    1756  xforce=   0.0000E+00   yforce=   0.0000E+00  zforce=  -4.4116E+01   energy=   2.7572E-04   setid =    1756 xmoment=   0.0000E+00 ymoment=   0.0000E+00 zmoment=   0.0000E+00
 nd#    1757  xforce=   0.0000E+00   yforce=   0.0000E+00  zforce=  -3.7708E+01   energy=   2.3568E-04   setid =    1757 xmoment=   0.0000E+00 ymoment=   0.0000E+00 zmoment=   0.0000E+00
 nd#    1758  xforce=   0.0000E+00   yforce=   0.0000E+00  zforce=  -4.4047E+01   energy=   2.7529E-04   setid =    1758 xmoment=   0.0000E+00 ymoment=   0.0000E+00 zmoment=   0.0000E+00
 nd#    1759  xforce=   0.0000E+00   yforce=   0.0000E+00  zforce=  -3.7933E+01   energy=   2.3708E-04   setid =    1759 xmoment=   0.0000E+00 ymoment=   0.0000E+00 zmoment=   0.0000E+00
 nd#    1760  xforce=   0.0000E+00   yforce=   0.0000E+00  zforce=  -4.4171E+01   energy=   2.7607E-04   setid =    1760 xmoment=   0.0000E+00 ymoment=   0.0000E+00 zmoment=   0.0000E+00
 nd#    1761  xforce=   0.0000E+00   yforce=   0.0000E+00  zforce=  -1.9208E+01   energy=   1.2005E-04   setid =    1761 xmoment=   0.0000E+00 ymoment=   0.0000E+00 zmoment=   0.0000E+00
 nd#    1762  xforce=   0.0000E+00   yforce=   0.0000E+00  zforce=  -2.2245E+01   energy=   1.3903E-04   setid =    1762 xmoment=   0.0000E+00 ymoment=   0.0000E+00 zmoment=   0.0000E+00
 nd#    1769  xforce=   0.0000E+00   yforce=   0.0000E+00  zforce=  -1.4456E+01   energy=   9.0347E-05   setid =    1769 xmoment=   0.0000E+00 ymoment=   0.0000E+00 zmoment=   0.0000E+00
 nd#    1770  xforce=   0.0000E+00   yforce=   0.0000E+00  zforce=  -1.3754E+01   energy=   8.5960E-05   setid =    1770 xmoment=   0.0000E+00 ymoment=   0.0000E+00 zmoment=   0.0000E+00
 nd#    1771  xforce=   0.0000E+00   yforce=   0.0000E+00  zforce=  -1.3010E+01   energy=   8.1310E-05   setid =    1771 xmoment=   0.0000E+00 ymoment=   0.0000E+00 zmoment=   0.0000E+00
 nd#    1772  xforce=   0.0000E+00   yforce=   0.0000E+00  zforce=  -1.2565E+01   energy=   7.8529E-05   setid =    1772 xmoment=   0.0000E+00 ymoment=   0.0000E+00 zmoment=   0.0000E+00
 nd#    1773  xforce=   0.0000E+00   yforce=   0.0000E+00  zforce=  -1.2397E+01   energy=   7.7481E-05   setid =    1773 xmoment=   0.0000E+00 ymoment=   0.0000E+00 zmoment=   0.0000E+00
 nd#    1774  xforce=   0.0000E+00   yforce=   0.0000E+00  zforce=  -6.1893E+00   energy=   3.8683E-05   setid =    1774 xmoment=   0.0000E+00 ymoment=   0.0000E+00 zmoment=   0.0000E+00
              xtotal=   0.0000E+00   ytotal=   0.0000E+00  ztotal=  -1.7969E+03   etotal=   1.1230E-02

 n o d a l   f o r c e/e n e r g y    o u t p u t  t=   6.46223E+00

 velocity boundary condition forces/rigid body moments 

 nd#     354  xforce=   0.0000E+00   yforce=   0.0000E+00  zforce=  -3.6526E+01   energy=   5.9164E-04   setid =     354 xmoment=   0.0000E+00 ymoment=   0.0000E+00 zmoment=   0.0000E+00
 nd#     355  xforce=   0.0000E+00   yforce=   0.0000E+00  zforce=  -5.2666E+01   energy=   8.6329E-04   setid =     355 xmoment=   0.0000E+00 ymoment=   0.0000E+00 zmoment=   0.0000E+00
 nd#     356  xforce=   0.0000E+00   yforce=   0.0000E+00  zforce=  -2.7841E+01   energy=   4.5247E-04   setid =     356 xmoment=   0.0000E+00 ymoment=   0.0000E+00 zmoment=   0.0000E+00
 nd#     357  xforce=   0.0000E+00   yforce=   0.0000E+00  zforce=  -2.0581E+01   energy=   3.2776E-04   setid =     357 xmoment=   0.0000E+00 ymoment=   0.0000E+00 zmoment=   0.0000E+00
 nd#     403  xforce=   0.0000E+00   yforce=   0.0000E+00  zforce=  -2.2703E+01   energy=   3.7581E-04   setid =     403 xmoment=   0.0000E+00 ymoment=   0.0000E+00 zmoment=   0.0000E+00
 nd#     404  xforce=   0.0000E+00   yforce=   0.0000E+00  zforce=  -3.1223E+01   energy=   5.1022E-04   setid =     404 xmoment=   0.0000E+00 ymoment=   0.0000E+00 zmoment=   0.0000E+00
 nd#     405  xforce=   0.0000E+00   yforce=   0.0000E+00  zforce=  -2.9272E+01   energy=   4.7516E-04   setid =     405 xmoment=   0.0000E+00 ymoment=   0.0000E+00 zmoment=   0.0000E+00
 nd#     466  xforce=   0.0000E+00   yforce=   0.0000E+00  zforce=  -1.2653E+01   energy=   2.0522E-04   setid =     466 xmoment=   0.0000E+00 ymoment=   0.0000E+00 zmoment=   0.0000E+00
 nd#     467  xforce=   0.0000E+00   yforce=   0.0000E+00  zforce=  -1.6210E+01   energy=   2.7898E-04   setid =     467 xmoment=   0.0000E+00 ymoment=   0.0000E+00 zmoment=   0.0000E+00
 nd#     468  xforce=   0.0000E+00   yforce=   0.0000E+00  zforce=  -2.2595E+01   energy=   3.7561E-04   setid =     468 xmoment=   0.0000E+00 ymoment=   0.0000E+00 zmoment=   0.0000E+00
 nd#     469  xforce=   0.0000E+00   yforce=   0.0000E+00  zforce=  -1.9215E+01   energy=   3.1782E-04   setid =     469 xmoment=   0.0000E+00 ymoment=   0.0000E+00 zmoment=   0.0000E+00
 nd#     530  xforce=   0.0000E+00   yforce=   0.0000E+00  zforce=  -1.8452E+01   energy=   3.1194E-04   setid =     530 xmoment=   0.0000E+00 ymoment=   0.0000E+00 zmoment=   0.0000E+00
 nd#     531  xforce=   0.0000E+00   yforce=   0.0000E+00  zforce=  -2.5489E+01   energy=   4.1678E-04   setid =     531 xmoment=   0.0000E+00 ymoment=   0.0000E+00 zmoment=   0.0000E+00
 nd#     532  xforce=   0.0000E+00   yforce=   0.0000E+00  zforce=  -2.9417E+01   energy=   4.7174E-04   setid =     532 xmoment=   0.0000E+00 ymoment=   0.0000E+00 zmoment=   0.0000E+00
 nd#     533  xforce=   0.0000E+00   yforce=   0.0000E+00  zforce=  -2.2953E+01   energy=   3.7331E-04   setid =     533 xmoment=   0.0000E+00 ymoment=   0.0000E+00 zmoment=   0.0000E+00
 nd#     549  xforce=   0.0000E+00   yforce=   0.0000E+00  zforce=  -1.3263E+01   energy=   2.3170E-04   setid =     549 xmoment=   0.0000E+00 ymoment=   0.0000E+00 zmoment=   0.0000E+00
 nd#     610  xforce=   0.0000E+00   yforce=   0.0000E+00  zforce=  -3.0999E+01   energy=   5.0895E-04   setid =     610 xmoment=   0.0000E+00 ymoment=   0.0000E+00 zmoment=   0.0000E+00
 nd#     611  xforce=   0.0000E+00   yforce=   0.0000E+00  zforce=  -3.6080E+01   energy=   5.8299E-04   setid =     611 xmoment=   0.0000E+00 ymoment=   0.0000E+00 zmoment=   0.0000E+00
 nd#     612  xforce=   0.0000E+00   yforce=   0.0000E+00  zforce=  -6.0419E+01   energy=   9.6916E-04   setid =     612 xmoment=   0.0000E+00 ymoment=   0.0000E+00 zmoment=   0.0000E+00
 nd#     613  xforce=   0.0000E+00   yforce=   0.0000E+00  zforce=  -5.6478E+01   energy=   9.1466E-04   setid =     613 xmoment=   0.0000E+00 ymoment=   0.0000E+00 zmoment=   0.0000E+00
 nd#     629  xforce=   0.0000E+00   yforce=   0.0000E+00  zforce=  -2.7875E+01   energy=   4.5648E-04   setid =     629 xmoment=   0.0000E+00 ymoment=   0.0000E+00 zmoment=   0.0000E+00
 nd#     660  xforce=   0.0000E+00   yforce=   0.0000E+00  zforce=  -1.6379E+01   energy=   2.5793E-04   setid =     660 xmoment=   0.0000E+00 ymoment=   0.0000E+00 zmoment=   0.0000E+00
 nd#     661  xforce=   0.0000E+00   yforce=   0.0000E+00  zforce=  -1.8040E+01   energy=   2.8070E-04   setid =     661 xmoment=   0.0000E+00 ymoment=   0.0000E+00 zmoment=   0.0000E+00
 nd#     692  xforce=   0.0000E+00   yforce=   0.0000E+00  zforce=  -5.2890E+01   energy=   8.5848E-04   setid =     692 xmoment=   0.0000E+00 ymoment=   0.0000E+00 zmoment=   0.0000E+00
 nd#     693  xforce=   0.0000E+00   yforce=   0.0000E+00  zforce=  -5.1670E+01   energy=   8.4441E-04   setid =     693 xmoment=   0.0000E+00 ymoment=   0.0000E+00 zmoment=   0.0000E+00
 nd#     724  xforce=   0.0000E+00   yforce=   0.0000E+00  zforce=  -9.7967E+00   energy=   1.4980E-04   setid =     724 xmoment=   0.0000E+00 ymoment=   0.0000E+00 zmoment=   0.0000E+00
 nd#     725  xforce=   0.0000E+00   yforce=   0.0000E+00  zforce=  -1.6185E+01   energy=   2.5404E-04   setid =     725 xmoment=   0.0000E+00 ymoment=   0.0000E+00 zmoment=   0.0000E+00
 nd#     771  xforce=   0.0000E+00   yforce=   0.0000E+00  zforce=  -2.0042E+01   energy=   3.3472E-04   setid =     771 xmoment=   0.0000E+00 ymoment=   0.0000E+00 zmoment=   0.0000E+00
 nd#     772  xforce=   0.0000E+00   yforce=   0.0000E+00  zforce=  -1.7508E+01   energy=   2.7773E-04   setid =     772 xmoment=   0.0000E+00 ymoment=   0.0000E+00 zmoment=   0.0000E+00
 nd#     773  xforce=   0.0000E+00   yforce=   0.0000E+00  zforce=  -1.4465E+01   energy=   2.2863E-04   setid =     773 xmoment=   0.0000E+00 ymoment=   0.0000E+00 zmoment=   0.0000E+00
 nd#     804  xforce=   0.0000E+00   yforce=   0.0000E+00  zforce=  -1.9061E+01   energy=   3.0423E-04   setid =     804 xmoment=   0.0000E+00 ymoment=   0.0000E+00 zmoment=   0.0000E+00
 nd#     805  xforce=   0.0000E+00   yforce=   0.0000E+00  zforce=  -3.0953E+01   energy=   4.9288E-04   setid =     805 xmoment=   0.0000E+00 ymoment=   0.0000E+00 zmoment=   0.0000E+00
 nd#     821  xforce=   0.0000E+00   yforce=   0.0000E+00  zforce=  -1.2756E+01   energy=   2.0229E-04   setid =     821 xmoment=   0.0000E+00 ymoment=   0.0000E+00 zmoment=   0.0000E+00
 nd#     852  xforce=   0.0000E+00   yforce=   0.0000E+00  zforce=  -2.5654E+01   energy=   4.1539E-04   setid =     852 xmoment=   0.0000E+00 ymoment=   0.0000E+00 zmoment=   0.0000E+00
 nd#     853  xforce=   0.0000E+00   yforce=   0.0000E+00  zforce=  -2.8033E+01   energy=   4.5418E-04   setid =     853 xmoment=   0.0000E+00 ymoment=   0.0000E+00 zmoment=   0.0000E+00
 nd#     869  xforce=   0.0000E+00   yforce=   0.0000E+00  zforce=  -1.5414E+01   energy=   2.4521E-04   setid =     869 xmoment=   0.0000E+00 ymoment=   0.0000E+00 zmoment=   0.0000E+00
 nd#     885  xforce=   0.0000E+00   yforce=   0.0000E+00  zforce=  -1.5929E+01   energy=   2.4824E-04   setid =     885 xmoment=   0.0000E+00 ymoment=   0.0000E+00 zmoment=   0.0000E+00
 nd#    1082  xforce=   0.0000E+00   yforce=   0.0000E+00  zforce=  -1.6801E+01   energy=   2.8525E-04   setid =    1082 xmoment=   0.0000E+00 ymoment=   0.0000E+00 zmoment=   0.0000E+00
 nd#    1083  xforce=   0.0000E+00   yforce=   0.0000E+00  zforce=  -7.0546E+01   energy=   1.1546E-03   setid =    1083 xmoment=   0.0000E+00 ymoment=   0.0000E+00 zmoment=   0.0000E+00
 nd#    1084  xforce=   0.0000E+00   yforce=   0.0000E+00  zforce=  -6.4546E+01   energy=   1.0497E-03   setid =    1084 xmoment=   0.0000E+00 ymoment=   0.0000E+00 zmoment=   0.0000E+00
 nd#    1085  xforce=   0.0000E+00   yforce=   0.0000E+00  zforce=  -5.6983E+01   energy=   9.2243E-04   setid =    1085 xmoment=   0.0000E+00 ymoment=   0.0000E+00 zmoment=   0.0000E+00
 nd#    1086  xforce=   0.0000E+00   yforce=   0.0000E+00  zforce=  -4.9994E+01   energy=   8.0644E-04   setid =    1086 xmoment=   0.0000E+00 ymoment=   0.0000E+00 zmoment=   0.0000E+00
 nd#    1087  xforce=   0.0000E+00   yforce=   0.0000E+00  zforce=  -4.2605E+01   energy=   6.8493E-04   setid =    1087 xmoment=   0.0000E+00 ymoment=   0.0000E+00 zmoment=   0.0000E+00
 nd#    1649  xforce=   0.0000E+00   yforce=   0.0000E+00  zforce=  -8.3818E+01   energy=   1.3546E-03   setid =    1649 xmoment=   0.0000E+00 ymoment=   0.0000E+00 zmoment=   0.0000E+00
 nd#    1651  xforce=   0.0000E+00   yforce=   0.0000E+00  zforce=  -8.1025E+01   energy=   1.3187E-03   setid =    1651 xmoment=   0.0000E+00 ymoment=   0.0000E+00 zmoment=   0.0000E+00
 nd#    1653  xforce=   0.0000E+00   yforce=   0.0000E+00  zforce=  -7.9822E+01   energy=   1.2985E-03   setid =    1653 xmoment=   0.0000E+00 ymoment=   0.0000E+00 zmoment=   0.0000E+00
 nd#    1655  xforce=   0.0000E+00   yforce=   0.0000E+00  zforce=  -7.9839E+01   energy=   1.2983E-03   setid =    1655 xmoment=   0.0000E+00 ymoment=   0.0000E+00 zmoment=   0.0000E+00
 nd#    1657  xforce=   0.0000E+00   yforce=   0.0000E+00  zforce=  -8.1522E+01   energy=   1.3241E-03   setid =    1657 xmoment=   0.0000E+00 ymoment=   0.0000E+00 zmoment=   0.0000E+00
 nd#    1659  xforce=   0.0000E+00   yforce=   0.0000E+00  zforce=  -4.2314E+01   energy=   6.8352E-04   setid =    1659 xmoment=   0.0000E+00 ymoment=   0.0000E+00 zmoment=   0.0000E+00
 nd#    1733  xforce=   0.0000E+00   yforce=   0.0000E+00  zforce=  -1.2920E+02   energy=   2.1029E-03   setid =    1733 xmoment=   0.0000E+00 ymoment=   0.0000E+00 zmoment=   0.0000E+00
 nd#    1734  xforce=   0.0000E+00   yforce=   0.0000E+00  zforce=  -1.4258E+02   energy=   2.3319E-03   setid =    1734 xmoment=   0.0000E+00 ymoment=   0.0000E+00 zmoment=   0.0000E+00
 nd#    1735  xforce=   0.0000E+00   yforce=   0.0000E+00  zforce=  -1.2924E+02   energy=   2.1060E-03   setid =    1735 xmoment=   0.0000E+00 ymoment=   0.0000E+00 zmoment=   0.0000E+00
 nd#    1736  xforce=   0.0000E+00   yforce=   0.0000E+00  zforce=  -1.4566E+02   energy=   2.3758E-03   setid =    1736 xmoment=   0.0000E+00 ymoment=   0.0000E+00 zmoment=   0.0000E+00
 nd#    1737  xforce=   0.0000E+00   yforce=   0.0000E+00  zforce=  -1.2990E+02   energy=   2.1137E-03   setid =    1737 xmoment=   0.0000E+00 ymoment=   0.0000E+00 zmoment=   0.0000E+00
 nd#    1738  xforce=   0.0000E+00   yforce=   0.0000E+00  zforce=  -1.4770E+02   energy=   2.3997E-03   setid =    1738 xmoment=   0.0000E+00 ymoment=   0.0000E+00 zmoment=   0.0000E+00
 nd#    1739  xforce=   0.0000E+00   yforce=   0.0000E+00  zforce=  -1.3059E+02   energy=   2.1208E-03   setid =    1739 xmoment=   0.0000E+00 ymoment=   0.0000E+00 zmoment=   0.0000E+00
 nd#    1740  xforce=   0.0000E+00   yforce=   0.0000E+00  zforce=  -1.4590E+02   energy=   2.3700E-03   setid =    1740 xmoment=   0.0000E+00 ymoment=   0.0000E+00 zmoment=   0.0000E+00
 nd#    1741  xforce=   0.0000E+00   yforce=   0.0000E+00  zforce=  -1.3066E+02   energy=   2.1216E-03   setid =    1741 xmoment=   0.0000E+00 ymoment=   0.0000E+00 zmoment=   0.0000E+00
 nd#    1742  xforce=   0.0000E+00   yforce=   0.0000E+00  zforce=  -1.4137E+02   energy=   2.3072E-03   setid =    1742 xmoment=   0.0000E+00 ymoment=   0.0000E+00 zmoment=   0.0000E+00
 nd#    1743  xforce=   0.0000E+00   yforce=   0.0000E+00  zforce=  -6.5651E+01   energy=   1.0652E-03   setid =    1743 xmoment=   0.0000E+00 ymoment=   0.0000E+00 zmoment=   0.0000E+00
 nd#    1744  xforce=   0.0000E+00   yforce=   0.0000E+00  zforce=  -6.9685E+01   energy=   1.1404E-03   setid =    1744 xmoment=   0.0000E+00 ymoment=   0.0000E+00 zmoment=   0.0000E+00
 nd#    1751  xforce=   0.0000E+00   yforce=   0.0000E+00  zforce=  -9.9115E+01   energy=   1.6042E-03   setid =    1751 xmoment=   0.0000E+00 ymoment=   0.0000E+00 zmoment=   0.0000E+00
 nd#    1752  xforce=   0.0000E+00   yforce=   0.0000E+00  zforce=  -1.1353E+02   energy=   1.8416E-03   setid =    1752 xmoment=   0.0000E+00 ymoment=   0.0000E+00 zmoment=   0.0000E+00
 nd#    1753  xforce=   0.0000E+00   yforce=   0.0000E+00  zforce=  -9.7268E+01   energy=   1.5814E-03   setid =    1753 xmoment=   0.0000E+00 ymoment=   0.0000E+00 zmoment=   0.0000E+00
 nd#    1754  xforce=   0.0000E+00   yforce=   0.0000E+00  zforce=  -1.1248E+02   energy=   1.8296E-03   setid =    1754 xmoment=   0.0000E+00 ymoment=   0.0000E+00 zmoment=   0.0000E+00
 nd#    1755  xforce=   0.0000E+00   yforce=   0.0000E+00  zforce=  -9.6419E+01   energy=   1.5670E-03   setid =    1755 xmoment=   0.0000E+00 ymoment=   0.0000E+00 zmoment=   0.0000E+00
 nd#    1756  xforce=   0.0000E+00   yforce=   0.0000E+00  zforce=  -1.1225E+02   energy=   1.8246E-03   setid =    1756 xmoment=   0.0000E+00 ymoment=   0.0000E+00 zmoment=   0.0000E+00
 nd#    1757  xforce=   0.0000E+00   yforce=   0.0000E+00  zforce=  -9.5998E+01   energy=   1.5601E-03   setid =    1757 xmoment=   0.0000E+00 ymoment=   0.0000E+00 zmoment=   0.0000E+00
 nd#    1758  xforce=   0.0000E+00   yforce=   0.0000E+00  zforce=  -1.1233E+02   energy=   1.8243E-03   setid =    1758 xmoment=   0.0000E+00 ymoment=   0.0000E+00 zmoment=   0.0000E+00
 nd#    1759  xforce=   0.0000E+00   yforce=   0.0000E+00  zforce=  -9.6549E+01   energy=   1.5692E-03   setid =    1759 xmoment=   0.0000E+00 ymoment=   0.0000E+00 zmoment=   0.0000E+00
 nd#    1760  xforce=   0.0000E+00   yforce=   0.0000E+00  zforce=  -1.1265E+02   energy=   1.8295E-03   setid =    1760 xmoment=   0.0000E+00 ymoment=   0.0000E+00 zmoment=   0.0000E+00
 nd#    1761  xforce=   0.0000E+00   yforce=   0.0000E+00  zforce=  -4.9298E+01   energy=   7.9864E-04   setid =    1761 xmoment=   0.0000E+00 ymoment=   0.0000E+00 zmoment=   0.0000E+00
 nd#    1762  xforce=   0.0000E+00   yforce=   0.0000E+00  zforce=  -5.7011E+01   energy=   9.2410E-04   setid =    1762 xmoment=   0.0000E+00 ymoment=   0.0000E+00 zmoment=   0.0000E+00
 nd#    1769  xforce=   0.0000E+00   yforce=   0.0000E+00  zforce=  -3.2368E+01   energy=   5.5416E-04   setid =    1769 xmoment=   0.0000E+00 ymoment=   0.0000E+00 zmoment=   0.0000E+00
 nd#    1770  xforce=   0.0000E+00   yforce=   0.0000E+00  zforce=  -2.9312E+01   energy=   5.1255E-04   setid =    1770 xmoment=   0.0000E+00 ymoment=   0.0000E+00 zmoment=   0.0000E+00
 nd#    1771  xforce=   0.0000E+00   yforce=   0.0000E+00  zforce=  -2.6303E+01   energy=   4.7073E-04   setid =    1771 xmoment=   0.0000E+00 ymoment=   0.0000E+00 zmoment=   0.0000E+00
 nd#    1772  xforce=   0.0000E+00   yforce=   0.0000E+00  zforce=  -2.4234E+01   energy=   4.4305E-04   setid =    1772 xmoment=   0.0000E+00 ymoment=   0.0000E+00 zmoment=   0.0000E+00
 nd#    1773  xforce=   0.0000E+00   yforce=   0.0000E+00  zforce=  -2.2712E+01   energy=   4.2526E-04   setid =    1773 xmoment=   0.0000E+00 ymoment=   0.0000E+00 zmoment=   0.0000E+00
 nd#    1774  xforce=   0.0000E+00   yforce=   0.0000E+00  zforce=  -1.1033E+01   energy=   2.0928E-04   setid =    1774 xmoment=   0.0000E+00 ymoment=   0.0000E+00 zmoment=   0.0000E+00
              xtotal=   0.0000E+00   ytotal=   0.0000E+00  ztotal=  -4.5365E+03   etotal=   7.3966E-02

 n o d a l   f o r c e/e n e r g y    o u t p u t  t=   9.37702E+00

 velocity boundary condition forces/rigid body moments 

 nd#     354  xforce=   0.0000E+00   yforce=   0.0000E+00  zforce=  -5.7912E+01   energy=   1.2798E-03   setid =     354 xmoment=   0.0000E+00 ymoment=   0.0000E+00 zmoment=   0.0000E+00
 nd#     355  xforce=   0.0000E+00   yforce=   0.0000E+00  zforce=  -6.0402E+01   energy=   1.6872E-03   setid =     355 xmoment=   0.0000E+00 ymoment=   0.0000E+00 zmoment=   0.0000E+00
 nd#     356  xforce=   0.0000E+00   yforce=   0.0000E+00  zforce=  -3.9472E+01   energy=   9.4298E-04   setid =     356 xmoment=   0.0000E+00 ymoment=   0.0000E+00 zmoment=   0.0000E+00
 nd#     357  xforce=   0.0000E+00   yforce=   0.0000E+00  zforce=  -6.0054E+01   energy=   9.1534E-04   setid =     357 xmoment=   0.0000E+00 ymoment=   0.0000E+00 zmoment=   0.0000E+00
 nd#     403  xforce=   0.0000E+00   yforce=   0.0000E+00  zforce=  -1.8774E+01   energy=   6.7805E-04   setid =     403 xmoment=   0.0000E+00 ymoment=   0.0000E+00 zmoment=   0.0000E+00
 nd#     404  xforce=   0.0000E+00   yforce=   0.0000E+00  zforce=  -6.1666E+01   energy=   1.1871E-03   setid =     404 xmoment=   0.0000E+00 ymoment=   0.0000E+00 zmoment=   0.0000E+00
 nd#     405  xforce=   0.0000E+00   yforce=   0.0000E+00  zforce=  -2.5359E+01   energy=   8.7326E-04   setid =     405 xmoment=   0.0000E+00 ymoment=   0.0000E+00 zmoment=   0.0000E+00
 nd#     466  xforce=   0.0000E+00   yforce=   0.0000E+00  zforce=  -4.7545E+01   energy=   6.4387E-04   setid =     466 xmoment=   0.0000E+00 ymoment=   0.0000E+00 zmoment=   0.0000E+00
 nd#     467  xforce=   0.0000E+00   yforce=   0.0000E+00  zforce=   3.2816E+01   energy=   1.5797E-04   setid =     467 xmoment=   0.0000E+00 ymoment=   0.0000E+00 zmoment=   0.0000E+00
 nd#     468  xforce=   0.0000E+00   yforce=   0.0000E+00  zforce=  -3.1936E+01   energy=   7.7298E-04   setid =     468 xmoment=   0.0000E+00 ymoment=   0.0000E+00 zmoment=   0.0000E+00
 nd#     469  xforce=   0.0000E+00   yforce=   0.0000E+00  zforce=  -4.9681E+01   energy=   8.1985E-04   setid =     469 xmoment=   0.0000E+00 ymoment=   0.0000E+00 zmoment=   0.0000E+00
 nd#     530  xforce=   0.0000E+00   yforce=   0.0000E+00  zforce=   7.5826E+00   energy=   3.9115E-04   setid =     530 xmoment=   0.0000E+00 ymoment=   0.0000E+00 zmoment=   0.0000E+00
 nd#     531  xforce=   0.0000E+00   yforce=   0.0000E+00  zforce=  -1.9961E+01   energy=   7.4798E-04   setid =     531 xmoment=   0.0000E+00 ymoment=   0.0000E+00 zmoment=   0.0000E+00
 nd#     532  xforce=   0.0000E+00   yforce=   0.0000E+00  zforce=  -2.9659E+01   energy=   9.0222E-04   setid =     532 xmoment=   0.0000E+00 ymoment=   0.0000E+00 zmoment=   0.0000E+00
 nd#     533  xforce=   0.0000E+00   yforce=   0.0000E+00  zforce=  -2.8367E+01   energy=   7.4728E-04   setid =     533 xmoment=   0.0000E+00 ymoment=   0.0000E+00 zmoment=   0.0000E+00
 nd#     549  xforce=   0.0000E+00   yforce=   0.0000E+00  zforce=  -1.7375E+01   energy=   4.5496E-04   setid =     549 xmoment=   0.0000E+00 ymoment=   0.0000E+00 zmoment=   0.0000E+00
 nd#     610  xforce=   0.0000E+00   yforce=   0.0000E+00  zforce=  -6.8172E+01   energy=   1.2316E-03   setid =     610 xmoment=   0.0000E+00 ymoment=   0.0000E+00 zmoment=   0.0000E+00
 nd#     611  xforce=   0.0000E+00   yforce=   0.0000E+00  zforce=  -5.6954E+01   energy=   1.2609E-03   setid =     611 xmoment=   0.0000E+00 ymoment=   0.0000E+00 zmoment=   0.0000E+00
 nd#     612  xforce=   0.0000E+00   yforce=   0.0000E+00  zforce=  -1.0688E+02   energy=   2.1883E-03   setid =     612 xmoment=   0.0000E+00 ymoment=   0.0000E+00 zmoment=   0.0000E+00
 nd#     613  xforce=   0.0000E+00   yforce=   0.0000E+00  zforce=  -1.2904E+02   energy=   2.2665E-03   setid =     613 xmoment=   0.0000E+00 ymoment=   0.0000E+00 zmoment=   0.0000E+00
 nd#     629  xforce=   0.0000E+00   yforce=   0.0000E+00  zforce=  -6.6085E+01   energy=   1.1412E-03   setid =     629 xmoment=   0.0000E+00 ymoment=   0.0000E+00 zmoment=   0.0000E+00
 nd#     660  xforce=   0.0000E+00   yforce=   0.0000E+00  zforce=  -5.9092E+01   energy=   8.0789E-04   setid =     660 xmoment=   0.0000E+00 ymoment=   0.0000E+00 zmoment=   0.0000E+00
 nd#     661  xforce=   0.0000E+00   yforce=   0.0000E+00  zforce=  -6.4064E+01   energy=   8.7899E-04   setid =     661 xmoment=   0.0000E+00 ymoment=   0.0000E+00 zmoment=   0.0000E+00
 nd#     692  xforce=   0.0000E+00   yforce=   0.0000E+00  zforce=  -1.1929E+02   energy=   2.1132E-03   setid =     692 xmoment=   0.0000E+00 ymoment=   0.0000E+00 zmoment=   0.0000E+00
 nd#     693  xforce=   0.0000E+00   yforce=   0.0000E+00  zforce=  -1.0719E+02   energy=   2.0020E-03   setid =     693 xmoment=   0.0000E+00 ymoment=   0.0000E+00 zmoment=   0.0000E+00
 nd#     724  xforce=   0.0000E+00   yforce=   0.0000E+00  zforce=  -4.6886E+01   energy=   5.6285E-04   setid =     724 xmoment=   0.0000E+00 ymoment=   0.0000E+00 zmoment=   0.0000E+00
 nd#     725  xforce=   0.0000E+00   yforce=   0.0000E+00  zforce=  -4.4104E+01   energy=   6.9335E-04   setid =     725 xmoment=   0.0000E+00 ymoment=   0.0000E+00 zmoment=   0.0000E+00
 nd#     771  xforce=   0.0000E+00   yforce=   0.0000E+00  zforce=  -1.9298E+01   energy=   6.2138E-04   setid =     771 xmoment=   0.0000E+00 ymoment=   0.0000E+00 zmoment=   0.0000E+00
 nd#     772  xforce=   0.0000E+00   yforce=   0.0000E+00  zforce=  -5.5769E+01   energy=   8.1169E-04   setid =     772 xmoment=   0.0000E+00 ymoment=   0.0000E+00 zmoment=   0.0000E+00
 nd#     773  xforce=   0.0000E+00   yforce=   0.0000E+00  zforce=  -6.2695E+01   energy=   7.9089E-04   setid =     773 xmoment=   0.0000E+00 ymoment=   0.0000E+00 zmoment=   0.0000E+00
 nd#     804  xforce=   0.0000E+00   yforce=   0.0000E+00  zforce=  -7.5706E+01   energy=   9.9479E-04   setid =     804 xmoment=   0.0000E+00 ymoment=   0.0000E+00 zmoment=   0.0000E+00
 nd#     805  xforce=   0.0000E+00   yforce=   0.0000E+00  zforce=  -8.5375E+01   energy=   1.3406E-03   setid =     805 xmoment=   0.0000E+00 ymoment=   0.0000E+00 zmoment=   0.0000E+00
 nd#     821  xforce=   0.0000E+00   yforce=   0.0000E+00  zforce=  -5.9855E+01   energy=   7.3139E-04   setid =     821 xmoment=   0.0000E+00 ymoment=   0.0000E+00 zmoment=   0.0000E+00
 nd#     852  xforce=   0.0000E+00   yforce=   0.0000E+00  zforce=   2.0207E+01   energy=   4.5508E-04   setid =     852 xmoment=   0.0000E+00 ymoment=   0.0000E+00 zmoment=   0.0000E+00
 nd#     853  xforce=   0.0000E+00   yforce=   0.0000E+00  zforce=  -3.3315E+01   energy=   9.0122E-04   setid =     853 xmoment=   0.0000E+00 ymoment=   0.0000E+00 zmoment=   0.0000E+00
 nd#     869  xforce=   0.0000E+00   yforce=   0.0000E+00  zforce=  -7.4633E+01   energy=   9.0139E-04   setid =     869 xmoment=   0.0000E+00 ymoment=   0.0000E+00 zmoment=   0.0000E+00
 nd#     885  xforce=   0.0000E+00   yforce=   0.0000E+00  zforce=  -5.2634E+01   energy=   7.4786E-04   setid =     885 xmoment=   0.0000E+00 ymoment=   0.0000E+00 zmoment=   0.0000E+00
 nd#    1082  xforce=   0.0000E+00   yforce=   0.0000E+00  zforce=   3.2878E+01   energy=   1.6810E-04   setid =    1082 xmoment=   0.0000E+00 ymoment=   0.0000E+00 zmoment=   0.0000E+00
 nd#    1083  xforce=   0.0000E+00   yforce=   0.0000E+00  zforce=  -1.0046E+01   energy=   1.7419E-03   setid =    1083 xmoment=   0.0000E+00 ymoment=   0.0000E+00 zmoment=   0.0000E+00
 nd#    1084  xforce=   0.0000E+00   yforce=   0.0000E+00  zforce=  -3.1446E+01   energy=   1.7492E-03   setid =    1084 xmoment=   0.0000E+00 ymoment=   0.0000E+00 zmoment=   0.0000E+00
 nd#    1085  xforce=   0.0000E+00   yforce=   0.0000E+00  zforce=  -5.4349E+01   energy=   1.7337E-03   setid =    1085 xmoment=   0.0000E+00 ymoment=   0.0000E+00 zmoment=   0.0000E+00
 nd#    1086  xforce=   0.0000E+00   yforce=   0.0000E+00  zforce=  -6.8148E+01   energy=   1.6673E-03   setid =    1086 xmoment=   0.0000E+00 ymoment=   0.0000E+00 zmoment=   0.0000E+00
 nd#    1087  xforce=   0.0000E+00   yforce=   0.0000E+00  zforce=  -7.9345E+01   energy=   1.5736E-03   setid =    1087 xmoment=   0.0000E+00 ymoment=   0.0000E+00 zmoment=   0.0000E+00
 nd#    1649  xforce=   0.0000E+00   yforce=   0.0000E+00  zforce=  -1.1670E+02   energy=   2.8158E-03   setid =    1649 xmoment=   0.0000E+00 ymoment=   0.0000E+00 zmoment=   0.0000E+00
 nd#    1651  xforce=   0.0000E+00   yforce=   0.0000E+00  zforce=  -1.6660E+02   energy=   3.1231E-03   setid =    1651 xmoment=   0.0000E+00 ymoment=   0.0000E+00 zmoment=   0.0000E+00
 nd#    1653  xforce=   0.0000E+00   yforce=   0.0000E+00  zforce=  -1.5987E+02   energy=   3.0451E-03   setid =    1653 xmoment=   0.0000E+00 ymoment=   0.0000E+00 zmoment=   0.0000E+00
 nd#    1655  xforce=   0.0000E+00   yforce=   0.0000E+00  zforce=  -1.5628E+02   energy=   3.0190E-03   setid =    1655 xmoment=   0.0000E+00 ymoment=   0.0000E+00 zmoment=   0.0000E+00
 nd#    1657  xforce=   0.0000E+00   yforce=   0.0000E+00  zforce=  -1.2000E+02   energy=   2.7926E-03   setid =    1657 xmoment=   0.0000E+00 ymoment=   0.0000E+00 zmoment=   0.0000E+00
 nd#    1659  xforce=   0.0000E+00   yforce=   0.0000E+00  zforce=  -5.8097E+01   energy=   1.4152E-03   setid =    1659 xmoment=   0.0000E+00 ymoment=   0.0000E+00 zmoment=   0.0000E+00
 nd#    1733  xforce=   0.0000E+00   yforce=   0.0000E+00  zforce=  -9.8371E+01   energy=   3.7612E-03   setid =    1733 xmoment=   0.0000E+00 ymoment=   0.0000E+00 zmoment=   0.0000E+00
 nd#    1734  xforce=   0.0000E+00   yforce=   0.0000E+00  zforce=  -7.3932E+01   energy=   3.9096E-03   setid =    1734 xmoment=   0.0000E+00 ymoment=   0.0000E+00 zmoment=   0.0000E+00
 nd#    1735  xforce=   0.0000E+00   yforce=   0.0000E+00  zforce=  -1.5398E+02   energy=   4.1698E-03   setid =    1735 xmoment=   0.0000E+00 ymoment=   0.0000E+00 zmoment=   0.0000E+00
 nd#    1736  xforce=   0.0000E+00   yforce=   0.0000E+00  zforce=  -1.3092E+02   energy=   4.3912E-03   setid =    1736 xmoment=   0.0000E+00 ymoment=   0.0000E+00 zmoment=   0.0000E+00
 nd#    1737  xforce=   0.0000E+00   yforce=   0.0000E+00  zforce=  -1.6126E+02   energy=   4.2353E-03   setid =    1737 xmoment=   0.0000E+00 ymoment=   0.0000E+00 zmoment=   0.0000E+00
 nd#    1738  xforce=   0.0000E+00   yforce=   0.0000E+00  zforce=  -1.5307E+02   energy=   4.5914E-03   setid =    1738 xmoment=   0.0000E+00 ymoment=   0.0000E+00 zmoment=   0.0000E+00
 nd#    1739  xforce=   0.0000E+00   yforce=   0.0000E+00  zforce=  -1.8143E+02   energy=   4.3945E-03   setid =    1739 xmoment=   0.0000E+00 ymoment=   0.0000E+00 zmoment=   0.0000E+00
 nd#    1740  xforce=   0.0000E+00   yforce=   0.0000E+00  zforce=  -1.5297E+02   energy=   4.5479E-03   setid =    1740 xmoment=   0.0000E+00 ymoment=   0.0000E+00 zmoment=   0.0000E+00
 nd#    1741  xforce=   0.0000E+00   yforce=   0.0000E+00  zforce=  -1.3145E+02   energy=   4.0316E-03   setid =    1741 xmoment=   0.0000E+00 ymoment=   0.0000E+00 zmoment=   0.0000E+00
 nd#    1742  xforce=   0.0000E+00   yforce=   0.0000E+00  zforce=  -7.0299E+01   energy=   3.8496E-03   setid =    1742 xmoment=   0.0000E+00 ymoment=   0.0000E+00 zmoment=   0.0000E+00
 nd#    1743  xforce=   0.0000E+00   yforce=   0.0000E+00  zforce=  -4.5397E+01   energy=   1.8744E-03   setid =    1743 xmoment=   0.0000E+00 ymoment=   0.0000E+00 zmoment=   0.0000E+00
 nd#    1744  xforce=   0.0000E+00   yforce=   0.0000E+00  zforce=  -4.4658E+00   energy=   1.6807E-03   setid =    1744 xmoment=   0.0000E+00 ymoment=   0.0000E+00 zmoment=   0.0000E+00
 nd#    1751  xforce=   0.0000E+00   yforce=   0.0000E+00  zforce=  -1.2309E+02   energy=   3.2234E-03   setid =    1751 xmoment=   0.0000E+00 ymoment=   0.0000E+00 zmoment=   0.0000E+00
 nd#    1752  xforce=   0.0000E+00   yforce=   0.0000E+00  zforce=  -1.2205E+02   energy=   3.5582E-03   setid =    1752 xmoment=   0.0000E+00 ymoment=   0.0000E+00 zmoment=   0.0000E+00
 nd#    1753  xforce=   0.0000E+00   yforce=   0.0000E+00  zforce=  -1.7823E+02   energy=   3.5890E-03   setid =    1753 xmoment=   0.0000E+00 ymoment=   0.0000E+00 zmoment=   0.0000E+00
 nd#    1754  xforce=   0.0000E+00   yforce=   0.0000E+00  zforce=  -1.7500E+02   energy=   3.9244E-03   setid =    1754 xmoment=   0.0000E+00 ymoment=   0.0000E+00 zmoment=   0.0000E+00
 nd#    1755  xforce=   0.0000E+00   yforce=   0.0000E+00  zforce=  -1.6973E+02   energy=   3.5064E-03   setid =    1755 xmoment=   0.0000E+00 ymoment=   0.0000E+00 zmoment=   0.0000E+00
 nd#    1756  xforce=   0.0000E+00   yforce=   0.0000E+00  zforce=  -1.7474E+02   energy=   3.9158E-03   setid =    1756 xmoment=   0.0000E+00 ymoment=   0.0000E+00 zmoment=   0.0000E+00
 nd#    1757  xforce=   0.0000E+00   yforce=   0.0000E+00  zforce=  -1.6897E+02   energy=   3.4909E-03   setid =    1757 xmoment=   0.0000E+00 ymoment=   0.0000E+00 zmoment=   0.0000E+00
 nd#    1758  xforce=   0.0000E+00   yforce=   0.0000E+00  zforce=  -1.8104E+02   energy=   3.9620E-03   setid =    1758 xmoment=   0.0000E+00 ymoment=   0.0000E+00 zmoment=   0.0000E+00
 nd#    1759  xforce=   0.0000E+00   yforce=   0.0000E+00  zforce=  -1.3564E+02   energy=   3.2612E-03   setid =    1759 xmoment=   0.0000E+00 ymoment=   0.0000E+00 zmoment=   0.0000E+00
 nd#    1760  xforce=   0.0000E+00   yforce=   0.0000E+00  zforce=  -1.3623E+02   energy=   3.6430E-03   setid =    1760 xmoment=   0.0000E+00 ymoment=   0.0000E+00 zmoment=   0.0000E+00
 nd#    1761  xforce=   0.0000E+00   yforce=   0.0000E+00  zforce=  -5.8155E+01   energy=   1.5816E-03   setid =    1761 xmoment=   0.0000E+00 ymoment=   0.0000E+00 zmoment=   0.0000E+00
 nd#    1762  xforce=   0.0000E+00   yforce=   0.0000E+00  zforce=  -5.6575E+01   energy=   1.7518E-03   setid =    1762 xmoment=   0.0000E+00 ymoment=   0.0000E+00 zmoment=   0.0000E+00
 nd#    1769  xforce=   0.0000E+00   yforce=   0.0000E+00  zforce=   5.5238E+01   energy=   3.8751E-04   setid =    1769 xmoment=   0.0000E+00 ymoment=   0.0000E+00 zmoment=   0.0000E+00
 nd#    1770  xforce=   0.0000E+00   yforce=   0.0000E+00  zforce=   7.3386E+01   energy=   1.9139E-04   setid =    1770 xmoment=   0.0000E+00 ymoment=   0.0000E+00 zmoment=   0.0000E+00
 nd#    1771  xforce=   0.0000E+00   yforce=   0.0000E+00  zforce=   9.3799E+01   energy=  -2.1115E-05   setid =    1771 xmoment=   0.0000E+00 ymoment=   0.0000E+00 zmoment=   0.0000E+00
 nd#    1772  xforce=   0.0000E+00   yforce=   0.0000E+00  zforce=   1.0287E+02   energy=  -1.2996E-04   setid =    1772 xmoment=   0.0000E+00 ymoment=   0.0000E+00 zmoment=   0.0000E+00
 nd#    1773  xforce=   0.0000E+00   yforce=   0.0000E+00  zforce=   1.2827E+02   energy=  -3.4393E-04   setid =    1773 xmoment=   0.0000E+00 ymoment=   0.0000E+00 zmoment=   0.0000E+00
 nd#    1774  xforce=   0.0000E+00   yforce=   0.0000E+00  zforce=   7.2507E+01   energy=  -2.3868E-04   setid =    1774 xmoment=   0.0000E+00 ymoment=   0.0000E+00 zmoment=   0.0000E+00
              xtotal=   0.0000E+00   ytotal=   0.0000E+00  ztotal=  -5.3735E+03   etotal=   1.4618E-01

 n o d a l   f o r c e/e n e r g y    o u t p u t  t=   1.00551E+01

 velocity boundary condition forces/rigid body moments 

 nd#     354  xforce=   0.0000E+00   yforce=   0.0000E+00  zforce=  -6.0417E+01   energy=   1.4804E-03   setid =     354 xmoment=   0.0000E+00 ymoment=   0.0000E+00 zmoment=   0.0000E+00
 nd#     355  xforce=   0.0000E+00   yforce=   0.0000E+00  zforce=  -6.4785E+01   energy=   1.8994E-03   setid =     355 xmoment=   0.0000E+00 ymoment=   0.0000E+00 zmoment=   0.0000E+00
 nd#     356  xforce=   0.0000E+00   yforce=   0.0000E+00  zforce=  -3.9874E+01   energy=   1.0775E-03   setid =     356 xmoment=   0.0000E+00 ymoment=   0.0000E+00 zmoment=   0.0000E+00
 nd#     357  xforce=   0.0000E+00   yforce=   0.0000E+00  zforce=  -5.8385E+01   energy=   1.1161E-03   setid =     357 xmoment=   0.0000E+00 ymoment=   0.0000E+00 zmoment=   0.0000E+00
 nd#     403  xforce=   0.0000E+00   yforce=   0.0000E+00  zforce=  -2.3003E+01   energy=   7.4887E-04   setid =     403 xmoment=   0.0000E+00 ymoment=   0.0000E+00 zmoment=   0.0000E+00
 nd#     404  xforce=   0.0000E+00   yforce=   0.0000E+00  zforce=  -6.4053E+01   energy=   1.4002E-03   setid =     404 xmoment=   0.0000E+00 ymoment=   0.0000E+00 zmoment=   0.0000E+00
 nd#     405  xforce=   0.0000E+00   yforce=   0.0000E+00  zforce=  -3.1016E+01   energy=   9.6883E-04   setid =     405 xmoment=   0.0000E+00 ymoment=   0.0000E+00 zmoment=   0.0000E+00
 nd#     466  xforce=   0.0000E+00   yforce=   0.0000E+00  zforce=  -4.5544E+01   energy=   8.0168E-04   setid =     466 xmoment=   0.0000E+00 ymoment=   0.0000E+00 zmoment=   0.0000E+00
 nd#     467  xforce=   0.0000E+00   yforce=   0.0000E+00  zforce=   1.9980E+01   energy=   6.8473E-05   setid =     467 xmoment=   0.0000E+00 ymoment=   0.0000E+00 zmoment=   0.0000E+00
 nd#     468  xforce=   0.0000E+00   yforce=   0.0000E+00  zforce=  -3.6887E+01   energy=   8.8964E-04   setid =     468 xmoment=   0.0000E+00 ymoment=   0.0000E+00 zmoment=   0.0000E+00
 nd#     469  xforce=   0.0000E+00   yforce=   0.0000E+00  zforce=  -4.6329E+01   energy=   9.8261E-04   setid =     469 xmoment=   0.0000E+00 ymoment=   0.0000E+00 zmoment=   0.0000E+00
 nd#     530  xforce=   0.0000E+00   yforce=   0.0000E+00  zforce=  -2.0055E+00   energy=   3.8169E-04   setid =     530 xmoment=   0.0000E+00 ymoment=   0.0000E+00 zmoment=   0.0000E+00
 nd#     531  xforce=   0.0000E+00   yforce=   0.0000E+00  zforce=  -2.7486E+01   energy=   8.2841E-04   setid =     531 xmoment=   0.0000E+00 ymoment=   0.0000E+00 zmoment=   0.0000E+00
 nd#     532  xforce=   0.0000E+00   yforce=   0.0000E+00  zforce=  -2.1375E+01   energy=   9.8874E-04   setid =     532 xmoment=   0.0000E+00 ymoment=   0.0000E+00 zmoment=   0.0000E+00
 nd#     533  xforce=   0.0000E+00   yforce=   0.0000E+00  zforce=  -1.7795E+01   energy=   8.2553E-04   setid =     533 xmoment=   0.0000E+00 ymoment=   0.0000E+00 zmoment=   0.0000E+00
 nd#     549  xforce=   0.0000E+00   yforce=   0.0000E+00  zforce=  -1.3255E+01   energy=   5.0688E-04   setid =     549 xmoment=   0.0000E+00 ymoment=   0.0000E+00 zmoment=   0.0000E+00
 nd#     610  xforce=   0.0000E+00   yforce=   0.0000E+00  zforce=  -7.2126E+01   energy=   1.4694E-03   setid =     610 xmoment=   0.0000E+00 ymoment=   0.0000E+00 zmoment=   0.0000E+00
 nd#     611  xforce=   0.0000E+00   yforce=   0.0000E+00  zforce=  -5.8225E+01   energy=   1.4562E-03   setid =     611 xmoment=   0.0000E+00 ymoment=   0.0000E+00 zmoment=   0.0000E+00
 nd#     612  xforce=   0.0000E+00   yforce=   0.0000E+00  zforce=  -1.0845E+02   energy=   2.5533E-03   setid =     612 xmoment=   0.0000E+00 ymoment=   0.0000E+00 zmoment=   0.0000E+00
 nd#     613  xforce=   0.0000E+00   yforce=   0.0000E+00  zforce=  -1.3280E+02   energy=   2.7104E-03   setid =     613 xmoment=   0.0000E+00 ymoment=   0.0000E+00 zmoment=   0.0000E+00
 nd#     629  xforce=   0.0000E+00   yforce=   0.0000E+00  zforce=  -6.4638E+01   energy=   1.3628E-03   setid =     629 xmoment=   0.0000E+00 ymoment=   0.0000E+00 zmoment=   0.0000E+00
 nd#     660  xforce=   0.0000E+00   yforce=   0.0000E+00  zforce=  -6.0176E+01   energy=   1.0101E-03   setid =     660 xmoment=   0.0000E+00 ymoment=   0.0000E+00 zmoment=   0.0000E+00
 nd#     661  xforce=   0.0000E+00   yforce=   0.0000E+00  zforce=  -5.9781E+01   energy=   1.0889E-03   setid =     661 xmoment=   0.0000E+00 ymoment=   0.0000E+00 zmoment=   0.0000E+00
 nd#     692  xforce=   0.0000E+00   yforce=   0.0000E+00  zforce=  -1.1833E+02   energy=   2.5160E-03   setid =     692 xmoment=   0.0000E+00 ymoment=   0.0000E+00 zmoment=   0.0000E+00
 nd#     693  xforce=   0.0000E+00   yforce=   0.0000E+00  zforce=  -1.0873E+02   energy=   2.3680E-03   setid =     693 xmoment=   0.0000E+00 ymoment=   0.0000E+00 zmoment=   0.0000E+00
 nd#     724  xforce=   0.0000E+00   yforce=   0.0000E+00  zforce=  -4.9276E+01   energy=   7.2586E-04   setid =     724 xmoment=   0.0000E+00 ymoment=   0.0000E+00 zmoment=   0.0000E+00
 nd#     725  xforce=   0.0000E+00   yforce=   0.0000E+00  zforce=  -5.1292E+01   energy=   8.5506E-04   setid =     725 xmoment=   0.0000E+00 ymoment=   0.0000E+00 zmoment=   0.0000E+00
 nd#     771  xforce=   0.0000E+00   yforce=   0.0000E+00  zforce=  -1.7845E+01   energy=   6.8435E-04   setid =     771 xmoment=   0.0000E+00 ymoment=   0.0000E+00 zmoment=   0.0000E+00
 nd#     772  xforce=   0.0000E+00   yforce=   0.0000E+00  zforce=  -5.5484E+01   energy=   1.0003E-03   setid =     772 xmoment=   0.0000E+00 ymoment=   0.0000E+00 zmoment=   0.0000E+00
 nd#     773  xforce=   0.0000E+00   yforce=   0.0000E+00  zforce=  -5.8879E+01   energy=   9.9698E-04   setid =     773 xmoment=   0.0000E+00 ymoment=   0.0000E+00 zmoment=   0.0000E+00
 nd#     804  xforce=   0.0000E+00   yforce=   0.0000E+00  zforce=  -7.4201E+01   energy=   1.2489E-03   setid =     804 xmoment=   0.0000E+00 ymoment=   0.0000E+00 zmoment=   0.0000E+00
 nd#     805  xforce=   0.0000E+00   yforce=   0.0000E+00  zforce=  -8.2656E+01   energy=   1.6254E-03   setid =     805 xmoment=   0.0000E+00 ymoment=   0.0000E+00 zmoment=   0.0000E+00
 nd#     821  xforce=   0.0000E+00   yforce=   0.0000E+00  zforce=  -6.2738E+01   energy=   9.3921E-04   setid =     821 xmoment=   0.0000E+00 ymoment=   0.0000E+00 zmoment=   0.0000E+00
 nd#     852  xforce=   0.0000E+00   yforce=   0.0000E+00  zforce=   2.0005E+01   energy=   3.8691E-04   setid =     852 xmoment=   0.0000E+00 ymoment=   0.0000E+00 zmoment=   0.0000E+00
 nd#     853  xforce=   0.0000E+00   yforce=   0.0000E+00  zforce=  -2.9993E+01   energy=   1.0085E-03   setid =     853 xmoment=   0.0000E+00 ymoment=   0.0000E+00 zmoment=   0.0000E+00
 nd#     869  xforce=   0.0000E+00   yforce=   0.0000E+00  zforce=  -7.1920E+01   energy=   1.1498E-03   setid =     869 xmoment=   0.0000E+00 ymoment=   0.0000E+00 zmoment=   0.0000E+00
 nd#     885  xforce=   0.0000E+00   yforce=   0.0000E+00  zforce=  -5.2698E+01   energy=   9.2641E-04   setid =     885 xmoment=   0.0000E+00 ymoment=   0.0000E+00 zmoment=   0.0000E+00
 nd#    1082  xforce=   0.0000E+00   yforce=   0.0000E+00  zforce=   3.3524E+01   energy=   5.5532E-05   setid =    1082 xmoment=   0.0000E+00 ymoment=   0.0000E+00 zmoment=   0.0000E+00
 nd#    1083  xforce=   0.0000E+00   yforce=   0.0000E+00  zforce=  -1.3121E+01   energy=   1.7812E-03   setid =    1083 xmoment=   0.0000E+00 ymoment=   0.0000E+00 zmoment=   0.0000E+00
 nd#    1084  xforce=   0.0000E+00   yforce=   0.0000E+00  zforce=  -3.2663E+01   energy=   1.8579E-03   setid =    1084 xmoment=   0.0000E+00 ymoment=   0.0000E+00 zmoment=   0.0000E+00
 nd#    1085  xforce=   0.0000E+00   yforce=   0.0000E+00  zforce=  -5.4135E+01   energy=   1.9176E-03   setid =    1085 xmoment=   0.0000E+00 ymoment=   0.0000E+00 zmoment=   0.0000E+00
 nd#    1086  xforce=   0.0000E+00   yforce=   0.0000E+00  zforce=  -6.7411E+01   energy=   1.8971E-03   setid =    1086 xmoment=   0.0000E+00 ymoment=   0.0000E+00 zmoment=   0.0000E+00
 nd#    1087  xforce=   0.0000E+00   yforce=   0.0000E+00  zforce=  -7.6998E+01   energy=   1.8386E-03   setid =    1087 xmoment=   0.0000E+00 ymoment=   0.0000E+00 zmoment=   0.0000E+00
 nd#    1649  xforce=   0.0000E+00   yforce=   0.0000E+00  zforce=  -1.1789E+02   energy=   3.2135E-03   setid =    1649 xmoment=   0.0000E+00 ymoment=   0.0000E+00 zmoment=   0.0000E+00
 nd#    1651  xforce=   0.0000E+00   yforce=   0.0000E+00  zforce=  -1.6893E+02   energy=   3.6919E-03   setid =    1651 xmoment=   0.0000E+00 ymoment=   0.0000E+00 zmoment=   0.0000E+00
 nd#    1653  xforce=   0.0000E+00   yforce=   0.0000E+00  zforce=  -1.5787E+02   energy=   3.5837E-03   setid =    1653 xmoment=   0.0000E+00 ymoment=   0.0000E+00 zmoment=   0.0000E+00
 nd#    1655  xforce=   0.0000E+00   yforce=   0.0000E+00  zforce=  -1.5748E+02   energy=   3.5508E-03   setid =    1655 xmoment=   0.0000E+00 ymoment=   0.0000E+00 zmoment=   0.0000E+00
 nd#    1657  xforce=   0.0000E+00   yforce=   0.0000E+00  zforce=  -1.2431E+02   energy=   3.2068E-03   setid =    1657 xmoment=   0.0000E+00 ymoment=   0.0000E+00 zmoment=   0.0000E+00
 nd#    1659  xforce=   0.0000E+00   yforce=   0.0000E+00  zforce=  -5.9548E+01   energy=   1.6146E-03   setid =    1659 xmoment=   0.0000E+00 ymoment=   0.0000E+00 zmoment=   0.0000E+00
 nd#    1733  xforce=   0.0000E+00   yforce=   0.0000E+00  zforce=  -1.0303E+02   energy=   4.1026E-03   setid =    1733 xmoment=   0.0000E+00 ymoment=   0.0000E+00 zmoment=   0.0000E+00
 nd#    1734  xforce=   0.0000E+00   yforce=   0.0000E+00  zforce=  -8.0420E+01   energy=   4.1712E-03   setid =    1734 xmoment=   0.0000E+00 ymoment=   0.0000E+00 zmoment=   0.0000E+00
 nd#    1735  xforce=   0.0000E+00   yforce=   0.0000E+00  zforce=  -1.5884E+02   energy=   4.7001E-03   setid =    1735 xmoment=   0.0000E+00 ymoment=   0.0000E+00 zmoment=   0.0000E+00
 nd#    1736  xforce=   0.0000E+00   yforce=   0.0000E+00  zforce=  -1.3731E+02   energy=   4.8459E-03   setid =    1736 xmoment=   0.0000E+00 ymoment=   0.0000E+00 zmoment=   0.0000E+00
 nd#    1737  xforce=   0.0000E+00   yforce=   0.0000E+00  zforce=  -1.6409E+02   energy=   4.7869E-03   setid =    1737 xmoment=   0.0000E+00 ymoment=   0.0000E+00 zmoment=   0.0000E+00
 nd#    1738  xforce=   0.0000E+00   yforce=   0.0000E+00  zforce=  -1.5547E+02   energy=   5.1145E-03   setid =    1738 xmoment=   0.0000E+00 ymoment=   0.0000E+00 zmoment=   0.0000E+00
 nd#    1739  xforce=   0.0000E+00   yforce=   0.0000E+00  zforce=  -1.8217E+02   energy=   5.0109E-03   setid =    1739 xmoment=   0.0000E+00 ymoment=   0.0000E+00 zmoment=   0.0000E+00
 nd#    1740  xforce=   0.0000E+00   yforce=   0.0000E+00  zforce=  -1.5308E+02   energy=   5.0667E-03   setid =    1740 xmoment=   0.0000E+00 ymoment=   0.0000E+00 zmoment=   0.0000E+00
 nd#    1741  xforce=   0.0000E+00   yforce=   0.0000E+00  zforce=  -1.3399E+02   energy=   4.4816E-03   setid =    1741 xmoment=   0.0000E+00 ymoment=   0.0000E+00 zmoment=   0.0000E+00
 nd#    1742  xforce=   0.0000E+00   yforce=   0.0000E+00  zforce=  -7.2454E+01   energy=   4.0916E-03   setid =    1742 xmoment=   0.0000E+00 ymoment=   0.0000E+00 zmoment=   0.0000E+00
 nd#    1743  xforce=   0.0000E+00   yforce=   0.0000E+00  zforce=  -4.6144E+01   energy=   2.0296E-03   setid =    1743 xmoment=   0.0000E+00 ymoment=   0.0000E+00 zmoment=   0.0000E+00
 nd#    1744  xforce=   0.0000E+00   yforce=   0.0000E+00  zforce=  -4.5422E+00   energy=   1.6960E-03   setid =    1744 xmoment=   0.0000E+00 ymoment=   0.0000E+00 zmoment=   0.0000E+00
 nd#    1751  xforce=   0.0000E+00   yforce=   0.0000E+00  zforce=  -1.2644E+02   energy=   3.6464E-03   setid =    1751 xmoment=   0.0000E+00 ymoment=   0.0000E+00 zmoment=   0.0000E+00
 nd#    1752  xforce=   0.0000E+00   yforce=   0.0000E+00  zforce=  -1.2503E+02   energy=   3.9771E-03   setid =    1752 xmoment=   0.0000E+00 ymoment=   0.0000E+00 zmoment=   0.0000E+00
 nd#    1753  xforce=   0.0000E+00   yforce=   0.0000E+00  zforce=  -1.7893E+02   energy=   4.1944E-03   setid =    1753 xmoment=   0.0000E+00 ymoment=   0.0000E+00 zmoment=   0.0000E+00
 nd#    1754  xforce=   0.0000E+00   yforce=   0.0000E+00  zforce=  -1.7620E+02   energy=   4.5198E-03   setid =    1754 xmoment=   0.0000E+00 ymoment=   0.0000E+00 zmoment=   0.0000E+00
 nd#    1755  xforce=   0.0000E+00   yforce=   0.0000E+00  zforce=  -1.6796E+02   energy=   4.0788E-03   setid =    1755 xmoment=   0.0000E+00 ymoment=   0.0000E+00 zmoment=   0.0000E+00
 nd#    1756  xforce=   0.0000E+00   yforce=   0.0000E+00  zforce=  -1.7449E+02   energy=   4.5079E-03   setid =    1756 xmoment=   0.0000E+00 ymoment=   0.0000E+00 zmoment=   0.0000E+00
 nd#    1757  xforce=   0.0000E+00   yforce=   0.0000E+00  zforce=  -1.6988E+02   energy=   4.0653E-03   setid =    1757 xmoment=   0.0000E+00 ymoment=   0.0000E+00 zmoment=   0.0000E+00
 nd#    1758  xforce=   0.0000E+00   yforce=   0.0000E+00  zforce=  -1.8183E+02   energy=   4.5771E-03   setid =    1758 xmoment=   0.0000E+00 ymoment=   0.0000E+00 zmoment=   0.0000E+00
 nd#    1759  xforce=   0.0000E+00   yforce=   0.0000E+00  zforce=  -1.3818E+02   energy=   3.7254E-03   setid =    1759 xmoment=   0.0000E+00 ymoment=   0.0000E+00 zmoment=   0.0000E+00
 nd#    1760  xforce=   0.0000E+00   yforce=   0.0000E+00  zforce=  -1.3983E+02   energy=   4.1110E-03   setid =    1760 xmoment=   0.0000E+00 ymoment=   0.0000E+00 zmoment=   0.0000E+00
 nd#    1761  xforce=   0.0000E+00   yforce=   0.0000E+00  zforce=  -5.9493E+01   energy=   1.7811E-03   setid =    1761 xmoment=   0.0000E+00 ymoment=   0.0000E+00 zmoment=   0.0000E+00
 nd#    1762  xforce=   0.0000E+00   yforce=   0.0000E+00  zforce=  -5.7772E+01   energy=   1.9456E-03   setid =    1762 xmoment=   0.0000E+00 ymoment=   0.0000E+00 zmoment=   0.0000E+00
 nd#    1769  xforce=   0.0000E+00   yforce=   0.0000E+00  zforce=   5.6990E+01   energy=   1.9726E-04   setid =    1769 xmoment=   0.0000E+00 ymoment=   0.0000E+00 zmoment=   0.0000E+00
 nd#    1770  xforce=   0.0000E+00   yforce=   0.0000E+00  zforce=   7.1816E+01   energy=  -5.4754E-05   setid =    1770 xmoment=   0.0000E+00 ymoment=   0.0000E+00 zmoment=   0.0000E+00
 nd#    1771  xforce=   0.0000E+00   yforce=   0.0000E+00  zforce=   8.9685E+01   energy=  -3.3215E-04   setid =    1771 xmoment=   0.0000E+00 ymoment=   0.0000E+00 zmoment=   0.0000E+00
 nd#    1772  xforce=   0.0000E+00   yforce=   0.0000E+00  zforce=   9.9386E+01   energy=  -4.7282E-04   setid =    1772 xmoment=   0.0000E+00 ymoment=   0.0000E+00 zmoment=   0.0000E+00
 nd#    1773  xforce=   0.0000E+00   yforce=   0.0000E+00  zforce=   1.2638E+02   energy=  -7.7560E-04   setid =    1773 xmoment=   0.0000E+00 ymoment=   0.0000E+00 zmoment=   0.0000E+00
 nd#    1774  xforce=   0.0000E+00   yforce=   0.0000E+00  zforce=   7.1476E+01   energy=  -4.8276E-04   setid =    1774 xmoment=   0.0000E+00 ymoment=   0.0000E+00 zmoment=   0.0000E+00
              xtotal=   0.0000E+00   ytotal=   0.0000E+00  ztotal=  -5.4711E+03   etotal=   1.6456E-01

 n o d a l   f o r c e/e n e r g y    o u t p u t  t=   1.11298E+01

 velocity boundary condition forces/rigid body moments 

 nd#     354  xforce=   0.0000E+00   yforce=   0.0000E+00  zforce=  -6.9379E+01   energy=   1.8291E-03   setid =     354 xmoment=   0.0000E+00 ymoment=   0.0000E+00 zmoment=   0.0000E+00
 nd#     355  xforce=   0.0000E+00   yforce=   0.0000E+00  zforce=  -7.1417E+01   energy=   2.2654E-03   setid =     355 xmoment=   0.0000E+00 ymoment=   0.0000E+00 zmoment=   0.0000E+00
 nd#     356  xforce=   0.0000E+00   yforce=   0.0000E+00  zforce=  -2.8246E+01   energy=   1.2605E-03   setid =     356 xmoment=   0.0000E+00 ymoment=   0.0000E+00 zmoment=   0.0000E+00
 nd#     357  xforce=   0.0000E+00   yforce=   0.0000E+00  zforce=  -3.5601E+01   energy=   1.3686E-03   setid =     357 xmoment=   0.0000E+00 ymoment=   0.0000E+00 zmoment=   0.0000E+00
 nd#     403  xforce=   0.0000E+00   yforce=   0.0000E+00  zforce=  -5.6995E+01   energy=   9.6380E-04   setid =     403 xmoment=   0.0000E+00 ymoment=   0.0000E+00 zmoment=   0.0000E+00
 nd#     404  xforce=   0.0000E+00   yforce=   0.0000E+00  zforce=  -6.8373E+01   energy=   1.7560E-03   setid =     404 xmoment=   0.0000E+00 ymoment=   0.0000E+00 zmoment=   0.0000E+00
 nd#     405  xforce=   0.0000E+00   yforce=   0.0000E+00  zforce=  -6.0846E+01   energy=   1.2156E-03   setid =     405 xmoment=   0.0000E+00 ymoment=   0.0000E+00 zmoment=   0.0000E+00
 nd#     466  xforce=   0.0000E+00   yforce=   0.0000E+00  zforce=  -4.0179E+01   energy=   1.0320E-03   setid =     466 xmoment=   0.0000E+00 ymoment=   0.0000E+00 zmoment=   0.0000E+00
 nd#     467  xforce=   0.0000E+00   yforce=   0.0000E+00  zforce=  -2.9238E+01   energy=   9.3344E-05   setid =     467 xmoment=   0.0000E+00 ymoment=   0.0000E+00 zmoment=   0.0000E+00
 nd#     468  xforce=   0.0000E+00   yforce=   0.0000E+00  zforce=  -2.8286E+01   energy=   1.0647E-03   setid =     468 xmoment=   0.0000E+00 ymoment=   0.0000E+00 zmoment=   0.0000E+00
 nd#     469  xforce=   0.0000E+00   yforce=   0.0000E+00  zforce=  -5.0020E+01   energy=   1.2415E-03   setid =     469 xmoment=   0.0000E+00 ymoment=   0.0000E+00 zmoment=   0.0000E+00
 nd#     530  xforce=   0.0000E+00   yforce=   0.0000E+00  zforce=  -3.1949E+01   energy=   4.7291E-04   setid =     530 xmoment=   0.0000E+00 ymoment=   0.0000E+00 zmoment=   0.0000E+00
 nd#     531  xforce=   0.0000E+00   yforce=   0.0000E+00  zforce=  -3.3326E+01   energy=   9.9179E-04   setid =     531 xmoment=   0.0000E+00 ymoment=   0.0000E+00 zmoment=   0.0000E+00
 nd#     532  xforce=   0.0000E+00   yforce=   0.0000E+00  zforce=  -6.5266E+01   energy=   1.2215E-03   setid =     532 xmoment=   0.0000E+00 ymoment=   0.0000E+00 zmoment=   0.0000E+00
 nd#     533  xforce=   0.0000E+00   yforce=   0.0000E+00  zforce=  -6.5956E+01   energy=   1.0505E-03   setid =     533 xmoment=   0.0000E+00 ymoment=   0.0000E+00 zmoment=   0.0000E+00
 nd#     549  xforce=   0.0000E+00   yforce=   0.0000E+00  zforce=  -3.2283E+01   energy=   6.2923E-04   setid =     549 xmoment=   0.0000E+00 ymoment=   0.0000E+00 zmoment=   0.0000E+00
 nd#     610  xforce=   0.0000E+00   yforce=   0.0000E+00  zforce=  -5.6380E+01   energy=   1.8147E-03   setid =     610 xmoment=   0.0000E+00 ymoment=   0.0000E+00 zmoment=   0.0000E+00
 nd#     611  xforce=   0.0000E+00   yforce=   0.0000E+00  zforce=  -8.9336E+01   energy=   1.8526E-03   setid =     611 xmoment=   0.0000E+00 ymoment=   0.0000E+00 zmoment=   0.0000E+00
 nd#     612  xforce=   0.0000E+00   yforce=   0.0000E+00  zforce=  -1.3495E+02   energy=   3.2073E-03   setid =     612 xmoment=   0.0000E+00 ymoment=   0.0000E+00 zmoment=   0.0000E+00
 nd#     613  xforce=   0.0000E+00   yforce=   0.0000E+00  zforce=  -1.1496E+02   energy=   3.3760E-03   setid =     613 xmoment=   0.0000E+00 ymoment=   0.0000E+00 zmoment=   0.0000E+00
 nd#     629  xforce=   0.0000E+00   yforce=   0.0000E+00  zforce=  -5.9641E+01   energy=   1.6967E-03   setid =     629 xmoment=   0.0000E+00 ymoment=   0.0000E+00 zmoment=   0.0000E+00
 nd#     660  xforce=   0.0000E+00   yforce=   0.0000E+00  zforce=  -3.0437E+01   energy=   1.2535E-03   setid =     660 xmoment=   0.0000E+00 ymoment=   0.0000E+00 zmoment=   0.0000E+00
 nd#     661  xforce=   0.0000E+00   yforce=   0.0000E+00  zforce=  -5.5269E+01   energy=   1.3980E-03   setid =     661 xmoment=   0.0000E+00 ymoment=   0.0000E+00 zmoment=   0.0000E+00
 nd#     692  xforce=   0.0000E+00   yforce=   0.0000E+00  zforce=  -1.1023E+02   energy=   3.1300E-03   setid =     692 xmoment=   0.0000E+00 ymoment=   0.0000E+00 zmoment=   0.0000E+00
 nd#     693  xforce=   0.0000E+00   yforce=   0.0000E+00  zforce=  -1.0477E+02   energy=   2.9417E-03   setid =     693 xmoment=   0.0000E+00 ymoment=   0.0000E+00 zmoment=   0.0000E+00
[...]
 nd#    1737  xforce=   0.0000E+00   yforce=   0.0000E+00  zforce=  -1.9316E+02   energy=   1.0099E-01   setid =    1737 xmoment=   0.0000E+00 ymoment=   0.0000E+00 zmoment=   0.0000E+00
 nd#    1738  xforce=   0.0000E+00   yforce=   0.0000E+00  zforce=  -1.7392E+02   energy=   9.6620E-02   setid =    1738 xmoment=   0.0000E+00 ymoment=   0.0000E+00 zmoment=   0.0000E+00
 nd#    1739  xforce=   0.0000E+00   yforce=   0.0000E+00  zforce=  -1.9091E+02   energy=   1.0451E-01   setid =    1739 xmoment=   0.0000E+00 ymoment=   0.0000E+00 zmoment=   0.0000E+00
 nd#    1740  xforce=   0.0000E+00   yforce=   0.0000E+00  zforce=  -1.4653E+02   energy=   8.8842E-02   setid =    1740 xmoment=   0.0000E+00 ymoment=   0.0000E+00 zmoment=   0.0000E+00
 nd#    1741  xforce=   0.0000E+00   yforce=   0.0000E+00  zforce=  -1.2135E+02   energy=   7.7192E-02   setid =    1741 xmoment=   0.0000E+00 ymoment=   0.0000E+00 zmoment=   0.0000E+00
 nd#    1742  xforce=   0.0000E+00   yforce=   0.0000E+00  zforce=  -5.3692E+01   energy=   4.6125E-02   setid =    1742 xmoment=   0.0000E+00 ymoment=   0.0000E+00 zmoment=   0.0000E+00
 nd#    1743  xforce=   0.0000E+00   yforce=   0.0000E+00  zforce=  -5.2835E+01   energy=   3.2513E-02   setid =    1743 xmoment=   0.0000E+00 ymoment=   0.0000E+00 zmoment=   0.0000E+00
 nd#    1744  xforce=   0.0000E+00   yforce=   0.0000E+00  zforce=  -8.1667E+00   energy=   1.0928E-02   setid =    1744 xmoment=   0.0000E+00 ymoment=   0.0000E+00 zmoment=   0.0000E+00
 nd#    1751  xforce=   0.0000E+00   yforce=   0.0000E+00  zforce=  -1.5098E+02   energy=   8.0549E-02   setid =    1751 xmoment=   0.0000E+00 ymoment=   0.0000E+00 zmoment=   0.0000E+00
 nd#    1752  xforce=   0.0000E+00   yforce=   0.0000E+00  zforce=  -1.4715E+02   energy=   7.9844E-02   setid =    1752 xmoment=   0.0000E+00 ymoment=   0.0000E+00 zmoment=   0.0000E+00
 nd#    1753  xforce=   0.0000E+00   yforce=   0.0000E+00  zforce=  -1.8937E+02   energy=   9.8145E-02   setid =    1753 xmoment=   0.0000E+00 ymoment=   0.0000E+00 zmoment=   0.0000E+00
 nd#    1754  xforce=   0.0000E+00   yforce=   0.0000E+00  zforce=  -1.9765E+02   energy=   1.0209E-01   setid =    1754 xmoment=   0.0000E+00 ymoment=   0.0000E+00 zmoment=   0.0000E+00
 nd#    1755  xforce=   0.0000E+00   yforce=   0.0000E+00  zforce=  -1.8617E+02   energy=   9.5732E-02   setid =    1755 xmoment=   0.0000E+00 ymoment=   0.0000E+00 zmoment=   0.0000E+00
 nd#    1756  xforce=   0.0000E+00   yforce=   0.0000E+00  zforce=  -1.9582E+02   energy=   1.0174E-01   setid =    1756 xmoment=   0.0000E+00 ymoment=   0.0000E+00 zmoment=   0.0000E+00
 nd#    1757  xforce=   0.0000E+00   yforce=   0.0000E+00  zforce=  -1.7017E+02   energy=   9.2128E-02   setid =    1757 xmoment=   0.0000E+00 ymoment=   0.0000E+00 zmoment=   0.0000E+00
 nd#    1758  xforce=   0.0000E+00   yforce=   0.0000E+00  zforce=  -1.9126E+02   energy=   1.0262E-01   setid =    1758 xmoment=   0.0000E+00 ymoment=   0.0000E+00 zmoment=   0.0000E+00
 nd#    1759  xforce=   0.0000E+00   yforce=   0.0000E+00  zforce=  -1.2671E+02   energy=   7.3372E-02   setid =    1759 xmoment=   0.0000E+00 ymoment=   0.0000E+00 zmoment=   0.0000E+00
 nd#    1760  xforce=   0.0000E+00   yforce=   0.0000E+00  zforce=  -1.3807E+02   energy=   8.0348E-02   setid =    1760 xmoment=   0.0000E+00 ymoment=   0.0000E+00 zmoment=   0.0000E+00
 nd#    1761  xforce=   0.0000E+00   yforce=   0.0000E+00  zforce=  -6.6328E+01   energy=   3.5129E-02   setid =    1761 xmoment=   0.0000E+00 ymoment=   0.0000E+00 zmoment=   0.0000E+00
 nd#    1762  xforce=   0.0000E+00   yforce=   0.0000E+00  zforce=  -6.5995E+01   energy=   3.5800E-02   setid =    1762 xmoment=   0.0000E+00 ymoment=   0.0000E+00 zmoment=   0.0000E+00
 nd#    1769  xforce=   0.0000E+00   yforce=   0.0000E+00  zforce=   3.3054E+01   energy=  -1.8567E-02   setid =    1769 xmoment=   0.0000E+00 ymoment=   0.0000E+00 zmoment=   0.0000E+00
 nd#    1770  xforce=   0.0000E+00   yforce=   0.0000E+00  zforce=   4.5092E+01   energy=  -2.5687E-02   setid =    1770 xmoment=   0.0000E+00 ymoment=   0.0000E+00 zmoment=   0.0000E+00
 nd#    1771  xforce=   0.0000E+00   yforce=   0.0000E+00  zforce=   5.3416E+01   energy=  -3.2127E-02   setid =    1771 xmoment=   0.0000E+00 ymoment=   0.0000E+00 zmoment=   0.0000E+00
 nd#    1772  xforce=   0.0000E+00   yforce=   0.0000E+00  zforce=   5.9364E+01   energy=  -3.6834E-02   setid =    1772 xmoment=   0.0000E+00 ymoment=   0.0000E+00 zmoment=   0.0000E+00
 nd#    1773  xforce=   0.0000E+00   yforce=   0.0000E+00  zforce=   5.8739E+01   energy=  -4.4909E-02   setid =    1773 xmoment=   0.0000E+00 ymoment=   0.0000E+00 zmoment=   0.0000E+00
 nd#    1774  xforce=   0.0000E+00   yforce=   0.0000E+00  zforce=   2.9826E+01   energy=  -2.5623E-02   setid =    1774 xmoment=   0.0000E+00 ymoment=   0.0000E+00 zmoment=   0.0000E+00
              xtotal=   0.0000E+00   ytotal=   0.0000E+00  ztotal=  -6.0013E+03   etotal=   3.2390E+00

 n o d a l   f o r c e/e n e r g y    o u t p u t  t=   1.00000E+02

 velocity boundary condition forces/rigid body moments 

 nd#     354  xforce=   0.0000E+00   yforce=   0.0000E+00  zforce=  -6.1353E+01   energy=   3.3528E-02   setid =     354 xmoment=   0.0000E+00 ymoment=   0.0000E+00 zmoment=   0.0000E+00
 nd#     355  xforce=   0.0000E+00   yforce=   0.0000E+00  zforce=  -6.3809E+01   energy=   3.6622E-02   setid =     355 xmoment=   0.0000E+00 ymoment=   0.0000E+00 zmoment=   0.0000E+00
 nd#     356  xforce=   0.0000E+00   yforce=   0.0000E+00  zforce=  -6.9597E+01   energy=   2.9254E-02   setid =     356 xmoment=   0.0000E+00 ymoment=   0.0000E+00 zmoment=   0.0000E+00
 nd#     357  xforce=   0.0000E+00   yforce=   0.0000E+00  zforce=  -8.3252E+01   energy=   3.5135E-02   setid =     357 xmoment=   0.0000E+00 ymoment=   0.0000E+00 zmoment=   0.0000E+00
 nd#     403  xforce=   0.0000E+00   yforce=   0.0000E+00  zforce=  -3.3846E+01   energy=   1.9672E-02   setid =     403 xmoment=   0.0000E+00 ymoment=   0.0000E+00 zmoment=   0.0000E+00
 nd#     404  xforce=   0.0000E+00   yforce=   0.0000E+00  zforce=  -8.0331E+01   energy=   3.8995E-02   setid =     404 xmoment=   0.0000E+00 ymoment=   0.0000E+00 zmoment=   0.0000E+00
 nd#     405  xforce=   0.0000E+00   yforce=   0.0000E+00  zforce=  -2.0288E+01   energy=   1.6444E-02   setid =     405 xmoment=   0.0000E+00 ymoment=   0.0000E+00 zmoment=   0.0000E+00
 nd#     466  xforce=   0.0000E+00   yforce=   0.0000E+00  zforce=  -6.0832E+01   energy=   2.5049E-02   setid =     466 xmoment=   0.0000E+00 ymoment=   0.0000E+00 zmoment=   0.0000E+00
 nd#     467  xforce=   0.0000E+00   yforce=   0.0000E+00  zforce=   1.7734E+00   energy=   4.5683E-03   setid =     467 xmoment=   0.0000E+00 ymoment=   0.0000E+00 zmoment=   0.0000E+00
 nd#     468  xforce=   0.0000E+00   yforce=   0.0000E+00  zforce=  -4.2677E+01   energy=   2.3330E-02   setid =     468 xmoment=   0.0000E+00 ymoment=   0.0000E+00 zmoment=   0.0000E+00
 nd#     469  xforce=   0.0000E+00   yforce=   0.0000E+00  zforce=  -5.6731E+01   energy=   2.6480E-02   setid =     469 xmoment=   0.0000E+00 ymoment=   0.0000E+00 zmoment=   0.0000E+00
 nd#     530  xforce=   0.0000E+00   yforce=   0.0000E+00  zforce=   2.6385E+01   energy=  -9.4592E-04   setid =     530 xmoment=   0.0000E+00 ymoment=   0.0000E+00 zmoment=   0.0000E+00
 nd#     531  xforce=   0.0000E+00   yforce=   0.0000E+00  zforce=  -1.5096E+01   energy=   1.3862E-02   setid =     531 xmoment=   0.0000E+00 ymoment=   0.0000E+00 zmoment=   0.0000E+00
 nd#     532  xforce=   0.0000E+00   yforce=   0.0000E+00  zforce=  -5.8756E+00   energy=   5.8458E-03   setid =     532 xmoment=   0.0000E+00 ymoment=   0.0000E+00 zmoment=   0.0000E+00
 nd#     533  xforce=   0.0000E+00   yforce=   0.0000E+00  zforce=   1.6245E+01   energy=  -1.2870E-03   setid =     533 xmoment=   0.0000E+00 ymoment=   0.0000E+00 zmoment=   0.0000E+00
 nd#     549  xforce=   0.0000E+00   yforce=   0.0000E+00  zforce=   2.4265E+01   energy=  -1.2051E-03   setid =     549 xmoment=   0.0000E+00 ymoment=   0.0000E+00 zmoment=   0.0000E+00
 nd#     610  xforce=   0.0000E+00   yforce=   0.0000E+00  zforce=  -9.6650E+01   energy=   4.4447E-02   setid =     610 xmoment=   0.0000E+00 ymoment=   0.0000E+00 zmoment=   0.0000E+00
 nd#     611  xforce=   0.0000E+00   yforce=   0.0000E+00  zforce=  -1.1072E+02   energy=   4.8416E-02   setid =     611 xmoment=   0.0000E+00 ymoment=   0.0000E+00 zmoment=   0.0000E+00
 nd#     612  xforce=   0.0000E+00   yforce=   0.0000E+00  zforce=  -1.2915E+02   energy=   6.5690E-02   setid =     612 xmoment=   0.0000E+00 ymoment=   0.0000E+00 zmoment=   0.0000E+00
 nd#     613  xforce=   0.0000E+00   yforce=   0.0000E+00  zforce=  -1.3598E+02   energy=   6.8774E-02   setid =     613 xmoment=   0.0000E+00 ymoment=   0.0000E+00 zmoment=   0.0000E+00
 nd#     629  xforce=   0.0000E+00   yforce=   0.0000E+00  zforce=  -9.2964E+01   energy=   4.0951E-02   setid =     629 xmoment=   0.0000E+00 ymoment=   0.0000E+00 zmoment=   0.0000E+00
 nd#     660  xforce=   0.0000E+00   yforce=   0.0000E+00  zforce=  -1.2747E+02   energy=   4.7655E-02   setid =     660 xmoment=   0.0000E+00 ymoment=   0.0000E+00 zmoment=   0.0000E+00
 nd#     661  xforce=   0.0000E+00   yforce=   0.0000E+00  zforce=  -1.2795E+02   energy=   4.6577E-02   setid =     661 xmoment=   0.0000E+00 ymoment=   0.0000E+00 zmoment=   0.0000E+00
 nd#     692  xforce=   0.0000E+00   yforce=   0.0000E+00  zforce=  -1.2859E+02   energy=   6.3916E-02   setid =     692 xmoment=   0.0000E+00 ymoment=   0.0000E+00 zmoment=   0.0000E+00
 nd#     693  xforce=   0.0000E+00   yforce=   0.0000E+00  zforce=  -1.0356E+02   energy=   5.4837E-02   setid =     693 xmoment=   0.0000E+00 ymoment=   0.0000E+00 zmoment=   0.0000E+00
 nd#     724  xforce=   0.0000E+00   yforce=   0.0000E+00  zforce=  -9.0290E+01   energy=   3.4250E-02   setid =     724 xmoment=   0.0000E+00 ymoment=   0.0000E+00 zmoment=   0.0000E+00
 nd#     725  xforce=   0.0000E+00   yforce=   0.0000E+00  zforce=  -2.4844E+01   energy=   1.8639E-02   setid =     725 xmoment=   0.0000E+00 ymoment=   0.0000E+00 zmoment=   0.0000E+00
 nd#     771  xforce=   0.0000E+00   yforce=   0.0000E+00  zforce=   5.1846E+01   energy=  -1.1113E-02   setid =     771 xmoment=   0.0000E+00 ymoment=   0.0000E+00 zmoment=   0.0000E+00
 nd#     772  xforce=   0.0000E+00   yforce=   0.0000E+00  zforce=  -8.6299E+01   energy=   3.3905E-02   setid =     772 xmoment=   0.0000E+00 ymoment=   0.0000E+00 zmoment=   0.0000E+00
 nd#     773  xforce=   0.0000E+00   yforce=   0.0000E+00  zforce=  -7.4064E+01   energy=   2.9650E-02   setid =     773 xmoment=   0.0000E+00 ymoment=   0.0000E+00 zmoment=   0.0000E+00
 nd#     804  xforce=   0.0000E+00   yforce=   0.0000E+00  zforce=  -6.0916E+01   energy=   3.0391E-02   setid =     804 xmoment=   0.0000E+00 ymoment=   0.0000E+00 zmoment=   0.0000E+00
 nd#     805  xforce=   0.0000E+00   yforce=   0.0000E+00  zforce=  -6.5468E+01   energy=   3.4757E-02   setid =     805 xmoment=   0.0000E+00 ymoment=   0.0000E+00 zmoment=   0.0000E+00
 nd#     821  xforce=   0.0000E+00   yforce=   0.0000E+00  zforce=   2.6808E+00   energy=   8.9002E-03   setid =     821 xmoment=   0.0000E+00 ymoment=   0.0000E+00 zmoment=   0.0000E+00
 nd#     852  xforce=   0.0000E+00   yforce=   0.0000E+00  zforce=   3.0826E+00   energy=   1.2414E-03   setid =     852 xmoment=   0.0000E+00 ymoment=   0.0000E+00 zmoment=   0.0000E+00
 nd#     853  xforce=   0.0000E+00   yforce=   0.0000E+00  zforce=  -4.9713E+01   energy=   2.3422E-02   setid =     853 xmoment=   0.0000E+00 ymoment=   0.0000E+00 zmoment=   0.0000E+00
 nd#     869  xforce=   0.0000E+00   yforce=   0.0000E+00  zforce=  -2.4017E+01   energy=   1.7959E-02   setid =     869 xmoment=   0.0000E+00 ymoment=   0.0000E+00 zmoment=   0.0000E+00
 nd#     885  xforce=   0.0000E+00   yforce=   0.0000E+00  zforce=  -9.2508E+00   energy=   1.2177E-02   setid =     885 xmoment=   0.0000E+00 ymoment=   0.0000E+00 zmoment=   0.0000E+00
 nd#    1082  xforce=   0.0000E+00   yforce=   0.0000E+00  zforce=   2.7295E+01   energy=  -1.3050E-02   setid =    1082 xmoment=   0.0000E+00 ymoment=   0.0000E+00 zmoment=   0.0000E+00
 nd#    1083  xforce=   0.0000E+00   yforce=   0.0000E+00  zforce=  -3.0206E+01   energy=   1.7072E-02   setid =    1083 xmoment=   0.0000E+00 ymoment=   0.0000E+00 zmoment=   0.0000E+00
 nd#    1084  xforce=   0.0000E+00   yforce=   0.0000E+00  zforce=  -4.7752E+01   energy=   2.5362E-02   setid =    1084 xmoment=   0.0000E+00 ymoment=   0.0000E+00 zmoment=   0.0000E+00
 nd#    1085  xforce=   0.0000E+00   yforce=   0.0000E+00  zforce=  -6.3108E+01   energy=   3.2626E-02   setid =    1085 xmoment=   0.0000E+00 ymoment=   0.0000E+00 zmoment=   0.0000E+00
 nd#    1086  xforce=   0.0000E+00   yforce=   0.0000E+00  zforce=  -7.1008E+01   energy=   3.6428E-02   setid =    1086 xmoment=   0.0000E+00 ymoment=   0.0000E+00 zmoment=   0.0000E+00
 nd#    1087  xforce=   0.0000E+00   yforce=   0.0000E+00  zforce=  -6.9447E+01   energy=   3.6495E-02   setid =    1087 xmoment=   0.0000E+00 ymoment=   0.0000E+00 zmoment=   0.0000E+00
 nd#    1649  xforce=   0.0000E+00   yforce=   0.0000E+00  zforce=  -1.4278E+02   energy=   7.3809E-02   setid =    1649 xmoment=   0.0000E+00 ymoment=   0.0000E+00 zmoment=   0.0000E+00
 nd#    1651  xforce=   0.0000E+00   yforce=   0.0000E+00  zforce=  -1.7116E+02   energy=   8.6555E-02   setid =    1651 xmoment=   0.0000E+00 ymoment=   0.0000E+00 zmoment=   0.0000E+00
 nd#    1653  xforce=   0.0000E+00   yforce=   0.0000E+00  zforce=  -1.6747E+02   energy=   8.4164E-02   setid =    1653 xmoment=   0.0000E+00 ymoment=   0.0000E+00 zmoment=   0.0000E+00
 nd#    1655  xforce=   0.0000E+00   yforce=   0.0000E+00  zforce=  -1.5074E+02   energy=   7.9492E-02   setid =    1655 xmoment=   0.0000E+00 ymoment=   0.0000E+00 zmoment=   0.0000E+00
 nd#    1657  xforce=   0.0000E+00   yforce=   0.0000E+00  zforce=  -1.2208E+02   energy=   6.5789E-02   setid =    1657 xmoment=   0.0000E+00 ymoment=   0.0000E+00 zmoment=   0.0000E+00
 nd#    1659  xforce=   0.0000E+00   yforce=   0.0000E+00  zforce=  -7.5451E+01   energy=   3.6072E-02   setid =    1659 xmoment=   0.0000E+00 ymoment=   0.0000E+00 zmoment=   0.0000E+00
 nd#    1733  xforce=   0.0000E+00   yforce=   0.0000E+00  zforce=  -1.4358E+02   energy=   7.3162E-02   setid =    1733 xmoment=   0.0000E+00 ymoment=   0.0000E+00 zmoment=   0.0000E+00
 nd#    1734  xforce=   0.0000E+00   yforce=   0.0000E+00  zforce=  -1.2288E+02   energy=   6.2675E-02   setid =    1734 xmoment=   0.0000E+00 ymoment=   0.0000E+00 zmoment=   0.0000E+00
 nd#    1735  xforce=   0.0000E+00   yforce=   0.0000E+00  zforce=  -2.0191E+02   energy=   9.9171E-02   setid =    1735 xmoment=   0.0000E+00 ymoment=   0.0000E+00 zmoment=   0.0000E+00
 nd#    1736  xforce=   0.0000E+00   yforce=   0.0000E+00  zforce=  -1.7408E+02   energy=   8.8042E-02   setid =    1736 xmoment=   0.0000E+00 ymoment=   0.0000E+00 zmoment=   0.0000E+00
 nd#    1737  xforce=   0.0000E+00   yforce=   0.0000E+00  zforce=  -2.0472E+02   energy=   1.0193E-01   setid =    1737 xmoment=   0.0000E+00 ymoment=   0.0000E+00 zmoment=   0.0000E+00
 nd#    1738  xforce=   0.0000E+00   yforce=   0.0000E+00  zforce=  -1.8750E+02   energy=   9.7475E-02   setid =    1738 xmoment=   0.0000E+00 ymoment=   0.0000E+00 zmoment=   0.0000E+00
 nd#    1739  xforce=   0.0000E+00   yforce=   0.0000E+00  zforce=  -2.0259E+02   energy=   1.0544E-01   setid =    1739 xmoment=   0.0000E+00 ymoment=   0.0000E+00 zmoment=   0.0000E+00
 nd#    1740  xforce=   0.0000E+00   yforce=   0.0000E+00  zforce=  -1.5870E+02   energy=   8.9564E-02   setid =    1740 xmoment=   0.0000E+00 ymoment=   0.0000E+00 zmoment=   0.0000E+00
 nd#    1741  xforce=   0.0000E+00   yforce=   0.0000E+00  zforce=  -1.3379E+02   energy=   7.7796E-02   setid =    1741 xmoment=   0.0000E+00 ymoment=   0.0000E+00 zmoment=   0.0000E+00
 nd#    1742  xforce=   0.0000E+00   yforce=   0.0000E+00  zforce=  -6.5665E+01   energy=   4.6407E-02   setid =    1742 xmoment=   0.0000E+00 ymoment=   0.0000E+00 zmoment=   0.0000E+00
 nd#    1743  xforce=   0.0000E+00   yforce=   0.0000E+00  zforce=  -5.9111E+01   energy=   3.2778E-02   setid =    1743 xmoment=   0.0000E+00 ymoment=   0.0000E+00 zmoment=   0.0000E+00
 nd#    1744  xforce=   0.0000E+00   yforce=   0.0000E+00  zforce=  -1.3861E+01   energy=   1.0980E-02   setid =    1744 xmoment=   0.0000E+00 ymoment=   0.0000E+00 zmoment=   0.0000E+00
 nd#    1751  xforce=   0.0000E+00   yforce=   0.0000E+00  zforce=  -1.5926E+02   energy=   8.1284E-02   setid =    1751 xmoment=   0.0000E+00 ymoment=   0.0000E+00 zmoment=   0.0000E+00
 nd#    1752  xforce=   0.0000E+00   yforce=   0.0000E+00  zforce=  -1.5759E+02   energy=   8.0565E-02   setid =    1752 xmoment=   0.0000E+00 ymoment=   0.0000E+00 zmoment=   0.0000E+00
 nd#    1753  xforce=   0.0000E+00   yforce=   0.0000E+00  zforce=  -2.0040E+02   energy=   9.9068E-02   setid =    1753 xmoment=   0.0000E+00 ymoment=   0.0000E+00 zmoment=   0.0000E+00
 nd#    1754  xforce=   0.0000E+00   yforce=   0.0000E+00  zforce=  -2.1024E+02   energy=   1.0305E-01   setid =    1754 xmoment=   0.0000E+00 ymoment=   0.0000E+00 zmoment=   0.0000E+00
 nd#    1755  xforce=   0.0000E+00   yforce=   0.0000E+00  zforce=  -1.9468E+02   energy=   9.6633E-02   setid =    1755 xmoment=   0.0000E+00 ymoment=   0.0000E+00 zmoment=   0.0000E+00
 nd#    1756  xforce=   0.0000E+00   yforce=   0.0000E+00  zforce=  -2.0638E+02   energy=   1.0269E-01   setid =    1756 xmoment=   0.0000E+00 ymoment=   0.0000E+00 zmoment=   0.0000E+00
 nd#    1757  xforce=   0.0000E+00   yforce=   0.0000E+00  zforce=  -1.7959E+02   energy=   9.2956E-02   setid =    1757 xmoment=   0.0000E+00 ymoment=   0.0000E+00 zmoment=   0.0000E+00
 nd#    1758  xforce=   0.0000E+00   yforce=   0.0000E+00  zforce=  -2.0152E+02   energy=   1.0355E-01   setid =    1758 xmoment=   0.0000E+00 ymoment=   0.0000E+00 zmoment=   0.0000E+00
 nd#    1759  xforce=   0.0000E+00   yforce=   0.0000E+00  zforce=  -1.3650E+02   energy=   7.3996E-02   setid =    1759 xmoment=   0.0000E+00 ymoment=   0.0000E+00 zmoment=   0.0000E+00
 nd#    1760  xforce=   0.0000E+00   yforce=   0.0000E+00  zforce=  -1.4808E+02   energy=   8.1026E-02   setid =    1760 xmoment=   0.0000E+00 ymoment=   0.0000E+00 zmoment=   0.0000E+00
 nd#    1761  xforce=   0.0000E+00   yforce=   0.0000E+00  zforce=  -7.1311E+01   energy=   3.5455E-02   setid =    1761 xmoment=   0.0000E+00 ymoment=   0.0000E+00 zmoment=   0.0000E+00
 nd#    1762  xforce=   0.0000E+00   yforce=   0.0000E+00  zforce=  -7.0968E+01   energy=   3.6125E-02   setid =    1762 xmoment=   0.0000E+00 ymoment=   0.0000E+00 zmoment=   0.0000E+00
 nd#    1769  xforce=   0.0000E+00   yforce=   0.0000E+00  zforce=   3.2435E+01   energy=  -1.8722E-02   setid =    1769 xmoment=   0.0000E+00 ymoment=   0.0000E+00 zmoment=   0.0000E+00
 nd#    1770  xforce=   0.0000E+00   yforce=   0.0000E+00  zforce=   4.4358E+01   energy=  -2.5898E-02   setid =    1770 xmoment=   0.0000E+00 ymoment=   0.0000E+00 zmoment=   0.0000E+00
 nd#    1771  xforce=   0.0000E+00   yforce=   0.0000E+00  zforce=   5.3007E+01   energy=  -3.2379E-02   setid =    1771 xmoment=   0.0000E+00 ymoment=   0.0000E+00 zmoment=   0.0000E+00
 nd#    1772  xforce=   0.0000E+00   yforce=   0.0000E+00  zforce=   5.8336E+01   energy=  -3.7113E-02   setid =    1772 xmoment=   0.0000E+00 ymoment=   0.0000E+00 zmoment=   0.0000E+00
 nd#    1773  xforce=   0.0000E+00   yforce=   0.0000E+00  zforce=   5.6238E+01   energy=  -4.5181E-02   setid =    1773 xmoment=   0.0000E+00 ymoment=   0.0000E+00 zmoment=   0.0000E+00
 nd#    1774  xforce=   0.0000E+00   yforce=   0.0000E+00  zforce=   2.8385E+01   energy=  -2.5761E-02   setid =    1774 xmoment=   0.0000E+00 ymoment=   0.0000E+00 zmoment=   0.0000E+00
              xtotal=   0.0000E+00   ytotal=   0.0000E+00  ztotal=  -6.4213E+03   etotal=   3.2684E+00
