 LS-DYNA keyword deck by LS-PrePost                                      
                    ls-dyna smp d R14 R14.1.1s_1_ef50e1 date 06/16/2024



 e l e m e n t   s t r e s s   c a l c u l a t i o n s   f o r   t i m e  s t e p        1   ( at time 0.00000E+00 )

 element  materl
     ipt  stress       sig-xx      sig-yy      sig-zz      sig-xy      sig-yz      sig-zx                       yield
           state                                                                                  effsg      function
      45-      1
       1          -1.9509E-06 -1.9509E-06 -1.9509E-06  0.0000E+00  0.0000E+00  0.0000E+00    0.0000E+00    0.0000E+00
      47-      1
       1          -1.9509E-06 -1.9509E-06 -1.9509E-06  0.0000E+00  0.0000E+00  0.0000E+00    0.0000E+00    0.0000E+00
      53-      1
       1          -3.9019E-06 -3.9019E-06 -3.9019E-06  0.0000E+00  0.0000E+00  0.0000E+00    0.0000E+00    0.0000E+00
      61-      1
       1           0.0000E+00  0.0000E+00  0.0000E+00  0.0000E+00  0.0000E+00  0.0000E+00    0.0000E+00    0.0000E+00
      67-      1
       1          -3.9019E-06 -3.9019E-06 -3.9019E-06  0.0000E+00  0.0000E+00  0.0000E+00    0.0000E+00    0.0000E+00
      79-      1
       1           0.0000E+00  0.0000E+00  0.0000E+00  0.0000E+00  0.0000E+00  0.0000E+00    0.0000E+00    0.0000E+00
      81-      1
       1          -1.9509E-06 -1.9509E-06 -1.9509E-06  0.0000E+00  0.0000E+00  0.0000E+00    0.0000E+00    0.0000E+00



 e l e m e n t   s t r a i n   c a l c u l a t i o n s   f o r   t i m e  s t e p        1   ( at time  0.00000E+00 )

 element  strain       eps-xx      eps-yy      eps-zz      eps-xy      eps-yz      eps-zx                            yield
 num/ipt   state
      45-      1
      1            0.0000E+00  0.0000E+00  0.0000E+00  0.0000E+00  0.0000E+00  0.0000E+00
      47-      1
      1            0.0000E+00  0.0000E+00  0.0000E+00  0.0000E+00  0.0000E+00  0.0000E+00
      53-      1
      1            0.0000E+00  0.0000E+00  0.0000E+00  0.0000E+00  0.0000E+00  0.0000E+00
      61-      1
      1            0.0000E+00  0.0000E+00  0.0000E+00  0.0000E+00  0.0000E+00  0.0000E+00
      67-      1
      1            0.0000E+00  0.0000E+00  0.0000E+00  0.0000E+00  0.0000E+00  0.0000E+00
      79-      1
      1            0.0000E+00  0.0000E+00  0.0000E+00  0.0000E+00  0.0000E+00  0.0000E+00
      81-      1
      1            0.0000E+00  0.0000E+00  0.0000E+00  0.0000E+00  0.0000E+00  0.0000E+00



 e l e m e n t   s t r e s s   c a l c u l a t i o n s   f o r   t i m e  s t e p        6   ( at time 2.50000E+00 )

 element  materl
     ipt  stress       sig-xx      sig-yy      sig-zz      sig-xy      sig-yz      sig-zx                       yield
           state                                                                                  effsg      function
      45-      1
       1          -2.4122E+07 -4.2056E+07 -1.5864E+08  1.0124E+07 -8.5538E+06 -1.8183E+07    1.3238E+08    0.0000E+00
      47-      1
       1          -3.8609E+07 -3.0687E+07 -1.6003E+08  1.3010E+07 -1.6669E+07 -1.1928E+07    1.3243E+08    0.0000E+00
      53-      1
       1          -3.1852E+07 -3.6790E+07 -1.6056E+08  1.3743E+07 -1.3474E+07 -1.5708E+07    1.3344E+08    0.0000E+00
      61-      1
       1          -1.9411E+07 -4.5436E+07 -1.5834E+08  3.8174E+06 -2.9673E+06 -1.9854E+07    1.3273E+08    0.0000E+00
      67-      1
       1          -4.2844E+07 -2.5412E+07 -1.5707E+08  9.4652E+06 -1.8455E+07 -7.0284E+06    1.2954E+08    0.0000E+00
      79-      1
       1          -3.6131E+07 -3.5995E+07 -7.9974E+07  1.5298E+05  4.2983E+04  1.2602E+03    4.3913E+07    0.0000E+00
      81-      1
       1          -4.4519E+07 -2.0665E+07 -1.5560E+08  3.7564E+06 -1.9840E+07 -2.2856E+06    1.2960E+08    0.0000E+00



 e l e m e n t   s t r a i n   c a l c u l a t i o n s   f o r   t i m e  s t e p        6   ( at time  2.50000E+00 )

 element  strain       eps-xx      eps-yy      eps-zz      eps-xy      eps-yz      eps-zx                            yield
 num/ipt   state
      45-      1
      1            6.1400E-04  2.7160E-04 -1.9534E-03  1.9325E-04 -1.6319E-04 -3.4678E-04
      47-      1
      1            3.5908E-04  5.1018E-04 -1.9582E-03  2.4831E-04 -3.1799E-04 -2.2747E-04
      53-      1
      1            4.8745E-04  3.9306E-04 -1.9690E-03  2.6231E-04 -2.5706E-04 -2.9957E-04
      61-      1
      1            6.9609E-04  1.9931E-04 -1.9556E-03  7.2861E-05 -5.6614E-05 -3.7864E-04
      67-      1
      1            2.5910E-04  5.9180E-04 -1.9209E-03  1.8068E-04 -3.5204E-04 -1.3404E-04
      79-      1
      1            3.7585E-05  4.0185E-05 -7.9913E-04  2.9194E-06  8.2475E-07  2.8547E-08
      81-      1
      1            2.0537E-04  6.6071E-04 -1.9147E-03  7.1713E-05 -3.7844E-04 -4.3587E-05



 e l e m e n t   s t r e s s   c a l c u l a t i o n s   f o r   t i m e  s t e p       10   ( at time 6.46223E+00 )

 element  materl
     ipt  stress       sig-xx      sig-yy      sig-zz      sig-xy      sig-yz      sig-zx                       yield
           state                                                                                  effsg      function
      45-      1
       1          -7.9601E+07 -1.2090E+08 -3.3695E+08  2.3645E+07 -1.6262E+07 -3.5085E+07    2.5193E+08    6.2595E-04
      47-      1
       1          -1.1306E+08 -9.5272E+07 -3.3927E+08  3.0288E+07 -3.0160E+07 -2.2403E+07    2.5000E+08    6.3664E-04
      53-      1
       1          -9.7993E+07 -1.1046E+08 -3.4004E+08  3.1617E+07 -2.4586E+07 -2.9356E+07    2.5124E+08    6.4456E-04
      61-      1
       1          -6.8047E+07 -1.2716E+08 -3.3172E+08  9.0196E+06 -5.6989E+06 -3.8388E+07    2.4938E+08    6.5286E-04
      67-      1
       1          -1.2043E+08 -7.9019E+07 -3.3739E+08  2.2783E+07 -3.5159E+07 -1.3722E+07    2.5219E+08    5.7901E-04
      79-      1
       1          -9.5658E+07 -9.4734E+07 -2.1053E+08  6.5110E+05  1.1372E+05 -4.4525E+04    1.1534E+08    0.0000E+00
      81-      1
       1          -1.2190E+08 -6.5455E+07 -3.2891E+08  9.2549E+06 -3.8324E+07 -4.4513E+06    2.4989E+08    5.9750E-04



 e l e m e n t   s t r a i n   c a l c u l a t i o n s   f o r   t i m e  s t e p       10   ( at time  6.46223E+00 )

 element  strain       eps-xx      eps-yy      eps-zz      eps-xy      eps-yz      eps-zx                            yield
 num/ipt   state
      45-      1
      1            2.0379E-03  8.6751E-04 -5.4609E-03  6.7425E-04 -4.9943E-04 -1.0446E-03
      47-      1
      1            1.1777E-03  1.6779E-03 -5.4577E-03  8.7937E-04 -9.5847E-04 -6.9289E-04
      53-      1
      1            1.6209E-03  1.2682E-03 -5.4959E-03  9.1642E-04 -7.8052E-04 -8.9748E-04
      61-      1
      1            2.3388E-03  6.3079E-04 -5.4761E-03  2.6076E-04 -1.7284E-04 -1.1454E-03
      67-      1
      1            8.2742E-04  1.9681E-03 -5.3470E-03  6.4092E-04 -1.0672E-03 -4.1666E-04
      79-      1
      1            9.1331E-05  1.0896E-04 -2.1009E-03  1.2424E-05  2.1697E-06 -8.4924E-07
      81-      1
      1            6.4241E-04  2.2258E-03 -5.3234E-03  2.6313E-04 -1.1492E-03 -1.3701E-04



 e l e m e n t   s t r e s s   c a l c u l a t i o n s   f o r   t i m e  s t e p      164   ( at time 9.37702E+00 )

 element  materl
     ipt  stress       sig-xx      sig-yy      sig-zz      sig-xy      sig-yz      sig-zx                       yield
           state                                                                                  effsg      function
      45-      1
       1          -8.7213E+07 -1.2553E+08 -3.3980E+08  2.7724E+07 -1.2224E+07 -2.9258E+07    2.4680E+08    6.3744E-03
      47-      1
       1          -9.3691E+07 -7.2252E+07 -3.1078E+08  3.6748E+07 -2.9146E+07 -2.6596E+07    2.4691E+08    6.2064E-03
      53-      1
       1          -1.0131E+08 -1.1297E+08 -3.2569E+08  3.5782E+07 -2.1704E+07 -2.7420E+07    2.3532E+08    6.4553E-03
      61-      1
       1          -5.6922E+07 -1.0711E+08 -3.1883E+08  1.0832E+07 -5.0248E+06 -3.2206E+07    2.4801E+08    7.2652E-03
      67-      1
       1          -1.1135E+08 -6.0542E+07 -3.2443E+08  2.5179E+07 -4.1923E+07 -2.2283E+07    2.5976E+08    6.4649E-03
      79-      1
       1          -1.4020E+08 -1.4112E+08 -3.5147E+08  7.9139E+06  2.7022E+06 -7.3183E+06    2.1168E+08    1.6805E-04
      81-      1
       1          -5.7754E+07 -1.6444E+07 -2.2044E+08  6.2838E+06 -3.8601E+07 -1.5702E+06    1.9872E+08    1.3543E-02



 e l e m e n t   s t r a i n   c a l c u l a t i o n s   f o r   t i m e  s t e p      164   ( at time  9.37702E+00 )

 element  strain       eps-xx      eps-yy      eps-zz      eps-xy      eps-yz      eps-zx                            yield
 num/ipt   state
      45-      1
      1            5.1719E-03  2.7758E-03 -1.0594E-02  1.6492E-03 -8.4260E-04 -1.9233E-03
      47-      1
      1            3.3076E-03  4.5348E-03 -1.0125E-02  2.1817E-03 -1.8996E-03 -1.6164E-03
      53-      1
      1            4.1335E-03  3.4005E-03 -1.0115E-02  2.1790E-03 -1.5024E-03 -1.7835E-03
      61-      1
      1            6.2665E-03  2.8193E-03 -1.1416E-02  6.2729E-04 -2.7266E-04 -2.2540E-03
      67-      1
      1            2.6575E-03  5.6740E-03 -1.0713E-02  1.5608E-03 -2.6443E-03 -1.3472E-03
      79-      1
      1            5.0825E-04  4.7156E-04 -3.9772E-03  1.7359E-04  8.4968E-05 -1.7123E-04
      81-      1
      1            3.3709E-03  7.1946E-03 -1.2033E-02  8.5651E-04 -4.1372E-03 -3.0731E-04



 e l e m e n t   s t r e s s   c a l c u l a t i o n s   f o r   t i m e  s t e p      222   ( at time 1.00551E+01 )

 element  materl
     ipt  stress       sig-xx      sig-yy      sig-zz      sig-xy      sig-yz      sig-zx                       yield
           state                                                                                  effsg      function
      45-      1
       1          -1.0193E+08 -1.4180E+08 -3.6281E+08  2.3247E+07 -1.4224E+07 -3.2038E+07    2.5407E+08    7.6093E-03
      47-      1
       1          -1.0615E+08 -8.8450E+07 -3.2591E+08  3.3751E+07 -2.9357E+07 -2.8263E+07    2.4678E+08    7.5259E-03
      53-      1
       1          -1.0452E+08 -1.1357E+08 -3.3517E+08  3.5763E+07 -2.1800E+07 -2.8959E+07    2.4285E+08    7.9346E-03
      61-      1
       1          -7.0029E+07 -1.2321E+08 -3.3578E+08  1.1013E+07 -5.4720E+06 -3.1062E+07    2.5034E+08    8.3648E-03
      67-      1
       1          -1.0904E+08 -6.2623E+07 -3.2693E+08  2.4161E+07 -4.2166E+07 -2.2155E+07    2.6135E+08    7.5077E-03
      79-      1
       1          -1.5328E+08 -1.5242E+08 -3.6770E+08  8.4480E+06  2.1805E+06 -7.5047E+06    2.1577E+08    3.5123E-04
      81-      1
       1          -7.0642E+07 -2.6601E+07 -2.5126E+08  6.8246E+06 -4.3111E+07 -2.0087E+06    2.1964E+08    1.4403E-02



 e l e m e n t   s t r a i n   c a l c u l a t i o n s   f o r   t i m e  s t e p      222   ( at time  1.00551E+01 )

 element  strain       eps-xx      eps-yy      eps-zz      eps-xy      eps-yz      eps-zx                            yield
 num/ipt   state
      45-      1
      1            5.8349E-03  3.1319E-03 -1.1869E-02  1.7175E-03 -9.8858E-04 -2.1986E-03
      47-      1
      1            3.7702E-03  5.0455E-03 -1.1306E-02  2.3712E-03 -2.1333E-03 -1.8553E-03
      53-      1
      1            4.7793E-03  4.0321E-03 -1.1456E-02  2.4697E-03 -1.6973E-03 -2.0575E-03
      61-      1
      1            6.8823E-03  3.0555E-03 -1.2487E-02  6.9695E-04 -3.1565E-04 -2.4171E-03
      67-      1
      1            3.0459E-03  6.2378E-03 -1.1677E-02  1.6853E-03 -2.8974E-03 -1.4762E-03
      79-      1
      1            5.3098E-04  5.3158E-04 -4.2519E-03  1.9278E-04  7.4324E-05 -1.8743E-04
      81-      1
      1            3.5995E-03  7.6868E-03 -1.3010E-02  8.9687E-04 -4.4241E-03 -3.1977E-04



 e l e m e n t   s t r e s s   c a l c u l a t i o n s   f o r   t i m e  s t e p      267   ( at time 1.11298E+01 )

 element  materl
     ipt  stress       sig-xx      sig-yy      sig-zz      sig-xy      sig-yz      sig-zx                       yield
           state                                                                                  effsg      function
      45-      1
       1          -4.1702E+07 -5.5553E+07 -2.3304E+08  1.5805E+07 -1.4160E+07 -2.8380E+07    1.9473E+08    1.8029E-02
      47-      1
       1          -7.2195E+07 -6.0859E+07 -2.8348E+08  2.2582E+07 -3.2402E+07 -1.6051E+07    2.2939E+08    1.5173E-02
      53-      1
       1          -5.9691E+07 -6.8971E+07 -2.5559E+08  1.8143E+07 -2.5586E+07 -2.7603E+07    2.0465E+08    1.8217E-02
      61-      1
       1          -1.1411E+08 -1.6382E+08 -2.9557E+08 -1.3550E+07 -3.7091E+06 -2.5301E+07    1.6997E+08    2.1403E-02
      67-      1
       1          -1.1290E+08 -7.4943E+07 -3.1400E+08  1.6500E+07 -3.0914E+07 -4.3397E+06    2.3077E+08    1.3826E-02
      79-      1
       1          -1.7939E+08 -1.7118E+08 -4.3123E+08  1.9486E+05  1.3945E+06 -3.6373E+06    2.5613E+08    1.6935E-03
      81-      1
       1          -1.2227E+08 -8.0754E+07 -2.4403E+08 -2.0770E+06 -1.9407E+07  7.4505E+05    1.5083E+08    2.5789E-02



 e l e m e n t   s t r a i n   c a l c u l a t i o n s   f o r   t i m e  s t e p      267   ( at time  1.11298E+01 )

 element  strain       eps-xx      eps-yy      eps-zz      eps-xy      eps-yz      eps-zx                            yield
 num/ipt   state
      45-      1
      1            9.3546E-03  6.3571E-03 -1.7343E-02  2.4025E-03 -1.8916E-03 -3.9606E-03
      47-      1
      1            6.5015E-03  8.1633E-03 -1.6683E-02  3.0468E-03 -3.4618E-03 -2.3477E-03
      53-      1
      1            8.5141E-03  7.1817E-03 -1.7570E-02  3.0928E-03 -3.2550E-03 -3.7523E-03
      61-      1
      1            1.0753E-02  4.0783E-03 -1.7620E-02 -8.6050E-04 -5.8069E-04 -4.5000E-03
      67-      1
      1            4.7717E-03  9.1279E-03 -1.6324E-02  2.0659E-03 -3.9123E-03 -1.2095E-03
      79-      1
      1            1.3081E-03  1.5220E-03 -6.5331E-03  2.3226E-05  7.2509E-05 -2.0066E-04
      81-      1
      1            4.4056E-03  1.0725E-02 -1.7345E-02  3.9755E-04 -5.6227E-03 -1.7053E-04



 e l e m e n t   s t r e s s   c a l c u l a t i o n s   f o r   t i m e  s t e p      271   ( at time 1.16684E+01 )

 element  materl
     ipt  stress       sig-xx      sig-yy      sig-zz      sig-xy      sig-yz      sig-zx                       yield
           state                                                                                  effsg      function
      45-      1
       1          -4.6980E+07 -6.9213E+07 -2.6403E+08  1.7690E+07 -1.4755E+07 -3.5344E+07    2.1936E+08    1.8755E-02
      47-      1
       1          -8.6063E+07 -7.0941E+07 -3.1394E+08  2.7134E+07 -3.4396E+07 -1.6582E+07    2.4937E+08    1.5381E-02
      53-      1
       1          -7.3065E+07 -8.3112E+07 -2.9630E+08  2.4615E+07 -2.9622E+07 -2.7018E+07    2.3310E+08    1.8336E-02
      61-      1
       1          -8.2327E+07 -1.3805E+08 -3.1192E+08 -1.0752E+07 -4.4680E+06 -3.0095E+07    2.1482E+08    2.2103E-02
      67-      1
       1          -1.1897E+08 -7.8347E+07 -3.3578E+08  1.9893E+07 -3.2448E+07 -6.5444E+06    2.4887E+08    1.4074E-02
      79-      1
       1          -1.8203E+08 -1.7534E+08 -4.3496E+08  4.1410E+05  8.2467E+05 -4.0749E+06    2.5644E+08    1.8066E-03
      81-      1
       1          -1.2496E+08 -7.4456E+07 -2.7582E+08  1.4780E+06 -1.9377E+07  2.5908E+05    1.8456E+08    2.5789E-02



 e l e m e n t   s t r a i n   c a l c u l a t i o n s   f o r   t i m e  s t e p      271   ( at time  1.16684E+01 )

 element  strain       eps-xx      eps-yy      eps-zz      eps-xy      eps-yz      eps-zx                            yield
 num/ipt   state
      45-      1
      1            9.7910E-03  6.5661E-03 -1.8225E-02  2.5110E-03 -1.9516E-03 -4.2138E-03
      47-      1
      1            6.5839E-03  8.3327E-03 -1.7192E-02  3.1645E-03 -3.5506E-03 -2.3767E-03
      53-      1
      1            8.6314E-03  7.2957E-03 -1.8124E-02  3.2358E-03 -3.3391E-03 -3.7492E-03
      61-      1
      1            1.1546E-02  4.5293E-03 -1.8671E-02 -8.4404E-04 -6.1103E-04 -4.6473E-03
      67-      1
      1            4.8926E-03  9.3437E-03 -1.6809E-02  2.1617E-03 -3.9790E-03 -1.2733E-03
      79-      1
      1            1.3615E-03  1.5510E-03 -6.6652E-03  2.7839E-05  6.2573E-05 -2.1151E-04
      81-      1
      1            4.4890E-03  1.0978E-02 -1.7816E-02  4.6477E-04 -5.6347E-03 -1.7901E-04



 e l e m e n t   s t r e s s   c a l c u l a t i o n s   f o r   t i m e  s t e p      412   ( at time 1.25220E+01 )

 element  materl
     ipt  stress       sig-xx      sig-yy      sig-zz      sig-xy      sig-yz      sig-zx                       yield
           state                                                                                  effsg      function
      45-      1
       1          -9.7668E+07 -1.2984E+08 -2.9549E+08  5.7604E+06 -1.2122E+07 -2.2711E+07    1.8945E+08    2.5394E-02
      47-      1
       1          -8.6446E+07 -8.2517E+07 -2.8374E+08  1.9743E+07 -2.3877E+07 -2.9933E+07    2.1280E+08    2.1084E-02
      53-      1
       1          -1.0263E+08 -9.4942E+07 -2.9226E+08  1.7202E+07 -1.4844E+07 -2.3350E+07    2.0164E+08    2.4066E-02
      61-      1
       1          -9.4700E+07 -1.0571E+08 -2.3933E+08  2.5073E+07 -6.6871E+06 -1.7246E+07    1.4954E+08    3.2990E-02
      67-      1
       1          -8.2117E+07 -5.0467E+07 -3.0281E+08  1.2396E+07 -3.9493E+07 -2.3418E+07    2.5194E+08    1.8438E-02
      79-      1
       1          -1.9300E+08 -1.9597E+08 -4.2385E+08  1.1201E+07 -5.7402E+06 -5.7336E+06    2.3063E+08    4.0661E-03
      81-      1
       1          -3.8651E+07 -1.6195E+07 -1.8840E+08  1.2513E+06 -2.8172E+07 -2.0934E+06    1.6938E+08    3.6471E-02



 e l e m e n t   s t r a i n   c a l c u l a t i o n s   f o r   t i m e  s t e p      412   ( at time  1.25220E+01 )

 element  strain       eps-xx      eps-yy      eps-zz      eps-xy      eps-yz      eps-zx                            yield
 num/ipt   state
      45-      1
      1            1.2097E-02  7.3613E-03 -2.2018E-02  2.3071E-03 -2.0771E-03 -4.6747E-03
      47-      1
      1            8.4099E-03  9.8983E-03 -2.0504E-02  3.6060E-03 -4.1642E-03 -3.5032E-03
      53-      1
      1            9.8441E-03  9.2633E-03 -2.1487E-02  3.5928E-03 -3.7433E-03 -4.5019E-03
      61-      1
      1            1.3363E-02  6.6885E-03 -2.2226E-02  1.1781E-03 -6.2425E-04 -4.8011E-03
      67-      1
      1            6.6014E-03  1.1546E-02 -2.0264E-02  2.3682E-03 -5.0658E-03 -2.1291E-03
      79-      1
      1            2.1845E-03  2.1531E-03 -8.1843E-03  3.6857E-04 -9.7384E-05 -3.8922E-04
      81-      1
      1            6.9726E-03  1.3934E-02 -2.2181E-02  6.8576E-04 -7.7041E-03 -4.2268E-04



 e l e m e n t   s t r e s s   c a l c u l a t i o n s   f o r   t i m e  s t e p      416   ( at time 1.29498E+01 )

 element  materl
     ipt  stress       sig-xx      sig-yy      sig-zz      sig-xy      sig-yz      sig-zx                       yield
           state                                                                                  effsg      function
      45-      1
       1          -9.1686E+07 -1.2907E+08 -3.1406E+08  1.0117E+07 -1.1863E+07 -2.4427E+07    2.1226E+08    2.5632E-02
      47-      1
       1          -8.6191E+07 -7.9083E+07 -2.9714E+08  2.1087E+07 -2.6678E+07 -2.8659E+07    2.2800E+08    2.1438E-02
      53-      1
       1          -1.0558E+08 -1.0056E+08 -3.1087E+08  1.9975E+07 -1.8090E+07 -2.5272E+07    2.1748E+08    2.4355E-02
      61-      1
       1          -8.8864E+07 -1.1161E+08 -2.6641E+08  2.5166E+07 -1.0364E+07 -1.7847E+07    1.7657E+08    3.3106E-02
      67-      1
       1          -8.0881E+07 -4.9093E+07 -3.0843E+08  1.3881E+07 -3.8716E+07 -2.2525E+07    2.5811E+08    1.8871E-02
      79-      1
       1          -1.9835E+08 -2.0192E+08 -4.3505E+08  9.5745E+06 -5.0927E+06 -5.4918E+06    2.3588E+08    4.2904E-03
      81-      1
       1          -4.3307E+07 -1.4518E+07 -2.1061E+08  2.1397E+06 -2.9981E+07 -2.3574E+06    1.9069E+08    3.6576E-02



 e l e m e n t   s t r a i n   c a l c u l a t i o n s   f o r   t i m e  s t e p      416   ( at time  1.29498E+01 )

 element  strain       eps-xx      eps-yy      eps-zz      eps-xy      eps-yz      eps-zx                            yield
 num/ipt   state
      45-      1
      1            1.2382E-02  7.4957E-03 -2.2494E-02  2.3981E-03 -2.0802E-03 -4.7350E-03
      47-      1
      1            8.5926E-03  1.0157E-02 -2.0992E-02  3.6714E-03 -4.2694E-03 -3.5423E-03
      53-      1
      1            1.0032E-02  9.3899E-03 -2.1930E-02  3.6725E-03 -3.8397E-03 -4.5798E-03
      61-      1
      1            1.3654E-02  6.7482E-03 -2.2705E-02  1.2138E-03 -7.0446E-04 -4.8178E-03
      67-      1
      1            6.7915E-03  1.1807E-02 -2.0730E-02  2.4282E-03 -5.1525E-03 -2.1672E-03
      79-      1
      1            2.2952E-03  2.2465E-03 -8.4948E-03  3.5018E-04 -8.9660E-05 -3.8753E-04
      81-      1
      1            7.0383E-03  1.4135E-02 -2.2567E-02  7.0077E-04 -7.7626E-03 -4.2957E-04



 e l e m e n t   s t r e s s   c a l c u l a t i o n s   f o r   t i m e  s t e p      420   ( at time 1.36279E+01 )

 element  materl
     ipt  stress       sig-xx      sig-yy      sig-zz      sig-xy      sig-yz      sig-zx                       yield
           state                                                                                  effsg      function
      45-      1
       1          -9.7114E+07 -1.3654E+08 -3.4336E+08  1.3954E+07 -1.3404E+07 -2.7877E+07    2.3651E+08    2.6204E-02
      47-      1
       1          -9.8268E+07 -8.7938E+07 -3.2332E+08  2.3358E+07 -2.8009E+07 -2.7564E+07    2.4362E+08    2.2166E-02
      53-      1
       1          -1.1401E+08 -1.1267E+08 -3.3708E+08  2.2953E+07 -1.9355E+07 -2.6848E+07    2.3436E+08    2.5079E-02
      61-      1
       1          -8.4980E+07 -1.1678E+08 -3.0580E+08  2.4554E+07 -9.9053E+06 -2.3852E+07    2.1578E+08    3.3436E-02
      67-      1
       1          -9.2791E+07 -5.9867E+07 -3.2845E+08  1.5142E+07 -3.8541E+07 -2.1099E+07    2.6619E+08    1.9686E-02
      79-      1
       1          -2.0594E+08 -2.0781E+08 -4.4605E+08  8.8091E+06 -4.6836E+06 -5.3176E+06    2.3998E+08    4.6282E-03
      81-      1
       1          -5.2019E+07 -1.5395E+07 -2.4586E+08  4.1262E+06 -3.3880E+07 -3.4257E+06    2.2259E+08    3.7071E-02



 e l e m e n t   s t r a i n   c a l c u l a t i o n s   f o r   t i m e  s t e p      420   ( at time  1.36279E+01 )

 element  strain       eps-xx      eps-yy      eps-zz      eps-xy      eps-yz      eps-zx                            yield
 num/ipt   state
      45-      1
      1            1.2768E-02  7.7286E-03 -2.3313E-02  2.5095E-03 -2.1461E-03 -4.8711E-03
      47-      1
      1            8.8646E-03  1.0529E-02 -2.1859E-02  3.8039E-03 -4.4044E-03 -3.6303E-03
      53-      1
      1            1.0384E-02  9.6628E-03 -2.2777E-02  3.8122E-03 -3.9332E-03 -4.7112E-03
      61-      1
      1            1.4078E-02  6.9499E-03 -2.3524E-02  1.2536E-03 -7.2235E-04 -4.9772E-03
      67-      1
      1            7.0631E-03  1.2237E-02 -2.1634E-02  2.5168E-03 -5.3212E-03 -2.2349E-03
      79-      1
      1            2.4221E-03  2.4017E-03 -8.8927E-03  3.5279E-04 -8.9017E-05 -3.9261E-04
      81-      1
      1            7.2326E-03  1.4571E-02 -2.3410E-02  7.4324E-04 -7.9267E-03 -4.5743E-04



 e l e m e n t   s t r e s s   c a l c u l a t i o n s   f o r   t i m e  s t e p      441   ( at time 1.47026E+01 )

 element  materl
     ipt  stress       sig-xx      sig-yy      sig-zz      sig-xy      sig-yz      sig-zx                       yield
           state                                                                                  effsg      function
      45-      1
       1          -6.9328E+07 -1.1317E+08 -3.5461E+08  1.6475E+07 -1.4249E+07 -3.0659E+07    2.7394E+08    2.8674E-02
      47-      1
       1          -9.2755E+07 -7.3288E+07 -3.3016E+08  2.5449E+07 -2.8040E+07 -2.9698E+07    2.6136E+08    2.4870E-02
      53-      1
       1          -9.6523E+07 -9.4056E+07 -3.5261E+08  2.6688E+07 -2.0769E+07 -2.9603E+07    2.6885E+08    2.7453E-02
      61-      1
       1          -5.7715E+07 -1.0661E+08 -3.3319E+08  2.0924E+07 -7.9533E+06 -3.0148E+07    2.6275E+08    3.6051E-02
      67-      1
       1          -8.9860E+07 -5.4555E+07 -3.3093E+08  1.6586E+07 -4.0069E+07 -2.0364E+07    2.7341E+08    2.2561E-02
      79-      1
       1          -2.0985E+08 -2.1572E+08 -4.6055E+08  7.0299E+06 -4.2710E+06 -4.9230E+06    2.4838E+08    5.8512E-03
      81-      1
       1          -5.4132E+07 -1.3102E+07 -2.8396E+08  4.5896E+06 -4.3112E+07 -5.1055E+06    2.6391E+08    3.9819E-02



 e l e m e n t   s t r a i n   c a l c u l a t i o n s   f o r   t i m e  s t e p      441   ( at time  1.47026E+01 )

 element  strain       eps-xx      eps-yy      eps-zz      eps-xy      eps-yz      eps-zx                            yield
 num/ipt   state
      45-      1
      1            1.4521E-02  8.8178E-03 -2.5972E-02  2.7574E-03 -2.3131E-03 -5.3161E-03
      47-      1
      1            9.9433E-03  1.2046E-02 -2.4396E-02  4.2085E-03 -4.7773E-03 -4.0760E-03
      53-      1
      1            1.1671E-02  1.0984E-02 -2.5293E-02  4.2058E-03 -4.2018E-03 -5.1319E-03
      61-      1
      1            1.6004E-02  7.9070E-03 -2.6365E-02  1.4856E-03 -8.1466E-04 -5.4638E-03
      67-      1
      1            8.1346E-03  1.3881E-02 -2.4327E-02  2.8000E-03 -5.9477E-03 -2.5183E-03
      79-      1
      1            3.0588E-03  2.9192E-03 -1.0172E-02  3.6690E-04 -9.7461E-05 -4.1978E-04
      81-      1
      1            8.2593E-03  1.6267E-02 -2.6319E-02  8.1819E-04 -8.6583E-03 -5.5435E-04



 e l e m e n t   s t r e s s   c a l c u l a t i o n s   f o r   t i m e  s t e p      466   ( at time 1.57772E+01 )

 element  materl
     ipt  stress       sig-xx      sig-yy      sig-zz      sig-xy      sig-yz      sig-zx                       yield
           state                                                                                  effsg      function
      45-      1
       1          -5.9179E+07 -9.5452E+07 -3.5285E+08  2.0451E+07 -1.7877E+07 -3.0270E+07    2.8613E+08    3.1197E-02
      47-      1
       1          -8.7403E+07 -6.2433E+07 -3.4112E+08  2.1978E+07 -2.7353E+07 -2.5893E+07    2.7755E+08    2.7301E-02
      53-      1
       1          -7.7184E+07 -8.7331E+07 -3.5724E+08  2.6081E+07 -2.3464E+07 -2.8224E+07    2.8597E+08    3.0037E-02
      61-      1
       1          -5.0069E+07 -1.1368E+08 -3.5124E+08  4.2249E+06 -9.0857E+06 -3.5022E+07    2.8208E+08    3.8474E-02
      67-      1
       1          -9.1167E+07 -5.6962E+07 -3.4175E+08  1.4753E+07 -3.4957E+07 -1.7567E+07    2.7889E+08    2.4820E-02
      79-      1
       1          -2.2530E+08 -2.2179E+08 -4.8720E+08  2.5985E+06 -3.2987E+06 -4.6200E+06    2.6390E+08    7.2750E-03
      81-      1
       1          -6.3095E+07 -1.7633E+07 -3.2241E+08  3.9062E+06 -3.7614E+07 -5.2992E+06    2.9236E+08    4.1255E-02



 e l e m e n t   s t r a i n   c a l c u l a t i o n s   f o r   t i m e  s t e p      466   ( at time  1.57772E+01 )

 element  strain       eps-xx      eps-yy      eps-zz      eps-xy      eps-yz      eps-zx                            yield
 num/ipt   state
      45-      1
      1            1.6005E-02  9.9754E-03 -2.8479E-02  3.0927E-03 -2.6207E-03 -5.6950E-03
      47-      1
      1            1.0993E-02  1.3494E-02 -2.6875E-02  4.4211E-03 -5.1036E-03 -4.3429E-03
      53-      1
      1            1.3237E-02  1.2156E-02 -2.7936E-02  4.5311E-03 -4.5645E-03 -5.4936E-03
      61-      1
      1            1.7742E-02  8.5737E-03 -2.8858E-02  1.2248E-03 -9.5943E-04 -5.9391E-03
      67-      1
      1            9.0313E-03  1.5154E-02 -2.6570E-02  2.9388E-03 -6.2728E-03 -2.6773E-03
      79-      1
      1            3.6796E-03  3.7417E-03 -1.1845E-02  3.0410E-04 -9.8007E-05 -4.4590E-04
      81-      1
      1            8.8558E-03  1.7272E-02 -2.8168E-02  8.3526E-04 -8.8520E-03 -6.1048E-04



 e l e m e n t   s t r e s s   c a l c u l a t i o n s   f o r   t i m e  s t e p      491   ( at time 1.68519E+01 )

 element  materl
     ipt  stress       sig-xx      sig-yy      sig-zz      sig-xy      sig-yz      sig-zx                       yield
           state                                                                                  effsg      function
      45-      1
       1          -4.4207E+07 -4.1331E+07 -2.5693E+08  1.9235E+07 -1.7959E+07 -3.0917E+07    2.2542E+08    4.1804E-02
      47-      1
       1          -5.3093E+07 -2.7147E+07 -2.7652E+08  1.4428E+07 -2.5016E+07 -1.2445E+07    2.4363E+08    3.5572E-02
      53-      1
       1          -6.6139E+07 -8.5656E+07 -3.1655E+08  1.6461E+07 -2.7600E+07 -2.9431E+07    2.5278E+08    3.8935E-02
      61-      1
       1          -8.4855E+07 -1.4157E+08 -2.6348E+08 -2.4126E+07 -3.4155E+06 -2.1196E+07    1.6769E+08    5.5841E-02
      67-      1
       1          -8.7105E+07 -5.0543E+07 -3.0002E+08  9.8636E+06 -2.3507E+07 -3.3482E+06    2.3757E+08    3.2050E-02
      79-      1
       1          -2.2508E+08 -2.4665E+08 -4.9844E+08 -5.2280E+06 -3.2202E+06 -4.3813E+06    2.6356E+08    1.0226E-02
      81-      1
       1          -1.0140E+08 -5.8757E+07 -2.4474E+08 -4.5429E+06 -1.8289E+07 -1.0072E+06    1.7189E+08    5.3278E-02



 e l e m e n t   s t r a i n   c a l c u l a t i o n s   f o r   t i m e  s t e p      491   ( at time  1.68519E+01 )

 element  strain       eps-xx      eps-yy      eps-zz      eps-xy      eps-yz      eps-zx                            yield
 num/ipt   state
      45-      1
      1            1.8941E-02  1.3829E-02 -3.4531E-02  4.0386E-03 -3.4930E-03 -7.1967E-03
      47-      1
      1            1.3644E-02  1.7371E-02 -3.2798E-02  4.8688E-03 -5.9337E-03 -4.6085E-03
      53-      1
      1            1.7217E-02  1.5053E-02 -3.4593E-02  5.0880E-03 -5.6911E-03 -6.5199E-03
      61-      1
      1            2.2891E-02  9.5557E-03 -3.4887E-02 -1.3757E-03 -9.9528E-04 -7.2346E-03
      67-      1
      1            1.1033E-02  1.8583E-02 -3.1770E-02  3.2116E-03 -6.7108E-03 -2.5761E-03
      79-      1
      1            5.4450E-03  4.6676E-03 -1.4708E-02  6.7982E-05 -1.1960E-04 -5.3362E-04
      81-      1
      1            9.9937E-03  2.0702E-02 -3.2760E-02  3.5181E-04 -9.0883E-03 -5.9100E-04



 e l e m e n t   s t r e s s   c a l c u l a t i o n s   f o r   t i m e  s t e p      499   ( at time 1.79266E+01 )

 element  materl
     ipt  stress       sig-xx      sig-yy      sig-zz      sig-xy      sig-yz      sig-zx                       yield
           state                                                                                  effsg      function
      45-      1
       1          -5.6724E+07 -6.3777E+07 -3.0956E+08  1.9489E+07 -2.5833E+06 -2.4822E+07    2.5535E+08    4.3576E-02
      47-      1
       1          -5.7347E+07 -4.8942E+07 -2.9763E+08  2.2860E+07 -2.3192E+07 -1.9025E+07    2.5316E+08    3.8090E-02
      53-      1
       1          -1.0116E+08 -8.8967E+07 -3.0992E+08  2.4013E+07 -1.8350E+07 -1.9295E+07    2.2390E+08    4.1864E-02
      61-      1
       1          -4.9448E+07 -8.3818E+07 -2.9853E+08 -3.1487E+06 -9.5106E+06 -3.2226E+06    2.3451E+08    5.7026E-02
      67-      1
       1          -7.3820E+07 -3.4486E+07 -3.2872E+08  1.2537E+07 -3.0467E+07 -1.2407E+07    2.8331E+08    3.4071E-02
      79-      1
       1          -2.3362E+08 -2.4088E+08 -5.0539E+08  9.8760E+05 -3.4871E+06 -8.2345E+06    2.6867E+08    1.1372E-02
      81-      1
       1          -1.9941E+07  8.5844E+06 -2.0433E+08  3.1972E+06 -2.5513E+07 -1.5992E+05    2.0508E+08    5.8471E-02



 e l e m e n t   s t r a i n   c a l c u l a t i o n s   f o r   t i m e  s t e p      499   ( at time  1.79266E+01 )

 element  strain       eps-xx      eps-yy      eps-zz      eps-xy      eps-yz      eps-zx                            yield
 num/ipt   state
      45-      1
      1            1.9832E-02  1.4553E-02 -3.6563E-02  4.2367E-03 -3.2249E-03 -7.3122E-03
      47-      1
      1            1.4761E-02  1.8261E-02 -3.5032E-02  5.3271E-03 -6.1483E-03 -4.9023E-03
      53-      1
      1            1.7676E-02  1.6272E-02 -3.6422E-02  5.5813E-03 -5.7315E-03 -6.5723E-03
      61-      1
      1            2.3862E-02  1.0656E-02 -3.6691E-02 -1.1108E-03 -1.1035E-03 -7.1614E-03
      67-      1
      1            1.2036E-02  2.0039E-02 -3.4231E-02  3.4126E-03 -7.1261E-03 -2.8445E-03
      79-      1
      1            5.9094E-03  5.3609E-03 -1.5911E-02  1.9385E-04 -1.3496E-04 -6.5587E-04
      81-      1
      1            1.1699E-02  2.2622E-02 -3.5508E-02  7.9349E-04 -9.7349E-03 -6.2742E-04



 e l e m e n t   s t r e s s   c a l c u l a t i o n s   f o r   t i m e  s t e p      505   ( at time 1.90012E+01 )

 element  materl
     ipt  stress       sig-xx      sig-yy      sig-zz      sig-xy      sig-yz      sig-zx                       yield
           state                                                                                  effsg      function
      45-      1
       1          -5.1426E+07 -7.4480E+07 -3.3864E+08  1.9923E+07 -3.8372E+06 -2.8146E+07    2.8287E+08    4.5704E-02
      47-      1
       1          -6.4900E+07 -4.6786E+07 -3.1796E+08  2.4632E+07 -2.3584E+07 -2.4536E+07    2.7248E+08    4.0506E-02
      53-      1
       1          -8.1401E+07 -7.5292E+07 -3.3799E+08  2.7424E+07 -1.8201E+07 -2.4430E+07    2.6922E+08    4.4009E-02
      61-      1
       1          -5.2217E+07 -9.4282E+07 -3.4632E+08  5.0333E+06 -1.0126E+07 -1.0346E+07    2.7677E+08    5.8677E-02
      67-      1
       1          -7.4099E+07 -3.3012E+07 -3.3086E+08  1.5079E+07 -3.1646E+07 -1.7033E+07    2.8761E+08    3.6674E-02
      79-      1
       1          -2.3549E+08 -2.4660E+08 -5.0850E+08  1.8293E+06 -3.1446E+06 -8.0000E+06    2.6806E+08    1.2681E-02
      81-      1
       1          -1.8652E+07  1.4669E+07 -2.2820E+08  2.8741E+06 -3.3694E+07 -8.7112E+05    2.3545E+08    6.2083E-02



 e l e m e n t   s t r a i n   c a l c u l a t i o n s   f o r   t i m e  s t e p      505   ( at time  1.90012E+01 )

 element  strain       eps-xx      eps-yy      eps-zz      eps-xy      eps-yz      eps-zx                            yield
 num/ipt   state
      45-      1
      1            2.1207E-02  1.5364E-02 -3.8915E-02  4.4433E-03 -3.2924E-03 -7.6965E-03
      47-      1
      1            1.5709E-02  1.9603E-02 -3.7447E-02  5.6658E-03 -6.4439E-03 -5.3003E-03
      53-      1
      1            1.8945E-02  1.7463E-02 -3.8861E-02  5.9358E-03 -5.9007E-03 -6.9359E-03
      61-      1
      1            2.5008E-02  1.1361E-02 -3.8834E-02 -8.6552E-04 -1.2778E-03 -7.3673E-03
      67-      1
      1            1.2997E-02  2.1571E-02 -3.6734E-02  3.6714E-03 -7.5526E-03 -3.1316E-03
      79-      1
      1            6.5962E-03  5.8942E-03 -1.7183E-02  2.2443E-04 -1.4606E-04 -7.0242E-04
      81-      1
      1            1.2810E-02  2.4388E-02 -3.8470E-02  8.7394E-04 -1.0465E-02 -6.4308E-04



 e l e m e n t   s t r e s s   c a l c u l a t i o n s   f o r   t i m e  s t e p      513   ( at time 2.07045E+01 )

 element  materl
     ipt  stress       sig-xx      sig-yy      sig-zz      sig-xy      sig-yz      sig-zx                       yield
           state                                                                                  effsg      function
      45-      1
       1          -6.0388E+07 -7.9056E+07 -3.5045E+08  1.3309E+07 -6.9460E+06 -3.0673E+07    2.8735E+08    5.1201E-02
      47-      1
       1          -5.2128E+07 -3.8176E+07 -3.1897E+08  2.0589E+07 -2.2600E+07 -2.3412E+07    2.8208E+08    4.5454E-02
      53-      1
       1          -7.4417E+07 -6.8662E+07 -3.4213E+08  2.2910E+07 -1.7392E+07 -2.3272E+07    2.7812E+08    4.8951E-02
      61-      1
       1          -5.2207E+07 -7.8077E+07 -3.4751E+08  8.9576E+06 -9.9252E+06 -1.8873E+07    2.8608E+08    6.4291E-02
      67-      1
       1          -6.0836E+07 -2.8178E+07 -3.2949E+08  1.2077E+07 -2.9356E+07 -1.5930E+07    2.9292E+08    4.1791E-02
      79-      1
       1          -2.6256E+08 -2.6483E+08 -5.3272E+08  3.4354E+06 -5.3577E+06 -9.1172E+06    2.6972E+08    1.6157E-02
      81-      1
       1           3.5880E+06  3.1042E+07 -2.3875E+08  3.9524E+06 -3.5646E+07 -1.7901E+06    2.6458E+08    6.8363E-02



 e l e m e n t   s t r a i n   c a l c u l a t i o n s   f o r   t i m e  s t e p      513   ( at time  2.07045E+01 )

 element  strain       eps-xx      eps-yy      eps-zz      eps-xy      eps-yz      eps-zx                            yield
 num/ipt   state
      45-      1
      1            2.4001E-02  1.7687E-02 -4.4172E-02  4.6748E-03 -3.4654E-03 -8.5216E-03
      47-      1
      1            1.7957E-02  2.2120E-02 -4.2131E-02  6.1147E-03 -6.9177E-03 -5.7814E-03
      53-      1
      1            2.1207E-02  1.9842E-02 -4.3474E-02  6.4266E-03 -6.2164E-03 -7.4033E-03
      61-      1
      1            2.7877E-02  1.3840E-02 -4.4132E-02 -5.2541E-04 -1.5624E-03 -7.9806E-03
      67-      1
      1            1.5196E-02  2.4460E-02 -4.1748E-02  3.9472E-03 -8.2079E-03 -3.4675E-03
      79-      1
      1            8.1004E-03  7.5228E-03 -2.0651E-02  3.2140E-04 -2.7483E-04 -8.9056E-04
      81-      1
      1            1.5261E-02  2.7564E-02 -4.3988E-02  1.0481E-03 -1.1496E-02 -6.9029E-04



 e l e m e n t   s t r e s s   c a l c u l a t i o n s   f o r   t i m e  s t e p      521   ( at time 2.24077E+01 )

 element  materl
     ipt  stress       sig-xx      sig-yy      sig-zz      sig-xy      sig-yz      sig-zx                       yield
           state                                                                                  effsg      function
      45-      1
       1          -5.1448E+07 -7.8161E+07 -3.4757E+08  1.3313E+07 -7.5294E+06 -2.6507E+07    2.8862E+08    5.6138E-02
      47-      1
       1          -5.7220E+07 -4.1440E+07 -3.2615E+08  2.1256E+07 -2.2486E+07 -2.3944E+07    2.8532E+08    5.0113E-02
      53-      1
       1          -7.4855E+07 -7.2152E+07 -3.5058E+08  2.3476E+07 -1.6349E+07 -2.3054E+07    2.8430E+08    5.3505E-02
      61-      1
       1          -4.8541E+07 -7.6823E+07 -3.4930E+08  1.1773E+07 -8.3844E+06 -1.8552E+07    2.9053E+08    6.9349E-02
      67-      1
       1          -6.1922E+07 -2.9444E+07 -3.3241E+08  1.2754E+07 -3.0427E+07 -1.6858E+07    2.9516E+08    4.6577E-02
      79-      1
       1          -2.7055E+08 -2.7144E+08 -5.4002E+08  4.3464E+06 -5.6021E+06 -9.1284E+06    2.6977E+08    1.9034E-02
      81-      1
       1           5.4523E+06  3.6165E+07 -2.4457E+08  4.1608E+06 -3.8925E+07 -2.7022E+06    2.7523E+08    7.4245E-02



 e l e m e n t   s t r a i n   c a l c u l a t i o n s   f o r   t i m e  s t e p      521   ( at time  2.24077E+01 )

 element  strain       eps-xx      eps-yy      eps-zz      eps-xy      eps-yz      eps-zx                            yield
 num/ipt   state
      45-      1
      1            2.6755E-02  1.9593E-02 -4.8787E-02  4.9859E-03 -3.5710E-03 -9.0483E-03
      47-      1
      1            1.9905E-02  2.4453E-02 -4.6500E-02  6.6311E-03 -7.4012E-03 -6.3026E-03
      53-      1
      1            2.3326E-02  2.1936E-02 -4.7757E-02  6.9660E-03 -6.5274E-03 -7.9032E-03
      61-      1
      1            3.0615E-02  1.5860E-02 -4.8891E-02 -1.6149E-04 -1.7493E-03 -8.4066E-03
      67-      1
      1            1.7114E-02  2.7144E-02 -4.6390E-02  4.2846E-03 -8.9222E-03 -3.8432E-03
      79-      1
      1            9.4262E-03  8.8587E-03 -2.3421E-02  4.0707E-04 -3.5573E-04 -1.0294E-03
      81-      1
      1            1.7344E-02  3.0580E-02 -4.9103E-02  1.1997E-03 -1.2596E-02 -7.5629E-04



 e l e m e n t   s t r e s s   c a l c u l a t i o n s   f o r   t i m e  s t e p      529   ( at time 2.41109E+01 )

 element  materl
     ipt  stress       sig-xx      sig-yy      sig-zz      sig-xy      sig-yz      sig-zx                       yield
           state                                                                                  effsg      function
      45-      1
       1          -6.0146E+07 -8.7336E+07 -3.5912E+08  1.5254E+07 -9.1390E+06 -2.6414E+07    2.9161E+08    6.1077E-02
      47-      1
       1          -5.7495E+07 -4.2200E+07 -3.3218E+08  2.2288E+07 -2.1838E+07 -2.2251E+07    2.9034E+08    5.4767E-02
      53-      1
       1          -7.7599E+07 -7.6489E+07 -3.5923E+08  2.4676E+07 -1.5687E+07 -2.1761E+07    2.8916E+08    5.8092E-02
      61-      1
       1          -5.1035E+07 -8.3339E+07 -3.5607E+08  1.1390E+07 -7.7397E+06 -2.1482E+07    2.9358E+08    7.4507E-02
      67-      1
       1          -6.2545E+07 -2.9658E+07 -3.3605E+08  1.4557E+07 -2.8955E+07 -1.5875E+07    2.9798E+08    5.1319E-02
      79-      1
       1          -2.8022E+08 -2.7819E+08 -5.5118E+08  4.5483E+06 -5.9951E+06 -9.2677E+06    2.7277E+08    2.1623E-02
      81-      1
       1           6.8945E+06  4.1599E+07 -2.5692E+08  5.5511E+06 -3.9214E+07 -2.6720E+06    2.9101E+08    7.9446E-02



 e l e m e n t   s t r a i n   c a l c u l a t i o n s   f o r   t i m e  s t e p      529   ( at time  2.41109E+01 )

 element  strain       eps-xx      eps-yy      eps-zz      eps-xy      eps-yz      eps-zx                            yield
 num/ipt   state
      45-      1
      1            2.9375E-02  2.1521E-02 -5.3490E-02  5.3872E-03 -3.7554E-03 -9.6501E-03
      47-      1
      1            2.1936E-02  2.6812E-02 -5.0936E-02  7.1742E-03 -7.8573E-03 -6.7362E-03
      53-      1
      1            2.5476E-02  2.4056E-02 -5.2115E-02  7.5483E-03 -6.8194E-03 -8.3375E-03
      61-      1
      1            3.3429E-02  1.7815E-02 -5.3752E-02  1.2847E-04 -1.9221E-03 -8.9773E-03
      67-      1
      1            1.9022E-02  2.9829E-02 -5.1021E-02  4.6764E-03 -9.5472E-03 -4.1658E-03
      79-      1
      1            1.0597E-02  1.0111E-02 -2.5978E-02  4.7464E-04 -4.3684E-04 -1.1574E-03
      81-      1
      1            1.9299E-02  3.3484E-02 -5.4008E-02  1.3737E-03 -1.3524E-02 -8.0162E-04



 e l e m e n t   s t r e s s   c a l c u l a t i o n s   f o r   t i m e  s t e p      537   ( at time 2.58141E+01 )

 element  materl
     ipt  stress       sig-xx      sig-yy      sig-zz      sig-xy      sig-yz      sig-zx                       yield
           state                                                                                  effsg      function
      45-      1
       1          -6.4863E+07 -9.2455E+07 -3.6756E+08  1.6032E+07 -1.0369E+07 -2.6568E+07    2.9537E+08    6.6159E-02
      47-      1
       1          -4.5589E+07 -3.2930E+07 -3.2547E+08  2.4330E+07 -2.0226E+07 -2.0827E+07    2.9384E+08    5.9509E-02
      53-      1
       1          -7.7432E+07 -7.5019E+07 -3.6177E+08  2.6526E+07 -1.5318E+07 -2.1517E+07    2.9282E+08    6.2898E-02
      61-      1
       1          -5.2236E+07 -8.6717E+07 -3.6236E+08  1.0602E+07 -7.0379E+06 -2.3452E+07    2.9801E+08    7.9807E-02
      67-      1
       1          -6.0861E+07 -2.8018E+07 -3.3728E+08  1.4327E+07 -2.8385E+07 -1.5083E+07    3.0047E+08    5.6190E-02
      79-      1
       1          -2.8957E+08 -2.8593E+08 -5.6231E+08  4.7340E+06 -6.3550E+06 -9.3172E+06    2.7540E+08    2.4345E-02
      81-      1
       1           1.0539E+07  4.6166E+07 -2.6000E+08  5.8738E+06 -3.9522E+07 -2.7601E+06    2.9818E+08    8.5000E-02



 e l e m e n t   s t r a i n   c a l c u l a t i o n s   f o r   t i m e  s t e p      537   ( at time  2.58141E+01 )

 element  strain       eps-xx      eps-yy      eps-zz      eps-xy      eps-yz      eps-zx                            yield
 num/ipt   state
      45-      1
      1            3.2109E-02  2.3546E-02 -5.8351E-02  5.7978E-03 -3.9746E-03 -1.0263E-02
      47-      1
      1            2.4116E-02  2.9221E-02 -5.5408E-02  7.7943E-03 -8.2464E-03 -7.1492E-03
      53-      1
      1            2.7707E-02  2.6343E-02 -5.6652E-02  8.2112E-03 -7.1207E-03 -8.8058E-03
      61-      1
      1            3.6368E-02  1.9851E-02 -5.8799E-02  3.9467E-04 -2.0740E-03 -9.5822E-03
      67-      1
      1            2.1006E-02  3.2590E-02 -5.5773E-02  5.0347E-03 -1.0190E-02 -4.4683E-03
      79-      1
      1            1.1832E-02  1.1425E-02 -2.8666E-02  5.4737E-04 -5.2641E-04 -1.2896E-03
      81-      1
      1            2.1411E-02  3.6573E-02 -5.9206E-02  1.5457E-03 -1.4498E-02 -8.4549E-04



 e l e m e n t   s t r e s s   c a l c u l a t i o n s   f o r   t i m e  s t e p      545   ( at time 2.75174E+01 )

 element  materl
     ipt  stress       sig-xx      sig-yy      sig-zz      sig-xy      sig-yz      sig-zx                       yield
           state                                                                                  effsg      function
      45-      1
       1          -6.7513E+07 -9.4241E+07 -3.7217E+08  1.7561E+07 -1.1629E+07 -2.7195E+07    2.9822E+08    7.1320E-02
      47-      1
       1          -3.3287E+07 -2.1542E+07 -3.2118E+08  2.6575E+07 -1.9792E+07 -2.0413E+07    3.0157E+08    6.3993E-02
      53-      1
       1          -6.1251E+07 -5.9703E+07 -3.5255E+08  2.8194E+07 -1.3245E+07 -2.2620E+07    2.9959E+08    6.7676E-02
      61-      1
       1          -5.2656E+07 -8.7603E+07 -3.6569E+08  1.0307E+07 -6.4102E+06 -2.6587E+07    3.0139E+08    8.5268E-02
      67-      1
       1          -5.9062E+07 -2.6381E+07 -3.3883E+08  1.4783E+07 -2.8116E+07 -1.3164E+07    3.0336E+08    6.1038E-02
      79-      1
       1          -2.9306E+08 -2.9043E+08 -5.6959E+08  4.7680E+06 -6.4995E+06 -9.3158E+06    2.7867E+08    2.7022E-02
      81-      1
       1           1.5480E+07  5.0422E+07 -2.6162E+08  5.8390E+06 -3.9101E+07 -1.8489E+06    3.0395E+08    9.0614E-02



 e l e m e n t   s t r a i n   c a l c u l a t i o n s   f o r   t i m e  s t e p      545   ( at time  2.75174E+01 )

 element  strain       eps-xx      eps-yy      eps-zz      eps-xy      eps-yz      eps-zx                            yield
 num/ipt   state
      45-      1
      1            3.4873E-02  2.5639E-02 -6.3269E-02  6.2641E-03 -4.2282E-03 -1.0901E-02
      47-      1
      1            2.6244E-02  3.1569E-02 -5.9767E-02  8.4313E-03 -8.6579E-03 -7.5522E-03
      53-      1
      1            3.0081E-02  2.8705E-02 -6.1211E-02  8.9015E-03 -7.3473E-03 -9.3308E-03
      61-      1
      1            3.9393E-02  2.1971E-02 -6.3985E-02  6.6434E-04 -2.1997E-03 -1.0290E-02
      67-      1
      1            2.3000E-02  3.5343E-02 -6.0527E-02  5.4136E-03 -1.0826E-02 -4.7032E-03
      79-      1
      1            1.3110E-02  1.2719E-02 -3.1315E-02  6.1622E-04 -6.1259E-04 -1.4164E-03
      81-      1
      1            2.3611E-02  3.9710E-02 -6.4529E-02  1.7094E-03 -1.5437E-02 -8.4400E-04



 e l e m e n t   s t r e s s   c a l c u l a t i o n s   f o r   t i m e  s t e p      553   ( at time 2.92206E+01 )

 element  materl
     ipt  stress       sig-xx      sig-yy      sig-zz      sig-xy      sig-yz      sig-zx                       yield
           state                                                                                  effsg      function
      45-      1
       1          -9.6262E+06 -4.5267E+07 -3.1754E+08  2.3234E+07 -1.4845E+07 -3.4971E+07    3.0176E+08    7.7879E-02
      47-      1
       1          -6.2582E+07 -6.1433E+07 -3.1940E+08  2.5610E+07 -1.9420E+07 -1.6445E+07    2.6488E+08    6.8249E-02
      53-      1
       1          -4.9545E+07 -4.5081E+07 -3.4097E+08  3.4009E+07 -1.6247E+07 -2.3071E+07    3.0349E+08    7.2722E-02
      61-      1
       1           6.2005E+06 -3.5068E+07 -3.0884E+08  1.3102E+07 -7.7122E+06 -3.6426E+07    3.0434E+08    9.2587E-02
      67-      1
       1          -5.9738E+07 -3.0335E+07 -3.4364E+08  1.5072E+07 -2.7913E+07 -1.1736E+07    3.0536E+08    6.5910E-02
      79-      1
       1          -3.0327E+08 -2.9527E+08 -5.7929E+08  5.0780E+06 -6.6307E+06 -9.2341E+06    2.8094E+08    3.0003E-02
      81-      1
       1          -1.7404E+07  1.5101E+07 -2.6657E+08  8.0916E+05 -2.6781E+07 -7.0470E+05    2.7091E+08    9.5566E-02



 e l e m e n t   s t r a i n   c a l c u l a t i o n s   f o r   t i m e  s t e p      553   ( at time  2.92206E+01 )

 element  strain       eps-xx      eps-yy      eps-zz      eps-xy      eps-yz      eps-zx                            yield
 num/ipt   state
      45-      1
      1            3.8829E-02  2.8259E-02 -6.9105E-02  7.1147E-03 -4.6581E-03 -1.2113E-02
      47-      1
      1            2.8524E-02  3.4195E-02 -6.4351E-02  9.1246E-03 -9.1795E-03 -8.0159E-03
      53-      1
      1            3.2448E-02  3.1257E-02 -6.5966E-02  9.8477E-03 -7.7550E-03 -9.8735E-03
      61-      1
      1            4.3832E-02  2.4848E-02 -7.0542E-02  1.2023E-03 -2.4605E-03 -1.1568E-02
      67-      1
      1            2.5055E-02  3.8022E-02 -6.5323E-02  5.7958E-03 -1.1450E-02 -4.9183E-03
      79-      1
      1            1.4411E-02  1.4242E-02 -3.4262E-02  7.0248E-04 -7.1112E-04 -1.5547E-03
      81-      1
      1            2.5825E-02  4.3069E-02 -6.9913E-02  1.7904E-03 -1.6438E-02 -7.9014E-04



 e l e m e n t   s t r e s s   c a l c u l a t i o n s   f o r   t i m e  s t e p      562   ( at time 3.09238E+01 )

 element  materl
     ipt  stress       sig-xx      sig-yy      sig-zz      sig-xy      sig-yz      sig-zx                       yield
           state                                                                                  effsg      function
      45-      1
       1          -2.2940E+07 -6.0796E+07 -2.9758E+08  1.4963E+07 -7.0650E+06 -2.4175E+07    2.6275E+08    8.3249E-02
      47-      1
       1          -2.2475E+07 -2.2386E+07 -2.7566E+08  2.7081E+07 -2.7425E+07 -2.3279E+07    2.6497E+08    7.3235E-02
      53-      1
       1          -4.8380E+07 -3.8620E+07 -3.3889E+08  3.2053E+07 -1.6601E+07 -2.5081E+07    3.0516E+08    7.7595E-02
      61-      1
       1          -1.1876E+07 -3.5295E+07 -2.8385E+08  1.6515E+07 -7.0317E+06 -2.5209E+07    2.6650E+08    9.8731E-02
      67-      1
       1          -5.8431E+07 -2.9507E+07 -3.4338E+08  1.5384E+07 -2.9732E+07 -1.2830E+07    3.0681E+08    7.0968E-02
      79-      1
       1          -3.0900E+08 -2.9946E+08 -5.8594E+08  5.5940E+06 -6.6425E+06 -9.6776E+06    2.8274E+08    3.3252E-02
      81-      1
       1          -1.7094E+07  1.5270E+07 -2.6632E+08  9.3448E+05 -2.8371E+07 -1.0710E+05    2.7138E+08    1.0064E-01



 e l e m e n t   s t r a i n   c a l c u l a t i o n s   f o r   t i m e  s t e p      562   ( at time  3.09238E+01 )

 element  strain       eps-xx      eps-yy      eps-zz      eps-xy      eps-yz      eps-zx                            yield
 num/ipt   state
      45-      1
      1            4.2705E-02  3.0477E-02 -7.4451E-02  7.5892E-03 -4.7553E-03 -1.3203E-02
      47-      1
      1            3.1290E-02  3.7374E-02 -6.9341E-02  1.0093E-02 -1.0059E-02 -8.8094E-03
      53-      1
      1            3.4614E-02  3.3754E-02 -7.0600E-02  1.0574E-02 -8.1578E-03 -1.0436E-02
      61-      1
      1            4.7592E-02  2.7939E-02 -7.6695E-02  2.1634E-03 -2.8306E-03 -1.2702E-02
      67-      1
      1            2.7158E-02  4.0838E-02 -7.0249E-02  6.1854E-03 -1.2141E-02 -5.2152E-03
      79-      1
      1            1.5868E-02  1.5884E-02 -3.7446E-02  8.0837E-04 -8.1538E-04 -1.7216E-03
      81-      1
      1            2.8052E-02  4.6340E-02 -7.5352E-02  1.9029E-03 -1.7486E-02 -7.3844E-04



 e l e m e n t   s t r e s s   c a l c u l a t i o n s   f o r   t i m e  s t e p      570   ( at time 3.26271E+01 )

 element  materl
     ipt  stress       sig-xx      sig-yy      sig-zz      sig-xy      sig-yz      sig-zx                       yield
           state                                                                                  effsg      function
      45-      1
       1          -1.7043E+07 -5.3183E+07 -2.9769E+08  1.5892E+07 -9.5375E+06 -2.5673E+07    2.7007E+08    8.7503E-02
      47-      1
       1          -2.4095E+07 -2.2601E+07 -2.8151E+08  2.6156E+07 -2.5908E+07 -2.1539E+07    2.6853E+08    7.7338E-02
      53-      1
       1          -4.7441E+07 -4.0609E+07 -3.4360E+08  2.9176E+07 -1.6467E+07 -2.6124E+07    3.0853E+08    8.2186E-02
      61-      1
       1          -8.8732E+06 -3.5420E+07 -2.9129E+08  1.3744E+07 -7.1020E+06 -2.6653E+07    2.7535E+08    1.0312E-01
      67-      1
       1          -6.0780E+07 -3.1619E+07 -3.4819E+08  1.6464E+07 -2.9030E+07 -1.2635E+07    3.0928E+08    7.5602E-02
      79-      1
       1          -3.0515E+08 -3.0382E+08 -5.8962E+08  4.4798E+06 -5.6841E+06 -8.7060E+06    2.8581E+08    3.5884E-02
      81-      1
       1          -2.2929E+07  1.3279E+07 -2.7521E+08  1.9435E+06 -2.9876E+07 -8.0405E+05    2.7709E+08    1.0501E-01



 e l e m e n t   s t r a i n   c a l c u l a t i o n s   f o r   t i m e  s t e p      570   ( at time  3.26271E+01 )

 element  strain       eps-xx      eps-yy      eps-zz      eps-xy      eps-yz      eps-zx                            yield
 num/ipt   state
      45-      1
      1            4.5553E-02  3.2402E-02 -7.9093E-02  8.0479E-03 -4.9980E-03 -1.3891E-02
      47-      1
      1            3.3420E-02  3.9795E-02 -7.3807E-02  1.0738E-02 -1.0638E-02 -9.3108E-03
      53-      1
      1            3.6789E-02  3.5994E-02 -7.5056E-02  1.1157E-02 -8.5128E-03 -1.1010E-02
      61-      1
      1            5.0405E-02  3.0000E-02 -8.1559E-02  2.5627E-03 -3.0081E-03 -1.3406E-02
      67-      1
      1            2.9081E-02  4.3409E-02 -7.4802E-02  6.5795E-03 -1.2764E-02 -5.4741E-03
      79-      1
      1            1.7233E-02  1.7106E-02 -4.0056E-02  8.4871E-04 -8.6698E-04 -1.8104E-03
      81-      1
      1            2.9921E-02  4.9299E-02 -8.0228E-02  2.0201E-03 -1.8299E-02 -7.2494E-04



 e l e m e n t   s t r e s s   c a l c u l a t i o n s   f o r   t i m e  s t e p      578   ( at time 3.43303E+01 )

 element  materl
     ipt  stress       sig-xx      sig-yy      sig-zz      sig-xy      sig-yz      sig-zx                       yield
           state                                                                                  effsg      function
      45-      1
       1          -6.2995E+07 -9.7618E+07 -3.0669E+08  1.4700E+07 -1.2585E+07 -2.2953E+07    2.3421E+08    9.2083E-02
      47-      1
       1          -2.8994E+07 -1.6890E+07 -2.8279E+08  2.7634E+07 -2.7445E+07 -2.1056E+07    2.7113E+08    8.2152E-02
      53-      1
       1           1.3859E+07  1.1959E+07 -2.8403E+08  3.4304E+07 -2.1535E+07 -3.3602E+07    3.1062E+08    8.8546E-02
      61-      1
       1          -9.3362E+06 -3.9250E+07 -2.9443E+08  1.3485E+07 -7.0305E+06 -2.8532E+07    2.7709E+08    1.0842E-01
      67-      1
       1          -1.0380E+08 -8.0090E+07 -3.5641E+08  1.8652E+07 -2.8010E+07 -1.0578E+07    2.7221E+08    8.0196E-02
      79-      1
       1          -3.0086E+08 -3.1130E+08 -5.9339E+08  4.2061E+06 -5.4069E+06 -8.8050E+06    2.8811E+08    3.8744E-02
      81-      1
       1          -3.0288E+07  7.8841E+06 -2.8375E+08  2.7506E+06 -2.9243E+07 -1.1986E+06    2.7923E+08    1.0982E-01



 e l e m e n t   s t r a i n   c a l c u l a t i o n s   f o r   t i m e  s t e p      578   ( at time  3.43303E+01 )

 element  strain       eps-xx      eps-yy      eps-zz      eps-xy      eps-yz      eps-zx                            yield
 num/ipt   state
      45-      1
      1            4.9152E-02  3.4806E-02 -8.4803E-02  8.8515E-03 -5.3657E-03 -1.4796E-02
      47-      1
      1            3.5693E-02  4.2867E-02 -7.9023E-02  1.1650E-02 -1.1338E-02 -9.9324E-03
      53-      1
      1            4.0179E-02  3.9105E-02 -8.0761E-02  1.2309E-02 -9.1720E-03 -1.2073E-02
      61-      1
      1            5.3780E-02  3.2350E-02 -8.7309E-02  3.1493E-03 -3.1514E-03 -1.4335E-02
      67-      1
      1            3.1205E-02  4.6461E-02 -7.9866E-02  7.1000E-03 -1.3422E-02 -5.7978E-03
      79-      1
      1            1.8817E-02  1.8309E-02 -4.2882E-02  9.0605E-04 -9.3577E-04 -1.9298E-03
      81-      1
      1            3.1952E-02  5.2545E-02 -8.5583E-02  2.1641E-03 -1.9128E-02 -7.0101E-04



 e l e m e n t   s t r e s s   c a l c u l a t i o n s   f o r   t i m e  s t e p      586   ( at time 3.60335E+01 )

 element  materl
     ipt  stress       sig-xx      sig-yy      sig-zz      sig-xy      sig-yz      sig-zx                       yield
           state                                                                                  effsg      function
      45-      1
       1          -5.7330E+07 -8.6540E+07 -2.9994E+08  1.3779E+07 -1.5358E+07 -2.4977E+07    2.3617E+08    9.6464E-02
      47-      1
       1          -6.9708E+07 -6.3042E+07 -2.8713E+08  2.3450E+07 -2.9816E+07 -1.9957E+07    2.3297E+08    8.6829E-02
      53-      1
       1          -5.5113E+07 -5.9287E+07 -2.8070E+08  2.1778E+07 -2.3742E+07 -2.7526E+07    2.3527E+08    9.3086E-02
      61-      1
       1          -4.1052E+06 -2.9080E+07 -2.8980E+08  1.4683E+07 -8.0262E+06 -2.8873E+07    2.8010E+08    1.1366E-01
      67-      1
       1          -6.5280E+07 -4.2379E+07 -3.1353E+08  2.1562E+07 -3.6346E+07 -1.6346E+07    2.7202E+08    8.6032E-02
      79-      1
       1          -2.9408E+08 -3.1240E+08 -5.9257E+08  4.3513E+06 -4.8547E+06 -5.7476E+06    2.9016E+08    4.1914E-02
      81-      1
       1          -3.5904E+07  4.2298E+06 -2.8919E+08  4.9112E+06 -3.1866E+07 -2.6944E+06    2.8119E+08    1.1526E-01



 e l e m e n t   s t r a i n   c a l c u l a t i o n s   f o r   t i m e  s t e p      586   ( at time  3.60335E+01 )

 element  strain       eps-xx      eps-yy      eps-zz      eps-xy      eps-yz      eps-zx                            yield
 num/ipt   state
      45-      1
      1            5.2422E-02  3.7187E-02 -9.0318E-02  9.5064E-03 -5.6261E-03 -1.5572E-02
      47-      1
      1            3.8524E-02  4.6262E-02 -8.4700E-02  1.2722E-02 -1.2185E-02 -1.0678E-02
      53-      1
      1            4.3141E-02  4.2303E-02 -8.6323E-02  1.3357E-02 -9.7189E-03 -1.3007E-02
      61-      1
      1            5.6953E-02  3.4947E-02 -9.3071E-02  3.7968E-03 -3.3089E-03 -1.5191E-02
      67-      1
      1            3.4084E-02  5.0572E-02 -8.5840E-02  8.0484E-03 -1.4569E-02 -6.4438E-03
      79-      1
      1            2.0609E-02  1.9652E-02 -4.5993E-02  9.7946E-04 -9.9894E-04 -1.9499E-03
      81-      1
      1            3.4208E-02  5.6240E-02 -9.1607E-02  2.3809E-03 -2.0084E-02 -7.4680E-04



 e l e m e n t   s t r e s s   c a l c u l a t i o n s   f o r   t i m e  s t e p      594   ( at time 3.77368E+01 )

 element  materl
     ipt  stress       sig-xx      sig-yy      sig-zz      sig-xy      sig-yz      sig-zx                       yield
           state                                                                                  effsg      function
      45-      1
       1          -9.9301E+07 -1.2104E+08 -3.0041E+08  6.7894E+06 -1.6699E+07 -2.5816E+07    1.9880E+08    1.0029E-01
      47-      1
       1          -7.0878E+07 -6.9317E+07 -2.9187E+08  2.5759E+07 -2.8146E+07 -1.8638E+07    2.3366E+08    9.1431E-02
      53-      1
       1          -1.0979E+08 -1.0879E+08 -2.9504E+08  1.6211E+07 -2.1427E+07 -2.4088E+07    1.9599E+08    9.7145E-02
      61-      1
       1           1.0985E+06 -2.4638E+07 -2.8932E+08  1.0981E+07 -4.1068E+06 -2.9905E+07    2.8395E+08    1.1896E-01
      67-      1
       1          -6.6766E+07 -4.4742E+07 -3.2004E+08  2.1153E+07 -3.0704E+07 -1.5377E+07    2.7403E+08    9.1008E-02
      79-      1
       1          -2.8299E+08 -3.1336E+08 -5.9080E+08  3.9311E+06 -4.4225E+06 -3.6370E+06    2.9406E+08    4.5341E-02
      81-      1
       1          -3.8252E+07 -9.7059E+05 -2.9589E+08  4.5136E+06 -3.0193E+07 -3.2312E+06    2.8320E+08    1.2037E-01



 e l e m e n t   s t r a i n   c a l c u l a t i o n s   f o r   t i m e  s t e p      594   ( at time  3.77368E+01 )

 element  strain       eps-xx      eps-yy      eps-zz      eps-xy      eps-yz      eps-zx                            yield
 num/ipt   state
      45-      1
      1            5.6001E-02  3.9940E-02 -9.6178E-02  1.0153E-02 -6.0459E-03 -1.6572E-02
      47-      1
      1            4.1187E-02  4.9623E-02 -9.0346E-02  1.3803E-02 -1.2887E-02 -1.1323E-02
      53-      1
      1            4.6348E-02  4.6027E-02 -9.2341E-02  1.4598E-02 -1.0448E-02 -1.3962E-02
      61-      1
      1            6.0320E-02  3.7499E-02 -9.8923E-02  4.1754E-03 -3.2584E-03 -1.6098E-02
      67-      1
      1            3.6398E-02  5.3786E-02 -9.1308E-02  8.6261E-03 -1.5248E-02 -6.8657E-03
      79-      1
      1            2.2707E-02  2.0991E-02 -4.9382E-02  1.0399E-03 -1.0577E-03 -1.9512E-03
      81-      1
      1            3.6456E-02  5.9655E-02 -9.7341E-02  2.5363E-03 -2.0876E-02 -7.4419E-04



 e l e m e n t   s t r e s s   c a l c u l a t i o n s   f o r   t i m e  s t e p      602   ( at time 3.94400E+01 )

 element  materl
     ipt  stress       sig-xx      sig-yy      sig-zz      sig-xy      sig-yz      sig-zx                       yield
           state                                                                                  effsg      function
      45-      1
       1          -1.0173E+08 -1.2171E+08 -3.0400E+08  7.4962E+06 -1.8700E+07 -2.4113E+07    2.0058E+08    1.0403E-01
      47-      1
       1          -6.5107E+07 -6.5477E+07 -2.9143E+08  2.5729E+07 -2.5898E+07 -1.5768E+07    2.3640E+08    9.5754E-02
      53-      1
       1          -1.1516E+08 -1.0778E+08 -2.9943E+08  1.7696E+07 -2.1636E+07 -2.1268E+07    1.9767E+08    1.0092E-01
      61-      1
       1           5.1025E+06 -2.0092E+07 -2.8678E+08  1.1043E+07 -5.2626E+06 -3.0855E+07    2.8598E+08    1.2459E-01
      67-      1
       1          -6.3295E+07 -4.5594E+07 -3.2118E+08  2.0628E+07 -2.8018E+07 -1.4593E+07    2.7505E+08    9.5826E-02
      79-      1
       1          -2.7348E+08 -2.9901E+08 -5.7976E+08  4.3757E+06 -5.6902E+06 -1.5614E+06    2.9462E+08    4.8516E-02
      81-      1
       1          -4.0462E+07 -6.0773E+06 -3.0198E+08  4.4820E+06 -2.9235E+07 -2.8262E+06    2.8498E+08    1.2513E-01



 e l e m e n t   s t r a i n   c a l c u l a t i o n s   f o r   t i m e  s t e p      602   ( at time  3.94400E+01 )

 element  strain       eps-xx      eps-yy      eps-zz      eps-xy      eps-yz      eps-zx                            yield
 num/ipt   state
      45-      1
      1            5.9147E-02  4.2620E-02 -1.0190E-01  1.0800E-02 -6.4338E-03 -1.7435E-02
      47-      1
      1            4.3889E-02  5.2659E-02 -9.5793E-02  1.4688E-02 -1.3393E-02 -1.1752E-02
      53-      1
      1            4.8988E-02  4.9317E-02 -9.8048E-02  1.5551E-02 -1.0916E-02 -1.4626E-02
      61-      1
      1            6.3827E-02  4.0216E-02 -1.0509E-01  4.6625E-03 -3.3009E-03 -1.7097E-02
      67-      1
      1            3.8785E-02  5.6783E-02 -9.6579E-02  9.2084E-03 -1.5892E-02 -7.2733E-03
      79-      1
      1            2.4475E-02  2.2445E-02 -5.2447E-02  1.1182E-03 -1.1828E-03 -1.9346E-03
      81-      1
      1            3.8610E-02  6.2810E-02 -1.0268E-01  2.6842E-03 -2.1582E-02 -7.2839E-04



 e l e m e n t   s t r e s s   c a l c u l a t i o n s   f o r   t i m e  s t e p      611   ( at time 4.11432E+01 )

 element  materl
     ipt  stress       sig-xx      sig-yy      sig-zz      sig-xy      sig-yz      sig-zx                       yield
           state                                                                                  effsg      function
      45-      1
       1          -1.0860E+08 -1.2432E+08 -3.0946E+08  7.1287E+06 -1.9950E+07 -2.5434E+07    2.0179E+08    1.0784E-01
      47-      1
       1          -6.7836E+07 -6.6867E+07 -2.9179E+08  2.4610E+07 -2.8445E+07 -1.9288E+07    2.3608E+08    1.0026E-01
      53-      1
       1          -1.2274E+08 -1.1211E+08 -3.0645E+08  1.6940E+07 -2.2859E+07 -1.8448E+07    1.9815E+08    1.0473E-01
      61-      1
       1          -3.7683E+07 -5.8212E+07 -2.8999E+08  4.3052E+06  1.2491E+05 -2.5704E+07    2.4686E+08    1.2962E-01
      67-      1
       1          -1.0102E+08 -9.2875E+07 -3.2610E+08  1.3164E+07 -2.4813E+07 -1.4413E+07    2.3569E+08    9.9995E-02
      79-      1
       1          -2.6240E+08 -2.8949E+08 -5.7273E+08  3.1755E+06 -1.6237E+06 -3.5439E+06    2.9784E+08    5.2096E-02
      81-      1
       1          -4.4904E+07 -1.5131E+07 -3.1122E+08  1.6695E+06 -3.0108E+07 -1.5468E+06    2.8719E+08    1.3012E-01



 e l e m e n t   s t r a i n   c a l c u l a t i o n s   f o r   t i m e  s t e p      611   ( at time  4.11432E+01 )

 element  strain       eps-xx      eps-yy      eps-zz      eps-xy      eps-yz      eps-zx                            yield
 num/ipt   state
      45-      1
      1            6.2212E-02  4.5471E-02 -1.0779E-01  1.1381E-02 -6.7624E-03 -1.8273E-02
      47-      1
      1            4.6617E-02  5.5879E-02 -1.0132E-01  1.5657E-02 -1.4011E-02 -1.2406E-02
      53-      1
      1            5.1607E-02  5.2733E-02 -1.0383E-01  1.6472E-02 -1.1439E-02 -1.5226E-02
      61-      1
      1            6.7587E-02  4.3068E-02 -1.1150E-01  4.9659E-03 -3.2632E-03 -1.8106E-02
      67-      1
      1            4.1604E-02  5.9956E-02 -1.0196E-01  9.8546E-03 -1.6734E-02 -7.8915E-03
      79-      1
      1            2.6554E-02  2.4012E-02 -5.5972E-02  1.1525E-03 -1.1380E-03 -2.0384E-03
      81-      1
      1            4.0958E-02  6.6033E-02 -1.0836E-01  2.7110E-03 -2.2320E-02 -6.4491E-04



 e l e m e n t   s t r e s s   c a l c u l a t i o n s   f o r   t i m e  s t e p      619   ( at time 4.28464E+01 )

 element  materl
     ipt  stress       sig-xx      sig-yy      sig-zz      sig-xy      sig-yz      sig-zx                       yield
           state                                                                                  effsg      function
      45-      1
       1          -1.0750E+08 -1.2648E+08 -3.1107E+08  8.8910E+06 -1.9937E+07 -2.5888E+07    2.0342E+08    1.1129E-01
      47-      1
       1          -1.1873E+08 -1.1548E+08 -3.0726E+08  1.4772E+07 -2.4865E+07 -1.6288E+07    1.9867E+08    1.0387E-01
      53-      1
       1          -1.2832E+08 -1.2488E+08 -3.1722E+08  1.8857E+07 -2.2298E+07 -2.0295E+07    2.0035E+08    1.0826E-01
      61-      1
       1          -3.9428E+07 -6.6132E+07 -2.9539E+08  3.7916E+06 -7.4415E+05 -2.7489E+07    2.4840E+08    1.3393E-01
      67-      1
       1          -1.1776E+08 -1.0524E+08 -3.4098E+08  1.4718E+07 -2.4681E+07 -1.4075E+07    2.3632E+08    1.0399E-01
      79-      1
       1          -2.5586E+08 -2.7426E+08 -5.6201E+08  3.8305E+06 -3.5858E+06 -4.1236E+06    2.9761E+08    5.4888E-02
      81-      1
       1          -5.2921E+07 -1.9856E+07 -3.1876E+08  3.3400E+06 -2.8845E+07 -1.8754E+06    2.8826E+08    1.3483E-01



 e l e m e n t   s t r a i n   c a l c u l a t i o n s   f o r   t i m e  s t e p      619   ( at time  4.28464E+01 )

 element  strain       eps-xx      eps-yy      eps-zz      eps-xy      eps-yz      eps-zx                            yield
 num/ipt   state
      45-      1
      1            6.5100E-02  4.7862E-02 -1.1306E-01  1.2072E-02 -7.1618E-03 -1.9081E-02
      47-      1
      1            4.9491E-02  5.9253E-02 -1.0681E-01  1.6636E-02 -1.4851E-02 -1.3079E-02
      53-      1
      1            5.4312E-02  5.5402E-02 -1.0923E-01  1.7345E-02 -1.1948E-02 -1.5978E-02
      61-      1
      1            7.0893E-02  4.5272E-02 -1.1698E-01  5.2267E-03 -3.2859E-03 -1.9004E-02
      67-      1
      1            4.3960E-02  6.3151E-02 -1.0720E-01  1.0683E-02 -1.7477E-02 -8.4269E-03
      79-      1
      1            2.8017E-02  2.5387E-02 -5.8661E-02  1.2182E-03 -1.2374E-03 -2.1224E-03
      81-      1
      1            4.3037E-02  6.9178E-02 -1.1367E-01  2.8568E-03 -2.2979E-02 -6.1393E-04



 e l e m e n t   s t r e s s   c a l c u l a t i o n s   f o r   t i m e  s t e p      627   ( at time 4.45497E+01 )

 element  materl
     ipt  stress       sig-xx      sig-yy      sig-zz      sig-xy      sig-yz      sig-zx                       yield
           state                                                                                  effsg      function
      45-      1
       1          -1.5144E+08 -1.6657E+08 -3.1572E+08  5.0090E+06 -1.2404E+07 -2.1840E+07    1.6340E+08    1.1418E-01
      47-      1
       1          -1.8452E+08 -1.8088E+08 -3.3424E+08  9.1738E+06 -2.1005E+07 -1.3561E+07    1.5844E+08    1.0675E-01
      53-      1
       1          -1.4507E+08 -1.4215E+08 -3.3538E+08  1.7897E+07 -2.0476E+07 -2.1764E+07    2.0105E+08    1.1194E-01
      61-      1
       1          -3.2126E+07 -5.6013E+07 -2.8829E+08  6.6177E+06 -2.0090E+06 -2.5458E+07    2.4932E+08    1.3816E-01
      67-      1
       1          -1.2855E+08 -1.1287E+08 -3.5244E+08  1.4654E+07 -2.4595E+07 -1.3573E+07    2.3853E+08    1.0802E-01
      79-      1
       1          -2.5440E+08 -2.7434E+08 -5.6360E+08  3.4675E+06 -2.4978E+06 -4.3700E+06    2.9991E+08    5.8256E-02
      81-      1
       1          -5.8591E+07 -2.4050E+07 -3.2538E+08  3.7397E+06 -2.7280E+07 -2.3338E+06    2.8961E+08    1.3978E-01



 e l e m e n t   s t r a i n   c a l c u l a t i o n s   f o r   t i m e  s t e p      627   ( at time  4.45497E+01 )

 element  strain       eps-xx      eps-yy      eps-zz      eps-xy      eps-yz      eps-zx                            yield
 num/ipt   state
      45-      1
      1            6.8179E-02  5.0456E-02 -1.1846E-01  1.2654E-02 -7.5903E-03 -1.9836E-02
      47-      1
      1            5.2759E-02  6.2573E-02 -1.1240E-01  1.7697E-02 -1.5781E-02 -1.3984E-02
      53-      1
      1            5.7281E-02  5.8562E-02 -1.1487E-01  1.8494E-02 -1.2602E-02 -1.6917E-02
      61-      1
      1            7.4017E-02  4.7637E-02 -1.2223E-01  5.5689E-03 -3.4264E-03 -1.9839E-02
      67-      1
      1            4.6163E-02  6.6266E-02 -1.1251E-01  1.1217E-02 -1.8170E-02 -8.8553E-03
      79-      1
      1            2.9864E-02  2.6874E-02 -6.2005E-02  1.2696E-03 -1.2576E-03 -2.2040E-03
      81-      1
      1            4.5234E-02  7.2486E-02 -1.1926E-01  2.9946E-03 -2.3651E-02 -5.7432E-04



 e l e m e n t   s t r e s s   c a l c u l a t i o n s   f o r   t i m e  s t e p      636   ( at time 4.62529E+01 )

 element  materl
     ipt  stress       sig-xx      sig-yy      sig-zz      sig-xy      sig-yz      sig-zx                       yield
           state                                                                                  effsg      function
      45-      1
       1          -1.6043E+08 -1.7934E+08 -3.2684E+08  3.0861E+06 -1.0205E+07 -2.0451E+07    1.6278E+08    1.1734E-01
      47-      1
       1          -1.9609E+08 -1.9359E+08 -3.4734E+08  8.6305E+06 -2.2027E+07 -1.4045E+07    1.5978E+08    1.0969E-01
      53-      1
       1          -1.5386E+08 -1.5528E+08 -3.4726E+08  1.6281E+07 -2.2503E+07 -2.1877E+07    2.0220E+08    1.1574E-01
      61-      1
       1          -9.5192E+07 -1.1409E+08 -2.6725E+08  1.3297E+06  1.0535E+06 -1.8534E+07    1.6658E+08    1.4202E-01
      67-      1
       1          -1.3038E+08 -1.1803E+08 -3.5736E+08  1.1983E+07 -2.5502E+07 -1.4637E+07    2.3979E+08    1.1232E-01
      79-      1
       1          -2.5118E+08 -2.7980E+08 -5.6662E+08  3.2408E+06 -7.6136E+05 -4.8119E+06    3.0232E+08    6.2133E-02
      81-      1
       1          -6.1864E+07 -3.3746E+07 -3.3309E+08 -1.4691E+05 -2.7808E+07 -1.6879E+06    2.9036E+08    1.4507E-01



 e l e m e n t   s t r a i n   c a l c u l a t i o n s   f o r   t i m e  s t e p      636   ( at time  4.62529E+01 )

 element  strain       eps-xx      eps-yy      eps-zz      eps-xy      eps-yz      eps-zx                            yield
 num/ipt   state
      45-      1
      1            7.1674E-02  5.3093E-02 -1.2444E-01  1.3175E-02 -7.9499E-03 -2.0668E-02
      47-      1
      1            5.5874E-02  6.5664E-02 -1.1811E-01  1.8579E-02 -1.6713E-02 -1.4776E-02
      53-      1
      1            6.0401E-02  6.1489E-02 -1.2066E-01  1.9405E-02 -1.3339E-02 -1.7753E-02
      61-      1
      1            7.8742E-02  5.0580E-02 -1.2882E-01  5.7478E-03 -3.3295E-03 -2.0953E-02
      67-      1
      1            4.8814E-02  6.9397E-02 -1.1810E-01  1.1717E-02 -1.8966E-02 -9.3790E-03
      79-      1
      1            3.2126E-02  2.8428E-02 -6.5857E-02  1.3279E-03 -1.2424E-03 -2.3118E-03
      81-      1
      1            4.7773E-02  7.5884E-02 -1.2526E-01  2.9755E-03 -2.4397E-02 -4.9879E-04



 e l e m e n t   s t r e s s   c a l c u l a t i o n s   f o r   t i m e  s t e p      645   ( at time 4.79561E+01 )

 element  materl
     ipt  stress       sig-xx      sig-yy      sig-zz      sig-xy      sig-yz      sig-zx                       yield
           state                                                                                  effsg      function
      45-      1
       1          -1.6779E+08 -1.8670E+08 -3.3504E+08  2.9027E+06 -1.1324E+07 -2.1003E+07    1.6401E+08    1.2011E-01
      47-      1
       1          -2.0756E+08 -2.0750E+08 -3.6171E+08  9.2576E+06 -2.0276E+07 -1.3579E+07    1.6067E+08    1.1240E-01
      53-      1
       1          -1.6150E+08 -1.6509E+08 -3.5732E+08  1.6630E+07 -2.1837E+07 -2.0987E+07    2.0307E+08    1.1920E-01
      61-      1
       1          -1.0602E+08 -1.2525E+08 -2.7883E+08  7.0576E+05 -2.1360E+05 -2.0529E+07    1.6786E+08    1.4513E-01
      67-      1
       1          -1.3433E+08 -1.2381E+08 -3.6379E+08  1.2058E+07 -2.4862E+07 -1.4661E+07    2.4107E+08    1.1620E-01
      79-      1
       1          -2.5329E+08 -2.7531E+08 -5.6709E+08  2.5099E+06 -7.5047E+05 -4.0929E+06    3.0350E+08    6.5523E-02
      81-      1
       1          -6.8051E+07 -3.8653E+07 -3.4020E+08  1.7050E+05 -2.7687E+07 -7.4432E+05    2.9195E+08    1.4981E-01



 e l e m e n t   s t r a i n   c a l c u l a t i o n s   f o r   t i m e  s t e p      645   ( at time  4.79561E+01 )

 element  strain       eps-xx      eps-yy      eps-zz      eps-xy      eps-yz      eps-zx                            yield
 num/ipt   state
      45-      1
      1            7.4611E-02  5.5451E-02 -1.2966E-01  1.3669E-02 -8.3540E-03 -2.1344E-02
      47-      1
      1            5.8741E-02  6.8466E-02 -1.2340E-01  1.9396E-02 -1.7572E-02 -1.5399E-02
      53-      1
      1            6.3141E-02  6.4207E-02 -1.2592E-01  2.0272E-02 -1.3993E-02 -1.8420E-02
      61-      1
      1            8.2150E-02  5.2822E-02 -1.3443E-01  5.9508E-03 -3.3279E-03 -2.1851E-02
      67-      1
      1            5.1219E-02  7.2173E-02 -1.2318E-01  1.2251E-02 -1.9727E-02 -9.8599E-03
      79-      1
      1            3.3925E-02  2.9989E-02 -6.9217E-02  1.3559E-03 -1.2562E-03 -2.3707E-03
      81-      1
      1            4.9963E-02  7.8993E-02 -1.3061E-01  3.0340E-03 -2.5093E-02 -4.2322E-04



 e l e m e n t   s t r e s s   c a l c u l a t i o n s   f o r   t i m e  s t e p      654   ( at time 4.96594E+01 )

 element  materl
     ipt  stress       sig-xx      sig-yy      sig-zz      sig-xy      sig-yz      sig-zx                       yield
           state                                                                                  effsg      function
      45-      1
       1          -1.5067E+08 -1.7381E+08 -3.2140E+08  3.9353E+06 -9.6653E+06 -1.9429E+07    1.6490E+08    1.2330E-01
      47-      1
       1          -2.1733E+08 -2.1213E+08 -3.7055E+08  1.1405E+07 -1.9275E+07 -1.3817E+07    1.6241E+08    1.1539E-01
      53-      1
       1          -1.6599E+08 -1.7165E+08 -3.6383E+08  1.7679E+07 -2.1437E+07 -2.2332E+07    2.0461E+08    1.2292E-01
      61-      1
       1          -1.1685E+08 -1.3819E+08 -2.9073E+08  1.0836E+06 -2.6704E+06 -2.0974E+07    1.6830E+08    1.4853E-01
      67-      1
       1          -1.6659E+08 -1.4989E+08 -3.5246E+08  1.3019E+07 -2.5690E+07 -1.4967E+07    2.0271E+08    1.2048E-01
      79-      1
       1          -2.5352E+08 -2.7845E+08 -5.7039E+08  2.3435E+06 -1.3138E+06 -3.3320E+06    3.0526E+08    6.9054E-02
      81-      1
       1          -7.0360E+07 -3.8172E+07 -2.9292E+08  5.6776E+06 -3.8866E+07 -6.3974E+06    2.4997E+08    1.5599E-01



 e l e m e n t   s t r a i n   c a l c u l a t i o n s   f o r   t i m e  s t e p      654   ( at time  4.96594E+01 )

 element  strain       eps-xx      eps-yy      eps-zz      eps-xy      eps-yz      eps-zx                            yield
 num/ipt   state
      45-      1
      1            7.8277E-02  5.8055E-02 -1.3544E-01  1.4341E-02 -8.7240E-03 -2.2094E-02
      47-      1
      1            6.1514E-02  7.1738E-02 -1.2917E-01  2.0250E-02 -1.8532E-02 -1.6090E-02
      53-      1
      1            6.6169E-02  6.7086E-02 -1.3159E-01  2.1222E-02 -1.4641E-02 -1.9182E-02
      61-      1
      1            8.5915E-02  5.5189E-02 -1.4051E-01  6.2914E-03 -3.4742E-03 -2.2828E-02
      67-      1
      1            5.3793E-02  7.6282E-02 -1.2937E-01  1.2909E-02 -2.0857E-02 -1.0337E-02
      79-      1
      1            3.5904E-02  3.1485E-02 -7.2731E-02  1.3931E-03 -1.2937E-03 -2.4190E-03
      81-      1
      1            5.3014E-02  8.4369E-02 -1.3791E-01  3.3211E-03 -2.6507E-02 -5.2035E-04



 e l e m e n t   s t r e s s   c a l c u l a t i o n s   f o r   t i m e  s t e p      664   ( at time 5.13626E+01 )

 element  materl
     ipt  stress       sig-xx      sig-yy      sig-zz      sig-xy      sig-yz      sig-zx                       yield
           state                                                                                  effsg      function
      45-      1
       1          -1.5509E+08 -1.7584E+08 -3.2503E+08  3.1917E+06 -9.8891E+06 -2.0803E+07    1.6555E+08    1.2617E-01
      47-      1
       1          -2.1430E+08 -2.0823E+08 -3.6920E+08  1.0640E+07 -1.4511E+07 -1.3006E+07    1.6263E+08    1.1827E-01
      53-      1
       1          -1.7272E+08 -1.8051E+08 -3.7414E+08  1.4974E+07 -1.9153E+07 -2.1608E+07    2.0551E+08    1.2645E-01
      61-      1
       1          -1.2581E+08 -1.4650E+08 -3.0014E+08  7.0542E+05 -2.6852E+06 -2.0676E+07    1.6887E+08    1.5149E-01
      67-      1
       1          -1.6298E+08 -1.5155E+08 -3.5406E+08  1.2771E+07 -2.3907E+07 -1.3619E+07    2.0393E+08    1.2406E-01
      79-      1
       1          -2.5269E+08 -2.8173E+08 -5.7208E+08  2.4636E+06 -1.1735E+06 -3.0663E+06    3.0599E+08    7.2821E-02
      81-      1
       1          -7.1974E+07 -4.5226E+07 -3.0247E+08  3.1824E+06 -3.5085E+07 -4.4902E+06    2.5257E+08    1.6050E-01



 e l e m e n t   s t r a i n   c a l c u l a t i o n s   f o r   t i m e  s t e p      664   ( at time  5.13626E+01 )

 element  strain       eps-xx      eps-yy      eps-zz      eps-xy      eps-yz      eps-zx                            yield
 num/ipt   state
      45-      1
      1            8.1386E-02  6.0475E-02 -1.4083E-01  1.4750E-02 -9.1344E-03 -2.2750E-02
      47-      1
      1            6.4262E-02  7.4808E-02 -1.3460E-01  2.0915E-02 -1.9397E-02 -1.6713E-02
      53-      1
      1            6.9031E-02  6.9853E-02 -1.3701E-01  2.1932E-02 -1.5329E-02 -1.9839E-02
      61-      1
      1            8.9180E-02  5.7358E-02 -1.4590E-01  6.4904E-03 -3.5677E-03 -2.3549E-02
      67-      1
      1            5.6353E-02  7.9309E-02 -1.3481E-01  1.3380E-02 -2.1698E-02 -1.0744E-02
      79-      1
      1            3.8051E-02  3.3024E-02 -7.6448E-02  1.4406E-03 -1.3168E-03 -2.4704E-03
      81-      1
      1            5.5458E-02  8.7802E-02 -1.4373E-01  3.3355E-03 -2.7287E-02 -5.0502E-04



 e l e m e n t   s t r e s s   c a l c u l a t i o n s   f o r   t i m e  s t e p      673   ( at time 5.30658E+01 )

 element  materl
     ipt  stress       sig-xx      sig-yy      sig-zz      sig-xy      sig-yz      sig-zx                       yield
           state                                                                                  effsg      function
      45-      1
       1          -1.6327E+08 -1.8178E+08 -3.3303E+08  2.9140E+06 -8.7736E+06 -2.0327E+07    1.6587E+08    1.2882E-01
      47-      1
[...]
      79-      1
       1           7.1850E+07  9.9551E+07 -7.2584E+07 -2.2851E+06 -1.3121E+07 -4.7644E+06    1.6196E+08    1.7702E-01
      81-      1
       1          -3.5779E+06 -8.1573E+06 -1.7724E+08  1.8134E+07 -2.7653E+07 -1.0618E+07    1.8167E+08    2.3903E-01



 e l e m e n t   s t r a i n   c a l c u l a t i o n s   f o r   t i m e  s t e p      859   ( at time  8.71304E+01 )

 element  strain       eps-xx      eps-yy      eps-zz      eps-xy      eps-yz      eps-zx                            yield
 num/ipt   state
      45-      1
      1            1.7960E-01  1.1893E-01 -2.8296E-01  2.2899E-02 -1.5239E-02 -4.5073E-02
      47-      1
      1            1.5293E-01  1.5882E-01 -2.8144E-01  5.0682E-02 -4.1266E-02 -3.5096E-02
      53-      1
      1            1.5380E-01  1.4715E-01 -2.7857E-01  4.9489E-02 -3.6984E-02 -3.8019E-02
      61-      1
      1            1.9424E-01  1.1885E-01 -2.9581E-01  1.1042E-02 -8.7551E-03 -4.4536E-02
      67-      1
      1            1.3813E-01  1.7131E-01 -2.7898E-01  3.1689E-02 -4.0854E-02 -1.7137E-02
      79-      1
      1            9.6838E-02  8.9905E-02 -1.8187E-01  1.7495E-03 -2.9616E-03 -3.2378E-03
      81-      1
      1            1.3370E-01  1.7806E-01 -2.9259E-01  1.4379E-02 -4.6398E-02 -2.2658E-03



 e l e m e n t   s t r e s s   c a l c u l a t i o n s   f o r   t i m e  s t e p      869   ( at time 8.88337E+01 )

 element  materl
     ipt  stress       sig-xx      sig-yy      sig-zz      sig-xy      sig-yz      sig-zx                       yield
           state                                                                                  effsg      function
      45-      1
       1          -1.0654E+08 -1.1449E+08 -2.3258E+08  6.1283E+06 -1.0146E+07 -2.8683E+07    1.3356E+08    2.0090E-01
      47-      1
       1          -8.1317E+07 -1.0391E+08 -1.7159E+08  3.3974E+06 -1.7057E+07 -2.0213E+07    9.3556E+07    1.8019E-01
      53-      1
       1          -8.9818E+07 -9.7650E+07 -2.1608E+08  1.0258E+07 -1.7856E+07 -1.5660E+07    1.3047E+08    2.0106E-01
      61-      1
       1          -8.0898E+07 -9.4567E+07 -2.6009E+08 -3.3404E+06 -3.1256E+06 -2.9944E+07    1.8055E+08    2.4485E-01
      67-      1
       1          -4.6458E+07 -4.8357E+07 -1.2924E+08  4.4356E+06 -1.7842E+07 -1.6547E+07    9.2383E+07    1.8919E-01
      79-      1
       1           7.0438E+07  8.4491E+07 -4.5657E+07 -3.7547E+06  8.2577E+05 -4.1335E+06    1.2411E+08    1.7952E-01
      81-      1
       1          -5.1977E+06 -1.0762E+07 -1.3504E+08  1.3193E+07 -2.9202E+07 -8.6714E+06    1.3955E+08    2.4315E-01



 e l e m e n t   s t r a i n   c a l c u l a t i o n s   f o r   t i m e  s t e p      869   ( at time  8.88337E+01 )

 element  strain       eps-xx      eps-yy      eps-zz      eps-xy      eps-yz      eps-zx                            yield
 num/ipt   state
      45-      1
      1            1.8356E-01  1.2228E-01 -2.9045E-01  2.3525E-02 -1.5054E-02 -4.4931E-02
      47-      1
      1            1.5782E-01  1.6161E-01 -2.8907E-01  5.1354E-02 -4.1372E-02 -3.5320E-02
      53-      1
      1            1.5821E-01  1.4983E-01 -2.8582E-01  4.9985E-02 -3.6778E-02 -3.7403E-02
      61-      1
      1            1.9852E-01  1.2217E-01 -3.0364E-01  1.1197E-02 -8.6546E-03 -4.4617E-02
      67-      1
      1            1.4226E-01  1.7576E-01 -2.8619E-01  3.2541E-02 -4.1995E-02 -1.7746E-02
      79-      1
      1            1.0028E-01  9.4354E-02 -1.8723E-01  1.2630E-03 -3.2942E-03 -3.8158E-03
      81-      1
      1            1.3838E-01  1.8362E-01 -3.0145E-01  1.5319E-02 -4.7945E-02 -2.0982E-03



 e l e m e n t   s t r e s s   c a l c u l a t i o n s   f o r   t i m e  s t e p      878   ( at time 9.05369E+01 )

 element  materl
     ipt  stress       sig-xx      sig-yy      sig-zz      sig-xy      sig-yz      sig-zx                       yield
           state                                                                                  effsg      function
      45-      1
       1          -1.1257E+08 -1.2312E+08 -2.4241E+08  7.1303E+06 -9.1807E+06 -2.8544E+07    1.3583E+08    2.0349E-01
      47-      1
       1          -9.3607E+07 -1.1170E+08 -1.8612E+08  3.8366E+06 -1.3939E+07 -1.7609E+07    9.3648E+07    1.8219E-01
      53-      1
       1          -9.9151E+07 -1.0644E+08 -2.2846E+08  1.0307E+07 -1.9037E+07 -1.3570E+07    1.3338E+08    2.0344E-01
      61-      1
       1          -7.1751E+07 -8.8655E+07 -2.5502E+08 -1.9426E+06 -3.2240E+06 -2.8828E+07    1.8251E+08    2.4908E-01
      67-      1
       1          -2.2905E+07 -2.6265E+07 -1.0790E+08  6.5254E+06 -1.6625E+07 -1.5204E+07    9.2742E+07    1.9145E-01
      79-      1
       1           3.3047E+07  4.1195E+07 -4.3640E+07 -5.0654E+05 -1.4381E+05 -4.0739E+06    8.1381E+07    1.8117E-01
      81-      1
       1           3.6779E+06 -3.6168E+06 -1.2859E+08  1.1980E+07 -2.7037E+07 -8.0615E+06    1.3929E+08    2.4609E-01



 e l e m e n t   s t r a i n   c a l c u l a t i o n s   f o r   t i m e  s t e p      878   ( at time  9.05369E+01 )

 element  strain       eps-xx      eps-yy      eps-zz      eps-xy      eps-yz      eps-zx                            yield
 num/ipt   state
      45-      1
      1            1.8726E-01  1.2531E-01 -2.9705E-01  2.4220E-02 -1.4860E-02 -4.4977E-02
      47-      1
      1            1.6163E-01  1.6479E-01 -2.9645E-01  5.1880E-02 -4.2011E-02 -3.5814E-02
      53-      1
      1            1.6186E-01  1.5228E-01 -2.9236E-01  5.0540E-02 -3.7227E-02 -3.7357E-02
      61-      1
      1            2.0319E-01  1.2518E-01 -3.1112E-01  1.1602E-02 -8.5204E-03 -4.5104E-02
      67-      1
      1            1.4628E-01  1.8024E-01 -2.9310E-01  3.3153E-02 -4.3309E-02 -1.8582E-02
      79-      1
      1            1.0328E-01  9.8267E-02 -1.9291E-01  1.0663E-03 -3.5332E-03 -4.1146E-03
      81-      1
      1            1.4209E-01  1.8774E-01 -3.0843E-01  1.5971E-02 -4.8672E-02 -2.1620E-03



 e l e m e n t   s t r e s s   c a l c u l a t i o n s   f o r   t i m e  s t e p      887   ( at time 9.22401E+01 )

 element  materl
     ipt  stress       sig-xx      sig-yy      sig-zz      sig-xy      sig-yz      sig-zx                       yield
           state                                                                                  effsg      function
      45-      1
       1          -1.2094E+08 -1.3260E+08 -2.5252E+08  7.1616E+06 -8.0017E+06 -2.7624E+07    1.3620E+08    2.0599E-01
      47-      1
       1          -9.3201E+07 -1.0973E+08 -1.8478E+08  3.7929E+06 -1.2694E+07 -1.9905E+07    9.4133E+07    1.8414E-01
      53-      1
       1          -1.0008E+08 -1.0508E+08 -2.3015E+08  1.1192E+07 -1.7971E+07 -1.3793E+07    1.3494E+08    2.0596E-01
      61-      1
       1          -7.6306E+07 -9.2900E+07 -2.5912E+08 -1.2250E+06 -3.9500E+06 -2.8467E+07    1.8206E+08    2.5284E-01
      67-      1
       1          -1.7627E+07 -1.9852E+07 -1.0280E+08  6.5628E+06 -1.6122E+07 -1.5321E+07    9.3183E+07    1.9340E-01
      79-      1
       1           4.3344E+07  5.2168E+07 -3.2823E+07 -2.5266E+05  7.3033E+05 -4.1820E+06    8.1275E+07    1.8259E-01
      81-      1
       1           1.3945E+07  1.6870E+06 -1.2138E+08  1.1713E+07 -2.6833E+07 -5.3616E+06    1.3950E+08    2.4905E-01



 e l e m e n t   s t r a i n   c a l c u l a t i o n s   f o r   t i m e  s t e p      887   ( at time  9.22401E+01 )

 element  strain       eps-xx      eps-yy      eps-zz      eps-xy      eps-yz      eps-zx                            yield
 num/ipt   state
      45-      1
      1            1.9086E-01  1.2805E-01 -3.0339E-01  2.4821E-02 -1.4752E-02 -4.5093E-02
      47-      1
      1            1.6545E-01  1.6823E-01 -3.0345E-01  5.2522E-02 -4.2459E-02 -3.6246E-02
      53-      1
      1            1.6565E-01  1.5508E-01 -2.9885E-01  5.1346E-02 -3.7676E-02 -3.7508E-02
      61-      1
      1            2.0720E-01  1.2793E-01 -3.1812E-01  1.1829E-02 -8.4603E-03 -4.5204E-02
      67-      1
      1            1.4966E-01  1.8472E-01 -2.9993E-01  3.3706E-02 -4.3962E-02 -1.8997E-02
      79-      1
      1            1.0574E-01  1.0179E-01 -1.9767E-01  8.6821E-04 -3.7849E-03 -4.4918E-03
      81-      1
      1            1.4607E-01  1.9179E-01 -3.1553E-01  1.6642E-02 -4.9071E-02 -2.0490E-03



 e l e m e n t   s t r e s s   c a l c u l a t i o n s   f o r   t i m e  s t e p      896   ( at time 9.39434E+01 )

 element  materl
     ipt  stress       sig-xx      sig-yy      sig-zz      sig-xy      sig-yz      sig-zx                       yield
           state                                                                                  effsg      function
      45-      1
       1          -1.2567E+08 -1.3626E+08 -2.5740E+08  6.3657E+06 -8.5441E+06 -2.8702E+07    1.3741E+08    2.0836E-01
      47-      1
       1          -8.9583E+07 -1.0588E+08 -1.8064E+08  3.1134E+06 -1.3149E+07 -2.0762E+07    9.4409E+07    1.8602E-01
      53-      1
       1          -1.0013E+08 -1.0505E+08 -2.3033E+08  1.1095E+07 -1.8113E+07 -1.4589E+07    1.3539E+08    2.0831E-01
      61-      1
       1          -7.9201E+07 -9.5795E+07 -2.6260E+08 -1.5493E+06 -4.1808E+06 -2.9311E+07    1.8304E+08    2.5623E-01
      67-      1
       1          -6.0573E+06 -1.1191E+07 -9.1282E+07  5.5935E+06 -1.8051E+07 -1.6283E+07    9.3376E+07    1.9535E-01
      79-      1
       1           5.8811E+07  6.1277E+07 -2.4089E+07 -6.6842E+05  9.5775E+05 -3.1658E+06    8.4363E+07    1.8396E-01
      81-      1
       1           1.5268E+07  1.0859E+06 -1.1975E+08  1.0947E+07 -2.7553E+07 -4.6891E+06    1.3863E+08    2.5173E-01



 e l e m e n t   s t r a i n   c a l c u l a t i o n s   f o r   t i m e  s t e p      896   ( at time  9.39434E+01 )

 element  strain       eps-xx      eps-yy      eps-zz      eps-xy      eps-yz      eps-zx                            yield
 num/ipt   state
      45-      1
      1            1.9434E-01  1.3064E-01 -3.0936E-01  2.5238E-02 -1.4639E-02 -4.5204E-02
      47-      1
      1            1.6901E-01  1.7164E-01 -3.1013E-01  5.2928E-02 -4.2952E-02 -3.6662E-02
      53-      1
      1            1.6910E-01  1.5762E-01 -3.0487E-01  5.2001E-02 -3.8104E-02 -3.7637E-02
      61-      1
      1            2.1090E-01  1.3050E-01 -3.2462E-01  1.1902E-02 -8.4021E-03 -4.5138E-02
      67-      1
      1            1.5313E-01  1.8911E-01 -3.0657E-01  3.4033E-02 -4.4506E-02 -1.9372E-02
      79-      1
      1            1.0883E-01  1.0472E-01 -2.0268E-01  6.5265E-04 -4.0611E-03 -4.5688E-03
      81-      1
      1            1.4966E-01  1.9556E-01 -3.2229E-01  1.7067E-02 -4.9110E-02 -1.9117E-03



 e l e m e n t   s t r e s s   c a l c u l a t i o n s   f o r   t i m e  s t e p      905   ( at time 9.56466E+01 )

 element  materl
     ipt  stress       sig-xx      sig-yy      sig-zz      sig-xy      sig-yz      sig-zx                       yield
           state                                                                                  effsg      function
      45-      1
       1          -1.2975E+08 -1.4306E+08 -2.6372E+08  7.4146E+06 -7.9215E+06 -2.7853E+07    1.3792E+08    2.1081E-01
      47-      1
       1          -8.4840E+07 -9.9588E+07 -1.7322E+08  2.7103E+06 -1.5083E+07 -2.2534E+07    9.4619E+07    1.8792E-01
      53-      1
       1          -9.8564E+07 -1.0459E+08 -2.2999E+08  1.2431E+07 -1.8382E+07 -1.5797E+07    1.3691E+08    2.1066E-01
      61-      1
       1          -7.7282E+07 -9.5650E+07 -2.6251E+08 -1.3526E+06 -3.7260E+06 -2.9282E+07    1.8402E+08    2.6007E-01
      67-      1
       1           3.6929E+06 -6.4073E+06 -8.2772E+07  6.4900E+06 -2.0221E+07 -1.5947E+07    9.3919E+07    1.9740E-01
      79-      1
       1           2.8107E+07  2.9825E+07 -1.3909E+07 -9.8911E+05  5.7019E+06 -1.4329E+05    4.4057E+07    1.8452E-01
      81-      1
       1           1.7267E+07  3.7229E+06 -1.1900E+08  1.0402E+07 -2.7363E+07 -4.6223E+06    1.3979E+08    2.5462E-01



 e l e m e n t   s t r a i n   c a l c u l a t i o n s   f o r   t i m e  s t e p      905   ( at time  9.56466E+01 )

 element  strain       eps-xx      eps-yy      eps-zz      eps-xy      eps-yz      eps-zx                            yield
 num/ipt   state
      45-      1
      1            1.9783E-01  1.3326E-01 -3.1535E-01  2.6044E-02 -1.4530E-02 -4.5396E-02
      47-      1
      1            1.7274E-01  1.7509E-01 -3.1732E-01  5.2995E-02 -4.3056E-02 -3.6761E-02
      53-      1
      1            1.7231E-01  1.6036E-01 -3.1102E-01  5.2857E-02 -3.8486E-02 -3.7666E-02
      61-      1
      1            2.1514E-01  1.3326E-01 -3.3163E-01  1.2141E-02 -8.2227E-03 -4.5306E-02
      67-      1
      1            1.5712E-01  1.9298E-01 -3.1369E-01  3.4837E-02 -4.5032E-02 -1.9704E-02
      79-      1
      1            1.1162E-01  1.0773E-01 -2.0727E-01  4.7506E-04 -3.7449E-03 -4.7398E-03
      81-      1
      1            1.5343E-01  1.9961E-01 -3.2936E-01  1.7681E-02 -4.9429E-02 -1.9406E-03



 e l e m e n t   s t r e s s   c a l c u l a t i o n s   f o r   t i m e  s t e p      915   ( at time 9.73498E+01 )

 element  materl
     ipt  stress       sig-xx      sig-yy      sig-zz      sig-xy      sig-yz      sig-zx                       yield
           state                                                                                  effsg      function
      45-      1
       1          -1.3612E+08 -1.4804E+08 -2.6830E+08  6.6555E+06 -8.2007E+06 -2.9355E+07    1.3770E+08    2.1337E-01
      47-      1
       1          -8.0648E+07 -9.6334E+07 -1.6866E+08  2.3091E+06 -1.4799E+07 -2.3694E+07    9.4707E+07    1.8989E-01
      53-      1
       1          -9.7476E+07 -1.0478E+08 -2.2786E+08  1.2349E+07 -1.9414E+07 -1.5397E+07    1.3565E+08    2.1307E-01
      61-      1
       1          -8.0912E+07 -9.9779E+07 -2.6543E+08 -1.9785E+06 -3.2998E+06 -2.9628E+07    1.8330E+08    2.6407E-01
      67-      1
       1           1.3026E+07  6.1665E+05 -7.4092E+07  6.3273E+06 -2.0838E+07 -1.6246E+07    9.4218E+07    1.9946E-01
      79-      1
       1           3.0632E+07  2.7281E+07 -1.3043E+07  1.2132E+06  7.7166E+06 -2.3421E+05    4.4222E+07    1.8531E-01
      81-      1
       1           2.1478E+07  3.9752E+06 -1.1527E+08  1.0861E+07 -2.8180E+07 -4.7651E+06    1.3934E+08    2.5766E-01



 e l e m e n t   s t r a i n   c a l c u l a t i o n s   f o r   t i m e  s t e p      915   ( at time  9.73498E+01 )

 element  strain       eps-xx      eps-yy      eps-zz      eps-xy      eps-yz      eps-zx                            yield
 num/ipt   state
      45-      1
      1            2.0137E-01  1.3609E-01 -3.2164E-01  2.6643E-02 -1.4364E-02 -4.5477E-02
      47-      1
      1            1.7637E-01  1.7869E-01 -3.2452E-01  5.3411E-02 -4.3225E-02 -3.6989E-02
      53-      1
      1            1.7596E-01  1.6309E-01 -3.1735E-01  5.3631E-02 -3.8851E-02 -3.7602E-02
      61-      1
      1            2.1944E-01  1.3606E-01 -3.3888E-01  1.2318E-02 -8.0832E-03 -4.5436E-02
      67-      1
      1            1.6131E-01  1.9743E-01 -3.2093E-01  3.5391E-02 -4.5348E-02 -1.9956E-02
      79-      1
      1            1.1523E-01  1.1092E-01 -2.1289E-01  4.9818E-04 -3.6883E-03 -4.8487E-03
      81-      1
      1            1.5755E-01  2.0377E-01 -3.3678E-01  1.8320E-02 -4.9572E-02 -1.8531E-03



 e l e m e n t   s t r e s s   c a l c u l a t i o n s   f o r   t i m e  s t e p      924   ( at time 9.90530E+01 )

 element  materl
     ipt  stress       sig-xx      sig-yy      sig-zz      sig-xy      sig-yz      sig-zx                       yield
           state                                                                                  effsg      function
      45-      1
       1          -1.3786E+08 -1.4980E+08 -2.7052E+08  6.3721E+06 -8.5167E+06 -2.9166E+07    1.3801E+08    2.1562E-01
      47-      1
       1          -7.6709E+07 -9.2543E+07 -1.6637E+08  1.8753E+06 -1.4634E+07 -2.2877E+07    9.5361E+07    1.9175E-01
      53-      1
       1          -9.7861E+07 -1.0304E+08 -2.2950E+08  1.1096E+07 -1.9115E+07 -1.5856E+07    1.3745E+08    2.1533E-01
      61-      1
       1          -7.6301E+07 -9.6786E+07 -2.6155E+08 -1.3127E+06 -3.8113E+06 -3.0882E+07    1.8399E+08    2.6745E-01
      67-      1
       1           9.1344E+06 -2.3955E+06 -7.8618E+07  6.6591E+06 -2.0227E+07 -1.5853E+07    9.4531E+07    2.0132E-01
      79-      1
       1           3.1388E+07  2.9878E+07 -1.1354E+07  9.9965E+05  8.1528E+06 -2.2153E+05    4.4353E+07    1.8594E-01
      81-      1
       1           2.0474E+07  4.7745E+06 -1.1621E+08  9.5409E+06 -2.7453E+07 -4.4139E+06    1.3920E+08    2.6038E-01



 e l e m e n t   s t r a i n   c a l c u l a t i o n s   f o r   t i m e  s t e p      924   ( at time  9.90530E+01 )

 element  strain       eps-xx      eps-yy      eps-zz      eps-xy      eps-yz      eps-zx                            yield
 num/ipt   state
      45-      1
      1            2.0456E-01  1.3855E-01 -3.2733E-01  2.7165E-02 -1.4242E-02 -4.5407E-02
      47-      1
      1            1.7980E-01  1.8202E-01 -3.3149E-01  5.3571E-02 -4.3423E-02 -3.7180E-02
      53-      1
      1            1.7922E-01  1.6573E-01 -3.2341E-01  5.4219E-02 -3.9209E-02 -3.7618E-02
      61-      1
      1            2.2326E-01  1.3847E-01 -3.4523E-01  1.2463E-02 -7.9328E-03 -4.5277E-02
      67-      1
      1            1.6475E-01  2.0132E-01 -3.2775E-01  3.5880E-02 -4.5596E-02 -2.0232E-02
      79-      1
      1            1.1770E-01  1.1378E-01 -2.1756E-01  4.7371E-04 -3.6500E-03 -5.0459E-03
      81-      1
      1            1.6112E-01  2.0758E-01 -3.4359E-01  1.8784E-02 -4.9600E-02 -1.7547E-03



 e l e m e n t   s t r e s s   c a l c u l a t i o n s   f o r   t i m e  s t e p      928   ( at time 1.00000E+02 )

 element  materl
     ipt  stress       sig-xx      sig-yy      sig-zz      sig-xy      sig-yz      sig-zx                       yield
           state                                                                                  effsg      function
      45-      1
       1          -1.6127E+08 -1.7457E+08 -2.9687E+08  6.1604E+06 -8.4284E+06 -2.8102E+07    1.3949E+08    2.1604E-01
      47-      1
       1          -9.1247E+07 -1.0633E+08 -1.8161E+08  2.6972E+06 -1.4374E+07 -2.1789E+07    9.5377E+07    1.9202E-01
      53-      1
       1          -1.2024E+08 -1.2401E+08 -2.5117E+08  1.0842E+07 -1.7637E+07 -1.7123E+07    1.3722E+08    2.1578E-01
      61-      1
       1          -1.0616E+08 -1.2802E+08 -2.9554E+08  1.8009E+05 -3.6949E+06 -2.8807E+07    1.8637E+08    2.6803E-01
      67-      1
       1          -5.1621E+06 -1.5153E+07 -9.2487E+07  6.3242E+06 -2.0822E+07 -1.5028E+07    9.4610E+07    2.0163E-01
      79-      1
       1           2.8368E+07  2.7074E+07 -1.4259E+07  9.7836E+05  8.1950E+06 -2.1058E+05    4.4363E+07    1.8599E-01
      81-      1
       1          -1.0587E+06 -1.4497E+07 -1.3801E+08  6.1353E+06 -2.7748E+07 -4.7625E+06    1.3996E+08    2.6083E-01



 e l e m e n t   s t r a i n   c a l c u l a t i o n s   f o r   t i m e  s t e p      928   ( at time  1.00000E+02 )

 element  strain       eps-xx      eps-yy      eps-zz      eps-xy      eps-yz      eps-zx                            yield
 num/ipt   state
      45-      1
      1            2.0491E-01  1.3869E-01 -3.2846E-01  2.7230E-02 -1.4335E-02 -4.5659E-02
      47-      1
      1            1.8015E-01  1.8225E-01 -3.3268E-01  5.3685E-02 -4.3534E-02 -3.7260E-02
      53-      1
      1            1.7945E-01  1.6601E-01 -3.2456E-01  5.4345E-02 -3.9328E-02 -3.7822E-02
      61-      1
      1            2.2366E-01  1.3859E-01 -3.4642E-01  1.2533E-02 -7.9640E-03 -4.5518E-02
      67-      1
      1            1.6499E-01  2.0174E-01 -3.2893E-01  3.5994E-02 -4.5837E-02 -2.0326E-02
      79-      1
      1            1.1777E-01  1.1388E-01 -2.1800E-01  4.5935E-04 -3.6641E-03 -5.0554E-03
      81-      1
      1            1.6145E-01  2.0800E-01 -3.4484E-01  1.8644E-02 -4.9771E-02 -1.8093E-03
