 LS-DYNA keyword deck by LS-PrePost                                      
                    ls-dyna smp d R14 R14.1.1s_1_ef50e1 date 06/16/2024

{BEGIN LEGEND}
 Entity #        Title
        1     Notched Bar                                                             
{END LEGEND}



 time =   0.0000E+00
 mat.#=    1             inten=  -2.6720E-12     kinen=   0.0000E+00     eroded_ie=   0.0000E+00     eroded_ke=   0.0000E+00
 x-mom=   0.0000E+00     y-mom=   0.0000E+00     z-mom=   0.0000E+00
 x-rbv=   0.0000E+00     y-rbv=   0.0000E+00     z-rbv=   0.0000E+00


 time =   2.5000E+00
 mat.#=    1             inten=   1.1498E-02     kinen=   0.0000E+00     eroded_ie=   0.0000E+00     eroded_ke=   0.0000E+00
 x-mom=   0.0000E+00     y-mom=   0.0000E+00     z-mom=   0.0000E+00
 x-rbv=   0.0000E+00     y-rbv=   0.0000E+00     z-rbv=   0.0000E+00


 time =   6.4622E+00
 mat.#=    1             inten=   7.6728E-02     kinen=   0.0000E+00     eroded_ie=   0.0000E+00     eroded_ke=   0.0000E+00
 x-mom=   0.0000E+00     y-mom=   0.0000E+00     z-mom=   0.0000E+00
 x-rbv=   0.0000E+00     y-rbv=   0.0000E+00     z-rbv=   0.0000E+00


 time =   9.3770E+00
 mat.#=    1             inten=   4.0705E-01     kinen=   0.0000E+00     eroded_ie=   0.0000E+00     eroded_ke=   0.0000E+00
 x-mom=   0.0000E+00     y-mom=   0.0000E+00     z-mom=   0.0000E+00
 x-rbv=   0.0000E+00     y-rbv=   0.0000E+00     z-rbv=   0.0000E+00


 time =   1.0055E+01
 mat.#=    1             inten=   4.1646E-01     kinen=   0.0000E+00     eroded_ie=   0.0000E+00     eroded_ke=   0.0000E+00
 x-mom=   0.0000E+00     y-mom=   0.0000E+00     z-mom=   0.0000E+00
 x-rbv=   0.0000E+00     y-rbv=   0.0000E+00     z-rbv=   0.0000E+00


 time =   1.1130E+01
 mat.#=    1             inten=   3.9030E-01     kinen=   0.0000E+00     eroded_ie=   0.0000E+00     eroded_ke=   0.0000E+00
 x-mom=   0.0000E+00     y-mom=   0.0000E+00     z-mom=   0.0000E+00
 x-rbv=   0.0000E+00     y-rbv=   0.0000E+00     z-rbv=   0.0000E+00


 time =   1.1668E+01
 mat.#=    1             inten=   3.9962E-01     kinen=   0.0000E+00     eroded_ie=   0.0000E+00     eroded_ke=   0.0000E+00
 x-mom=   0.0000E+00     y-mom=   0.0000E+00     z-mom=   0.0000E+00
 x-rbv=   0.0000E+00     y-rbv=   0.0000E+00     z-rbv=   0.0000E+00


 time =   1.2522E+01
 mat.#=    1             inten=   4.6395E-01     kinen=   0.0000E+00     eroded_ie=   0.0000E+00     eroded_ke=   0.0000E+00
 x-mom=   0.0000E+00     y-mom=   0.0000E+00     z-mom=   0.0000E+00
 x-rbv=   0.0000E+00     y-rbv=   0.0000E+00     z-rbv=   0.0000E+00


 time =   1.2950E+01
 mat.#=    1             inten=   4.7548E-01     kinen=   0.0000E+00     eroded_ie=   0.0000E+00     eroded_ke=   0.0000E+00
 x-mom=   0.0000E+00     y-mom=   0.0000E+00     z-mom=   0.0000E+00
 x-rbv=   0.0000E+00     y-rbv=   0.0000E+00     z-rbv=   0.0000E+00


 time =   1.3628E+01
 mat.#=    1             inten=   4.9870E-01     kinen=   0.0000E+00     eroded_ie=   0.0000E+00     eroded_ke=   0.0000E+00
 x-mom=   0.0000E+00     y-mom=   0.0000E+00     z-mom=   0.0000E+00
 x-rbv=   0.0000E+00     y-rbv=   0.0000E+00     z-rbv=   0.0000E+00


 time =   1.4703E+01
 mat.#=    1             inten=   5.3799E-01     kinen=   0.0000E+00     eroded_ie=   0.0000E+00     eroded_ke=   0.0000E+00
 x-mom=   0.0000E+00     y-mom=   0.0000E+00     z-mom=   0.0000E+00
 x-rbv=   0.0000E+00     y-rbv=   0.0000E+00     z-rbv=   0.0000E+00


 time =   1.5777E+01
 mat.#=    1             inten=   5.5812E-01     kinen=   0.0000E+00     eroded_ie=   0.0000E+00     eroded_ke=   0.0000E+00
 x-mom=   0.0000E+00     y-mom=   0.0000E+00     z-mom=   0.0000E+00
 x-rbv=   0.0000E+00     y-rbv=   0.0000E+00     z-rbv=   0.0000E+00


 time =   1.6852E+01
 mat.#=    1             inten=   6.1621E-01     kinen=   0.0000E+00     eroded_ie=   0.0000E+00     eroded_ke=   0.0000E+00
 x-mom=   0.0000E+00     y-mom=   0.0000E+00     z-mom=   0.0000E+00
 x-rbv=   0.0000E+00     y-rbv=   0.0000E+00     z-rbv=   0.0000E+00


 time =   1.7927E+01
 mat.#=    1             inten=   6.7341E-01     kinen=   0.0000E+00     eroded_ie=   0.0000E+00     eroded_ke=   0.0000E+00
 x-mom=   0.0000E+00     y-mom=   0.0000E+00     z-mom=   0.0000E+00
 x-rbv=   0.0000E+00     y-rbv=   0.0000E+00     z-rbv=   0.0000E+00


 time =   1.9001E+01
 mat.#=    1             inten=   7.1802E-01     kinen=   0.0000E+00     eroded_ie=   0.0000E+00     eroded_ke=   0.0000E+00
 x-mom=   0.0000E+00     y-mom=   0.0000E+00     z-mom=   0.0000E+00
 x-rbv=   0.0000E+00     y-rbv=   0.0000E+00     z-rbv=   0.0000E+00


 time =   2.0704E+01
 mat.#=    1             inten=   8.1727E-01     kinen=   0.0000E+00     eroded_ie=   0.0000E+00     eroded_ke=   0.0000E+00
 x-mom=   0.0000E+00     y-mom=   0.0000E+00     z-mom=   0.0000E+00
 x-rbv=   0.0000E+00     y-rbv=   0.0000E+00     z-rbv=   0.0000E+00


 time =   2.2408E+01
 mat.#=    1             inten=   9.1099E-01     kinen=   0.0000E+00     eroded_ie=   0.0000E+00     eroded_ke=   0.0000E+00
 x-mom=   0.0000E+00     y-mom=   0.0000E+00     z-mom=   0.0000E+00
 x-rbv=   0.0000E+00     y-rbv=   0.0000E+00     z-rbv=   0.0000E+00


 time =   2.4111E+01
 mat.#=    1             inten=   9.9973E-01     kinen=   0.0000E+00     eroded_ie=   0.0000E+00     eroded_ke=   0.0000E+00
 x-mom=   0.0000E+00     y-mom=   0.0000E+00     z-mom=   0.0000E+00
 x-rbv=   0.0000E+00     y-rbv=   0.0000E+00     z-rbv=   0.0000E+00


 time =   2.5814E+01
 mat.#=    1             inten=   1.0885E+00     kinen=   0.0000E+00     eroded_ie=   0.0000E+00     eroded_ke=   0.0000E+00
 x-mom=   0.0000E+00     y-mom=   0.0000E+00     z-mom=   0.0000E+00
 x-rbv=   0.0000E+00     y-rbv=   0.0000E+00     z-rbv=   0.0000E+00


 time =   2.7517E+01
 mat.#=    1             inten=   1.1770E+00     kinen=   0.0000E+00     eroded_ie=   0.0000E+00     eroded_ke=   0.0000E+00
 x-mom=   0.0000E+00     y-mom=   0.0000E+00     z-mom=   0.0000E+00
 x-rbv=   0.0000E+00     y-rbv=   0.0000E+00     z-rbv=   0.0000E+00


 time =   2.9221E+01
 mat.#=    1             inten=   1.2676E+00     kinen=   0.0000E+00     eroded_ie=   0.0000E+00     eroded_ke=   0.0000E+00
 x-mom=   0.0000E+00     y-mom=   0.0000E+00     z-mom=   0.0000E+00
 x-rbv=   0.0000E+00     y-rbv=   0.0000E+00     z-rbv=   0.0000E+00


 time =   3.0924E+01
 mat.#=    1             inten=   1.3587E+00     kinen=   0.0000E+00     eroded_ie=   0.0000E+00     eroded_ke=   0.0000E+00
 x-mom=   0.0000E+00     y-mom=   0.0000E+00     z-mom=   0.0000E+00
 x-rbv=   0.0000E+00     y-rbv=   0.0000E+00     z-rbv=   0.0000E+00


 time =   3.2627E+01
 mat.#=    1             inten=   1.4372E+00     kinen=   0.0000E+00     eroded_ie=   0.0000E+00     eroded_ke=   0.0000E+00
 x-mom=   0.0000E+00     y-mom=   0.0000E+00     z-mom=   0.0000E+00
 x-rbv=   0.0000E+00     y-rbv=   0.0000E+00     z-rbv=   0.0000E+00


 time =   3.4330E+01
 mat.#=    1             inten=   1.5207E+00     kinen=   0.0000E+00     eroded_ie=   0.0000E+00     eroded_ke=   0.0000E+00
 x-mom=   0.0000E+00     y-mom=   0.0000E+00     z-mom=   0.0000E+00
 x-rbv=   0.0000E+00     y-rbv=   0.0000E+00     z-rbv=   0.0000E+00


 time =   3.6034E+01
 mat.#=    1             inten=   1.6031E+00     kinen=   0.0000E+00     eroded_ie=   0.0000E+00     eroded_ke=   0.0000E+00
 x-mom=   0.0000E+00     y-mom=   0.0000E+00     z-mom=   0.0000E+00
 x-rbv=   0.0000E+00     y-rbv=   0.0000E+00     z-rbv=   0.0000E+00


 time =   3.7737E+01
 mat.#=    1             inten=   1.6814E+00     kinen=   0.0000E+00     eroded_ie=   0.0000E+00     eroded_ke=   0.0000E+00
 x-mom=   0.0000E+00     y-mom=   0.0000E+00     z-mom=   0.0000E+00
 x-rbv=   0.0000E+00     y-rbv=   0.0000E+00     z-rbv=   0.0000E+00


 time =   3.9440E+01
 mat.#=    1             inten=   1.7563E+00     kinen=   0.0000E+00     eroded_ie=   0.0000E+00     eroded_ke=   0.0000E+00
 x-mom=   0.0000E+00     y-mom=   0.0000E+00     z-mom=   0.0000E+00
 x-rbv=   0.0000E+00     y-rbv=   0.0000E+00     z-rbv=   0.0000E+00


 time =   4.1143E+01
 mat.#=    1             inten=   1.8317E+00     kinen=   0.0000E+00     eroded_ie=   0.0000E+00     eroded_ke=   0.0000E+00
 x-mom=   0.0000E+00     y-mom=   0.0000E+00     z-mom=   0.0000E+00
 x-rbv=   0.0000E+00     y-rbv=   0.0000E+00     z-rbv=   0.0000E+00


 time =   4.2846E+01
 mat.#=    1             inten=   1.9065E+00     kinen=   0.0000E+00     eroded_ie=   0.0000E+00     eroded_ke=   0.0000E+00
 x-mom=   0.0000E+00     y-mom=   0.0000E+00     z-mom=   0.0000E+00
 x-rbv=   0.0000E+00     y-rbv=   0.0000E+00     z-rbv=   0.0000E+00


 time =   4.4550E+01
 mat.#=    1             inten=   1.9839E+00     kinen=   0.0000E+00     eroded_ie=   0.0000E+00     eroded_ke=   0.0000E+00
 x-mom=   0.0000E+00     y-mom=   0.0000E+00     z-mom=   0.0000E+00
 x-rbv=   0.0000E+00     y-rbv=   0.0000E+00     z-rbv=   0.0000E+00


 time =   4.6253E+01
 mat.#=    1             inten=   2.0596E+00     kinen=   0.0000E+00     eroded_ie=   0.0000E+00     eroded_ke=   0.0000E+00
 x-mom=   0.0000E+00     y-mom=   0.0000E+00     z-mom=   0.0000E+00
 x-rbv=   0.0000E+00     y-rbv=   0.0000E+00     z-rbv=   0.0000E+00


 time =   4.7956E+01
 mat.#=    1             inten=   2.1341E+00     kinen=   0.0000E+00     eroded_ie=   0.0000E+00     eroded_ke=   0.0000E+00
 x-mom=   0.0000E+00     y-mom=   0.0000E+00     z-mom=   0.0000E+00
 x-rbv=   0.0000E+00     y-rbv=   0.0000E+00     z-rbv=   0.0000E+00


 time =   4.9659E+01
 mat.#=    1             inten=   2.2102E+00     kinen=   0.0000E+00     eroded_ie=   0.0000E+00     eroded_ke=   0.0000E+00
 x-mom=   0.0000E+00     y-mom=   0.0000E+00     z-mom=   0.0000E+00
 x-rbv=   0.0000E+00     y-rbv=   0.0000E+00     z-rbv=   0.0000E+00


 time =   5.1363E+01
 mat.#=    1             inten=   2.2858E+00     kinen=   0.0000E+00     eroded_ie=   0.0000E+00     eroded_ke=   0.0000E+00
 x-mom=   0.0000E+00     y-mom=   0.0000E+00     z-mom=   0.0000E+00
 x-rbv=   0.0000E+00     y-rbv=   0.0000E+00     z-rbv=   0.0000E+00


 time =   5.3066E+01
 mat.#=    1             inten=   2.3641E+00     kinen=   0.0000E+00     eroded_ie=   0.0000E+00     eroded_ke=   0.0000E+00
 x-mom=   0.0000E+00     y-mom=   0.0000E+00     z-mom=   0.0000E+00
 x-rbv=   0.0000E+00     y-rbv=   0.0000E+00     z-rbv=   0.0000E+00


 time =   5.4769E+01
 mat.#=    1             inten=   2.4409E+00     kinen=   0.0000E+00     eroded_ie=   0.0000E+00     eroded_ke=   0.0000E+00
 x-mom=   0.0000E+00     y-mom=   0.0000E+00     z-mom=   0.0000E+00
 x-rbv=   0.0000E+00     y-rbv=   0.0000E+00     z-rbv=   0.0000E+00


 time =   5.6472E+01
 mat.#=    1             inten=   2.5184E+00     kinen=   0.0000E+00     eroded_ie=   0.0000E+00     eroded_ke=   0.0000E+00
 x-mom=   0.0000E+00     y-mom=   0.0000E+00     z-mom=   0.0000E+00
 x-rbv=   0.0000E+00     y-rbv=   0.0000E+00     z-rbv=   0.0000E+00


 time =   5.8176E+01
 mat.#=    1             inten=   2.5942E+00     kinen=   0.0000E+00     eroded_ie=   0.0000E+00     eroded_ke=   0.0000E+00
 x-mom=   0.0000E+00     y-mom=   0.0000E+00     z-mom=   0.0000E+00
 x-rbv=   0.0000E+00     y-rbv=   0.0000E+00     z-rbv=   0.0000E+00


 time =   5.9879E+01
 mat.#=    1             inten=   2.6631E+00     kinen=   0.0000E+00     eroded_ie=   0.0000E+00     eroded_ke=   0.0000E+00
 x-mom=   0.0000E+00     y-mom=   0.0000E+00     z-mom=   0.0000E+00
 x-rbv=   0.0000E+00     y-rbv=   0.0000E+00     z-rbv=   0.0000E+00


 time =   6.1582E+01
 mat.#=    1             inten=   2.7321E+00     kinen=   0.0000E+00     eroded_ie=   0.0000E+00     eroded_ke=   0.0000E+00
 x-mom=   0.0000E+00     y-mom=   0.0000E+00     z-mom=   0.0000E+00
 x-rbv=   0.0000E+00     y-rbv=   0.0000E+00     z-rbv=   0.0000E+00


 time =   6.3285E+01
 mat.#=    1             inten=   2.8022E+00     kinen=   0.0000E+00     eroded_ie=   0.0000E+00     eroded_ke=   0.0000E+00
 x-mom=   0.0000E+00     y-mom=   0.0000E+00     z-mom=   0.0000E+00
 x-rbv=   0.0000E+00     y-rbv=   0.0000E+00     z-rbv=   0.0000E+00


 time =   6.4988E+01
 mat.#=    1             inten=   2.8711E+00     kinen=   0.0000E+00     eroded_ie=   0.0000E+00     eroded_ke=   0.0000E+00
 x-mom=   0.0000E+00     y-mom=   0.0000E+00     z-mom=   0.0000E+00
 x-rbv=   0.0000E+00     y-rbv=   0.0000E+00     z-rbv=   0.0000E+00


 time =   6.6692E+01
 mat.#=    1             inten=   2.9313E+00     kinen=   0.0000E+00     eroded_ie=   0.0000E+00     eroded_ke=   0.0000E+00
 x-mom=   0.0000E+00     y-mom=   0.0000E+00     z-mom=   0.0000E+00
 x-rbv=   0.0000E+00     y-rbv=   0.0000E+00     z-rbv=   0.0000E+00


 time =   6.8395E+01
 mat.#=    1             inten=   2.9862E+00     kinen=   0.0000E+00     eroded_ie=   0.0000E+00     eroded_ke=   0.0000E+00
 x-mom=   0.0000E+00     y-mom=   0.0000E+00     z-mom=   0.0000E+00
 x-rbv=   0.0000E+00     y-rbv=   0.0000E+00     z-rbv=   0.0000E+00


 time =   7.0098E+01
 mat.#=    1             inten=   3.0419E+00     kinen=   0.0000E+00     eroded_ie=   0.0000E+00     eroded_ke=   0.0000E+00
 x-mom=   0.0000E+00     y-mom=   0.0000E+00     z-mom=   0.0000E+00
 x-rbv=   0.0000E+00     y-rbv=   0.0000E+00     z-rbv=   0.0000E+00


 time =   7.1801E+01
 mat.#=    1             inten=   3.0974E+00     kinen=   0.0000E+00     eroded_ie=   0.0000E+00     eroded_ke=   0.0000E+00
 x-mom=   0.0000E+00     y-mom=   0.0000E+00     z-mom=   0.0000E+00
 x-rbv=   0.0000E+00     y-rbv=   0.0000E+00     z-rbv=   0.0000E+00


 time =   7.3505E+01
 mat.#=    1             inten=   3.1513E+00     kinen=   0.0000E+00     eroded_ie=   0.0000E+00     eroded_ke=   0.0000E+00
 x-mom=   0.0000E+00     y-mom=   0.0000E+00     z-mom=   0.0000E+00
 x-rbv=   0.0000E+00     y-rbv=   0.0000E+00     z-rbv=   0.0000E+00


 time =   7.5208E+01
 mat.#=    1             inten=   3.2133E+00     kinen=   0.0000E+00     eroded_ie=   0.0000E+00     eroded_ke=   0.0000E+00
 x-mom=   0.0000E+00     y-mom=   0.0000E+00     z-mom=   0.0000E+00
 x-rbv=   0.0000E+00     y-rbv=   0.0000E+00     z-rbv=   0.0000E+00


 time =   7.6911E+01
 mat.#=    1             inten=   3.2809E+00     kinen=   0.0000E+00     eroded_ie=   0.0000E+00     eroded_ke=   0.0000E+00
 x-mom=   0.0000E+00     y-mom=   0.0000E+00     z-mom=   0.0000E+00
 x-rbv=   0.0000E+00     y-rbv=   0.0000E+00     z-rbv=   0.0000E+00


 time =   7.8614E+01
 mat.#=    1             inten=   3.3457E+00     kinen=   0.0000E+00     eroded_ie=   0.0000E+00     eroded_ke=   0.0000E+00
 x-mom=   0.0000E+00     y-mom=   0.0000E+00     z-mom=   0.0000E+00
 x-rbv=   0.0000E+00     y-rbv=   0.0000E+00     z-rbv=   0.0000E+00


 time =   8.0318E+01
 mat.#=    1             inten=   3.4057E+00     kinen=   0.0000E+00     eroded_ie=   0.0000E+00     eroded_ke=   0.0000E+00
 x-mom=   0.0000E+00     y-mom=   0.0000E+00     z-mom=   0.0000E+00
 x-rbv=   0.0000E+00     y-rbv=   0.0000E+00     z-rbv=   0.0000E+00


 time =   8.2021E+01
 mat.#=    1             inten=   3.4645E+00     kinen=   0.0000E+00     eroded_ie=   0.0000E+00     eroded_ke=   0.0000E+00
 x-mom=   0.0000E+00     y-mom=   0.0000E+00     z-mom=   0.0000E+00
 x-rbv=   0.0000E+00     y-rbv=   0.0000E+00     z-rbv=   0.0000E+00


 time =   8.3724E+01
 mat.#=    1             inten=   3.5280E+00     kinen=   0.0000E+00     eroded_ie=   0.0000E+00     eroded_ke=   0.0000E+00
 x-mom=   0.0000E+00     y-mom=   0.0000E+00     z-mom=   0.0000E+00
 x-rbv=   0.0000E+00     y-rbv=   0.0000E+00     z-rbv=   0.0000E+00


 time =   8.5427E+01
 mat.#=    1             inten=   3.5817E+00     kinen=   0.0000E+00     eroded_ie=   0.0000E+00     eroded_ke=   0.0000E+00
 x-mom=   0.0000E+00     y-mom=   0.0000E+00     z-mom=   0.0000E+00
 x-rbv=   0.0000E+00     y-rbv=   0.0000E+00     z-rbv=   0.0000E+00


 time =   8.7130E+01
 mat.#=    1             inten=   3.6265E+00     kinen=   0.0000E+00     eroded_ie=   0.0000E+00     eroded_ke=   0.0000E+00
 x-mom=   0.0000E+00     y-mom=   0.0000E+00     z-mom=   0.0000E+00
 x-rbv=   0.0000E+00     y-rbv=   0.0000E+00     z-rbv=   0.0000E+00


 time =   8.8834E+01
 mat.#=    1             inten=   3.6711E+00     kinen=   0.0000E+00     eroded_ie=   0.0000E+00     eroded_ke=   0.0000E+00
 x-mom=   0.0000E+00     y-mom=   0.0000E+00     z-mom=   0.0000E+00
 x-rbv=   0.0000E+00     y-rbv=   0.0000E+00     z-rbv=   0.0000E+00


 time =   9.0537E+01
 mat.#=    1             inten=   3.7247E+00     kinen=   0.0000E+00     eroded_ie=   0.0000E+00     eroded_ke=   0.0000E+00
 x-mom=   0.0000E+00     y-mom=   0.0000E+00     z-mom=   0.0000E+00
 x-rbv=   0.0000E+00     y-rbv=   0.0000E+00     z-rbv=   0.0000E+00


 time =   9.2240E+01
 mat.#=    1             inten=   3.7834E+00     kinen=   0.0000E+00     eroded_ie=   0.0000E+00     eroded_ke=   0.0000E+00
 x-mom=   0.0000E+00     y-mom=   0.0000E+00     z-mom=   0.0000E+00
 x-rbv=   0.0000E+00     y-rbv=   0.0000E+00     z-rbv=   0.0000E+00


 time =   9.3943E+01
 mat.#=    1             inten=   3.8410E+00     kinen=   0.0000E+00     eroded_ie=   0.0000E+00     eroded_ke=   0.0000E+00
 x-mom=   0.0000E+00     y-mom=   0.0000E+00     z-mom=   0.0000E+00
 x-rbv=   0.0000E+00     y-rbv=   0.0000E+00     z-rbv=   0.0000E+00


 time =   9.5647E+01
 mat.#=    1             inten=   3.8963E+00     kinen=   0.0000E+00     eroded_ie=   0.0000E+00     eroded_ke=   0.0000E+00
 x-mom=   0.0000E+00     y-mom=   0.0000E+00     z-mom=   0.0000E+00
 x-rbv=   0.0000E+00     y-rbv=   0.0000E+00     z-rbv=   0.0000E+00


 time =   9.7350E+01
 mat.#=    1             inten=   3.9506E+00     kinen=   0.0000E+00     eroded_ie=   0.0000E+00     eroded_ke=   0.0000E+00
 x-mom=   0.0000E+00     y-mom=   0.0000E+00     z-mom=   0.0000E+00
 x-rbv=   0.0000E+00     y-rbv=   0.0000E+00     z-rbv=   0.0000E+00


 time =   9.9053E+01
 mat.#=    1             inten=   4.0089E+00     kinen=   0.0000E+00     eroded_ie=   0.0000E+00     eroded_ke=   0.0000E+00
 x-mom=   0.0000E+00     y-mom=   0.0000E+00     z-mom=   0.0000E+00
 x-rbv=   0.0000E+00     y-rbv=   0.0000E+00     z-rbv=   0.0000E+00


 time =   1.0000E+02
 mat.#=    1             inten=   4.0389E+00     kinen=   0.0000E+00     eroded_ie=   0.0000E+00     eroded_ke=   0.0000E+00
 x-mom=   0.0000E+00     y-mom=   0.0000E+00     z-mom=   0.0000E+00
 x-rbv=   0.0000E+00     y-rbv=   0.0000E+00     z-rbv=   0.0000E+00
