 LS-DYNA keyword deck by LS-PrePost                                      
                    ls-dyna smp d R14 R14.1.1s_1_ef50e1 date 06/16/2024



 n o d a l  s t r e s s  c a l c u l a t i o n s   f o r   t i m e  s t e p        1   ( at time 0.00000E+00 )

 node (global)
          stress       sig-xx      sig-yy      sig-zz      sig-xy      sig-yz      sig-zx       plastic
                                                                                                 strain 
       1-
 mid.  surface     5.3602E-05  5.3602E-05  5.3602E-05  0.0000E+00  0.0000E+00  0.0000E+00  0.0000E+00
       2-
 mid.  surface     9.5276E-05  9.5276E-05  9.5276E-05  0.0000E+00  0.0000E+00  0.0000E+00  0.0000E+00
       8-
 mid.  surface     3.1932E-05  3.1932E-05  3.1932E-05  0.0000E+00  0.0000E+00  0.0000E+00  0.0000E+00
       9-
 mid.  surface    -2.9208E-05 -2.9208E-05 -2.9208E-05  0.0000E+00  0.0000E+00  0.0000E+00  0.0000E+00
      10-
 mid.  surface     4.4959E-05  4.4959E-05  4.4959E-05  0.0000E+00  0.0000E+00  0.0000E+00  0.0000E+00
      11-
 mid.  surface     2.9827E-05  2.9827E-05  2.9827E-05  0.0000E+00  0.0000E+00  0.0000E+00  0.0000E+00
      12-
 mid.  surface     5.5756E-05  5.5756E-05  5.5756E-05  0.0000E+00  0.0000E+00  0.0000E+00  0.0000E+00
      17-
 mid.  surface    -2.1580E-05 -2.1580E-05 -2.1580E-05  0.0000E+00  0.0000E+00  0.0000E+00  0.0000E+00
      18-
 mid.  surface     2.1147E-05  2.1147E-05  2.1147E-05  0.0000E+00  0.0000E+00  0.0000E+00  0.0000E+00
      19-
 mid.  surface     7.9568E-05  7.9568E-05  7.9568E-05  0.0000E+00  0.0000E+00  0.0000E+00  0.0000E+00
      20-
 mid.  surface    -2.1451E-05 -2.1451E-05 -2.1451E-05  0.0000E+00  0.0000E+00  0.0000E+00  0.0000E+00
      21-
 mid.  surface    -2.6336E-05 -2.6336E-05 -2.6336E-05  0.0000E+00  0.0000E+00  0.0000E+00  0.0000E+00
      22-
 mid.  surface    -2.2547E-05 -2.2547E-05 -2.2547E-05  0.0000E+00  0.0000E+00  0.0000E+00  0.0000E+00
      23-
 mid.  surface     3.9965E-05  3.9965E-05  3.9965E-05  0.0000E+00  0.0000E+00  0.0000E+00  0.0000E+00
      24-
 mid.  surface    -3.6755E-05 -3.6755E-05 -3.6755E-05  0.0000E+00  0.0000E+00  0.0000E+00  0.0000E+00
      25-
 mid.  surface    -1.1793E-04 -1.1793E-04 -1.1793E-04  0.0000E+00  0.0000E+00  0.0000E+00  0.0000E+00
      26-
 mid.  surface    -2.6337E-05 -2.6337E-05 -2.6337E-05  0.0000E+00  0.0000E+00  0.0000E+00  0.0000E+00
      27-
 mid.  surface     1.7217E-05  1.7217E-05  1.7217E-05  0.0000E+00  0.0000E+00  0.0000E+00  0.0000E+00
      28-
 mid.  surface    -7.0051E-05 -7.0051E-05 -7.0051E-05  0.0000E+00  0.0000E+00  0.0000E+00  0.0000E+00
      29-
 mid.  surface     2.3031E-05  2.3031E-05  2.3031E-05  0.0000E+00  0.0000E+00  0.0000E+00  0.0000E+00
      30-
 mid.  surface     1.0553E-04  1.0553E-04  1.0553E-04  0.0000E+00  0.0000E+00  0.0000E+00  0.0000E+00
      31-
 mid.  surface     2.1940E-06  2.1940E-06  2.1940E-06  0.0000E+00  0.0000E+00  0.0000E+00  0.0000E+00
      52-
 mid.  surface     2.4654E-05  2.4654E-05  2.4654E-05  0.0000E+00  0.0000E+00  0.0000E+00  0.0000E+00
      53-
 mid.  surface     1.0593E-05  1.0593E-05  1.0593E-05  0.0000E+00  0.0000E+00  0.0000E+00  0.0000E+00
      54-
 mid.  surface    -2.6127E-07 -2.6127E-07 -2.6127E-07  0.0000E+00  0.0000E+00  0.0000E+00  0.0000E+00
      55-
 mid.  surface     1.9499E-05  1.9499E-05  1.9499E-05  0.0000E+00  0.0000E+00  0.0000E+00  0.0000E+00
      56-
 mid.  surface     3.6803E-05  3.6803E-05  3.6803E-05  0.0000E+00  0.0000E+00  0.0000E+00  0.0000E+00
      57-
 mid.  surface     6.2769E-05  6.2769E-05  6.2769E-05  0.0000E+00  0.0000E+00  0.0000E+00  0.0000E+00
     124-
 mid.  surface     1.8158E-05  1.8158E-05  1.8158E-05  0.0000E+00  0.0000E+00  0.0000E+00  0.0000E+00
     125-
 mid.  surface     1.3029E-05  1.3029E-05  1.3029E-05  0.0000E+00  0.0000E+00  0.0000E+00  0.0000E+00
     126-
 mid.  surface    -9.8736E-05 -9.8736E-05 -9.8736E-05  0.0000E+00  0.0000E+00  0.0000E+00  0.0000E+00
     127-
 mid.  surface    -8.0053E-05 -8.0053E-05 -8.0053E-05  0.0000E+00  0.0000E+00  0.0000E+00  0.0000E+00
     128-
 mid.  surface     5.3601E-05  5.3601E-05  5.3601E-05  0.0000E+00  0.0000E+00  0.0000E+00  0.0000E+00
     129-
 mid.  surface     9.5276E-05  9.5276E-05  9.5276E-05  0.0000E+00  0.0000E+00  0.0000E+00  0.0000E+00
     148-
 mid.  surface    -1.7321E-05 -1.7321E-05 -1.7321E-05  0.0000E+00  0.0000E+00  0.0000E+00  0.0000E+00
     149-
 mid.  surface    -3.8993E-05 -3.8993E-05 -3.8993E-05  0.0000E+00  0.0000E+00  0.0000E+00  0.0000E+00
     150-
 mid.  surface     3.0263E-05  3.0263E-05  3.0263E-05  0.0000E+00  0.0000E+00  0.0000E+00  0.0000E+00
     164-
 mid.  surface    -6.5754E-05 -6.5754E-05 -6.5754E-05  0.0000E+00  0.0000E+00  0.0000E+00  0.0000E+00
     165-
 mid.  surface    -4.6276E-05 -4.6276E-05 -4.6276E-05  0.0000E+00  0.0000E+00  0.0000E+00  0.0000E+00
     166-
 mid.  surface     2.0005E-05  2.0005E-05  2.0005E-05  0.0000E+00  0.0000E+00  0.0000E+00  0.0000E+00



 n o d a l  s t r a i n  c a l c u l a t i o n s   f o r   t i m e  s t e p        1   ( at time 0.00000E+00 )

 node (global)
          strain       eps-xx      eps-yy      eps-zz      eps-xy      eps-yz      eps-zx       
       1-
 mid.  surface     0.0000E+00  0.0000E+00  0.0000E+00  0.0000E+00  0.0000E+00  0.0000E+00
       2-
 mid.  surface     0.0000E+00  0.0000E+00  0.0000E+00  0.0000E+00  0.0000E+00  0.0000E+00
       8-
 mid.  surface     0.0000E+00  0.0000E+00  0.0000E+00  0.0000E+00  0.0000E+00  0.0000E+00
       9-
 mid.  surface     0.0000E+00  0.0000E+00  0.0000E+00  0.0000E+00  0.0000E+00  0.0000E+00
      10-
 mid.  surface     0.0000E+00  0.0000E+00  0.0000E+00  0.0000E+00  0.0000E+00  0.0000E+00
      11-
 mid.  surface     0.0000E+00  0.0000E+00  0.0000E+00  0.0000E+00  0.0000E+00  0.0000E+00
      12-
 mid.  surface     0.0000E+00  0.0000E+00  0.0000E+00  0.0000E+00  0.0000E+00  0.0000E+00
      17-
 mid.  surface     0.0000E+00  0.0000E+00  0.0000E+00  0.0000E+00  0.0000E+00  0.0000E+00
      18-
 mid.  surface     0.0000E+00  0.0000E+00  0.0000E+00  0.0000E+00  0.0000E+00  0.0000E+00
      19-
 mid.  surface     0.0000E+00  0.0000E+00  0.0000E+00  0.0000E+00  0.0000E+00  0.0000E+00
      20-
 mid.  surface     0.0000E+00  0.0000E+00  0.0000E+00  0.0000E+00  0.0000E+00  0.0000E+00
      21-
 mid.  surface     0.0000E+00  0.0000E+00  0.0000E+00  0.0000E+00  0.0000E+00  0.0000E+00
      22-
 mid.  surface     0.0000E+00  0.0000E+00  0.0000E+00  0.0000E+00  0.0000E+00  0.0000E+00
      23-
 mid.  surface     0.0000E+00  0.0000E+00  0.0000E+00  0.0000E+00  0.0000E+00  0.0000E+00
      24-
 mid.  surface     0.0000E+00  0.0000E+00  0.0000E+00  0.0000E+00  0.0000E+00  0.0000E+00
      25-
 mid.  surface     0.0000E+00  0.0000E+00  0.0000E+00  0.0000E+00  0.0000E+00  0.0000E+00
      26-
 mid.  surface     0.0000E+00  0.0000E+00  0.0000E+00  0.0000E+00  0.0000E+00  0.0000E+00
      27-
 mid.  surface     0.0000E+00  0.0000E+00  0.0000E+00  0.0000E+00  0.0000E+00  0.0000E+00
      28-
 mid.  surface     0.0000E+00  0.0000E+00  0.0000E+00  0.0000E+00  0.0000E+00  0.0000E+00
      29-
 mid.  surface     0.0000E+00  0.0000E+00  0.0000E+00  0.0000E+00  0.0000E+00  0.0000E+00
      30-
 mid.  surface     0.0000E+00  0.0000E+00  0.0000E+00  0.0000E+00  0.0000E+00  0.0000E+00
      31-
 mid.  surface     0.0000E+00  0.0000E+00  0.0000E+00  0.0000E+00  0.0000E+00  0.0000E+00
      52-
 mid.  surface     0.0000E+00  0.0000E+00  0.0000E+00  0.0000E+00  0.0000E+00  0.0000E+00
      53-
 mid.  surface     0.0000E+00  0.0000E+00  0.0000E+00  0.0000E+00  0.0000E+00  0.0000E+00
      54-
 mid.  surface     0.0000E+00  0.0000E+00  0.0000E+00  0.0000E+00  0.0000E+00  0.0000E+00
      55-
 mid.  surface     0.0000E+00  0.0000E+00  0.0000E+00  0.0000E+00  0.0000E+00  0.0000E+00
      56-
 mid.  surface     0.0000E+00  0.0000E+00  0.0000E+00  0.0000E+00  0.0000E+00  0.0000E+00
      57-
 mid.  surface     0.0000E+00  0.0000E+00  0.0000E+00  0.0000E+00  0.0000E+00  0.0000E+00
     124-
 mid.  surface     0.0000E+00  0.0000E+00  0.0000E+00  0.0000E+00  0.0000E+00  0.0000E+00
     125-
 mid.  surface     0.0000E+00  0.0000E+00  0.0000E+00  0.0000E+00  0.0000E+00  0.0000E+00
     126-
 mid.  surface     0.0000E+00  0.0000E+00  0.0000E+00  0.0000E+00  0.0000E+00  0.0000E+00
     127-
 mid.  surface     0.0000E+00  0.0000E+00  0.0000E+00  0.0000E+00  0.0000E+00  0.0000E+00
     128-
 mid.  surface     0.0000E+00  0.0000E+00  0.0000E+00  0.0000E+00  0.0000E+00  0.0000E+00
     129-
 mid.  surface     0.0000E+00  0.0000E+00  0.0000E+00  0.0000E+00  0.0000E+00  0.0000E+00
     148-
 mid.  surface     0.0000E+00  0.0000E+00  0.0000E+00  0.0000E+00  0.0000E+00  0.0000E+00
     149-
 mid.  surface     0.0000E+00  0.0000E+00  0.0000E+00  0.0000E+00  0.0000E+00  0.0000E+00
     150-
 mid.  surface     0.0000E+00  0.0000E+00  0.0000E+00  0.0000E+00  0.0000E+00  0.0000E+00
     164-
 mid.  surface     0.0000E+00  0.0000E+00  0.0000E+00  0.0000E+00  0.0000E+00  0.0000E+00
     165-
 mid.  surface     0.0000E+00  0.0000E+00  0.0000E+00  0.0000E+00  0.0000E+00  0.0000E+00
     166-
 mid.  surface     0.0000E+00  0.0000E+00  0.0000E+00  0.0000E+00  0.0000E+00  0.0000E+00



 n o d a l  s t r e s s  c a l c u l a t i o n s   f o r   t i m e  s t e p       10   ( at time 1.29245E+00 )

 node (global)
          stress       sig-xx      sig-yy      sig-zz      sig-xy      sig-yz      sig-zx       plastic
                                                                                                 strain 
       1-
 mid.  surface    -4.1550E+06 -2.1673E+07 -2.7545E+08  4.1299E+07 -1.2685E+07 -3.8283E+07 -1.6816E-04
       2-
 mid.  surface    -7.8132E+07 -4.7604E+07 -2.8429E+08  2.3113E+07 -4.3622E+06 -6.4072E+06  5.5069E-04
       8-
 mid.  surface    -1.8513E+07  4.2686E+07 -2.0638E+08 -8.9104E+06 -6.4698E+06  2.8043E+06 -5.3564E-05
       9-
 mid.  surface    -3.2357E+07 -1.1026E+07 -2.9948E+08 -2.0061E+07 -8.6438E+06  6.7045E+06  1.9640E-04
      10-
 mid.  surface    -3.6566E+07 -9.9485E+06 -2.9420E+08  5.4592E+06 -8.8666E+06  2.0605E+07  2.8227E-04
      11-
 mid.  surface    -7.1431E+06 -6.2591E+06 -2.7271E+08  1.7869E+07 -7.1657E+07 -5.9146E+06  1.0239E-04
      12-
 mid.  surface    -1.7579E+07 -1.6313E+07 -2.7103E+08  1.1471E+07 -7.0115E+07 -2.9749E+07 -8.3576E-05
      17-
 mid.  surface     1.3787E+07 -1.4391E+07 -2.1763E+08  1.8739E+07 -3.0465E+07 -2.5729E+07  1.3182E-04
      18-
 mid.  surface    -1.6411E+07  2.0932E+07 -2.1058E+08  2.2879E+07  2.1986E+06 -5.4752E+06  7.3233E-05
      19-
 mid.  surface    -4.2225E+07 -3.7683E+07 -2.5060E+08 -8.5650E+06 -2.1598E+07 -1.5943E+07  3.8893E-04
      20-
 mid.  surface     7.0444E+06 -1.3596E+07 -2.4408E+08  1.4803E+07 -1.1343E+07 -3.9354E+06 -9.6633E-06
      21-
 mid.  surface    -3.5038E+07 -3.2540E+07 -2.5679E+08 -6.4576E+06 -4.9650E+06 -1.5033E+06  2.4743E-04
      22-
 mid.  surface    -7.8135E+06 -8.3083E+06 -2.8145E+08  1.0752E+07 -3.0256E+07 -4.7933E+07 -2.1843E-04
      23-
 mid.  surface    -1.4219E+06 -1.4107E+05 -2.8200E+08  1.6221E+07 -3.2468E+07 -2.7550E+07 -6.7752E-05
      24-
 mid.  surface    -2.9702E+07 -3.8621E+07 -2.2661E+08  4.9409E+06 -1.7446E+07 -4.6375E+06  1.2862E-04
      25-
 mid.  surface    -3.4333E+07 -3.7030E+07 -2.1741E+08 -3.4838E+06 -1.0608E+07 -9.8502E+06  2.1557E-04
      26-
 mid.  surface    -1.5569E+07 -1.5357E+07 -2.3622E+08  5.8461E+06 -4.7724E+07 -7.2959E+07 -3.8343E-05
      27-
 mid.  surface    -1.4644E+07 -1.1764E+07 -2.3315E+08  9.6421E+06 -5.0475E+07 -4.0449E+07  1.6611E-05
      28-
 mid.  surface    -5.3630E+07 -5.8963E+07 -2.4733E+08 -1.1816E+06 -2.4750E+07 -1.7096E+07  0.0000E+00
      29-
 mid.  surface    -3.5770E+07 -3.9973E+07 -2.1634E+08 -2.8401E+06 -1.8896E+07 -3.1450E+07  0.0000E+00
      30-
 mid.  surface    -3.2381E+07 -3.0500E+07 -2.2013E+08  9.4653E+05 -6.2784E+07 -8.6194E+07  0.0000E+00
      31-
 mid.  surface    -3.7129E+07 -3.5321E+07 -2.2406E+08  4.2351E+06 -6.2654E+07 -4.3467E+07  0.0000E+00
      52-
 mid.  surface    -3.0784E+07 -8.5143E+06 -2.9601E+08  5.0260E+06 -2.1074E+07 -1.0061E+07  1.2107E-04
      53-
 mid.  surface    -1.6716E+07  1.4864E+07 -2.2524E+08  1.7766E+07 -1.8318E+07 -7.8681E+06 -1.3852E-05
      54-
 mid.  surface    -3.7134E+07 -2.7660E+07 -2.4804E+08  2.1967E+06 -3.4817E+07 -1.6368E+07  9.8820E-05
      55-
 mid.  surface    -3.4178E+07 -1.9449E+07 -2.1146E+08  6.8328E+06 -2.8097E+07 -9.6382E+06  1.0017E-04
      56-
 mid.  surface    -5.3709E+07 -5.4551E+07 -2.4206E+08 -8.2168E+05 -4.6362E+07 -1.7793E+07  0.0000E+00
      57-
 mid.  surface    -5.1184E+07 -4.8644E+07 -2.3354E+08 -7.3895E+04 -3.7790E+07 -1.5552E+07  0.0000E+00
     124-
 mid.  surface    -6.1491E+07 -4.2810E+07 -2.7288E+08  1.5797E+07  2.0311E+07 -1.1951E+07  3.8301E-04
     125-
 mid.  surface    -5.9676E+06 -2.6055E+07 -2.8749E+08  3.1765E+07  5.3023E+07 -6.3459E+07 -2.8299E-04
     126-
 mid.  surface    -3.6317E+07 -3.8874E+07 -2.0983E+08  1.1912E+06  2.4116E+07 -2.4924E+07  2.2244E-04
     127-
 mid.  surface    -3.3859E+07 -5.2481E+07 -2.5202E+08  1.1537E+07  8.0830E+07 -9.9085E+07 -8.3639E-05
     128-
 mid.  surface    -2.6826E+07 -3.7162E+07 -1.9070E+08 -7.6961E+06  1.4571E+07 -4.1641E+07  0.0000E+00
     129-
 mid.  surface    -6.4282E+07 -8.0536E+07 -2.4111E+08 -1.0354E+06  7.5045E+07 -1.1535E+08  0.0000E+00
     148-
 mid.  surface    -1.8037E+07  3.4282E+07 -2.2297E+08 -6.7271E+06 -1.7087E+07  3.3802E+06 -1.2214E-04
     149-
 mid.  surface    -3.4855E+07 -7.8906E+06 -2.1850E+08 -1.8172E+06 -2.2562E+07  8.8924E+06  3.5410E-05
     150-
 mid.  surface    -5.1956E+07 -4.1958E+07 -2.4068E+08  2.3191E+06 -3.0519E+07  8.0000E+06  0.0000E+00
     164-
 mid.  surface    -2.5965E+07 -1.0198E+07 -2.9667E+08 -1.5465E+07 -2.6633E+07 -2.0455E+07  6.7579E-05
     165-
 mid.  surface    -2.7622E+07 -2.9122E+07 -2.4431E+08 -6.0618E+06 -4.5270E+07 -3.4266E+07  7.1890E-05
     166-
 mid.  surface    -4.1054E+07 -5.7095E+07 -2.3215E+08  1.7974E+05 -5.7569E+07 -3.8126E+07  0.0000E+00



 n o d a l  s t r a i n  c a l c u l a t i o n s   f o r   t i m e  s t e p       10   ( at time 1.29245E+00 )

 node (global)
          strain       eps-xx      eps-yy      eps-zz      eps-xy      eps-yz      eps-zx       
       1-
 mid.  surface     1.1384E-03  7.8260E-04 -3.3505E-03  7.6534E-04 -2.0974E-04 -7.0613E-04
       2-
 mid.  surface     1.2317E-03  1.7283E-03 -4.9076E-03  5.1086E-04 -6.0684E-05 -3.4924E-04
       8-
 mid.  surface     4.2874E-04  1.6612E-03 -2.9559E-03 -1.9171E-04 -7.0803E-05  5.3800E-05
       9-
 mid.  surface     1.2781E-03  1.6846E-03 -4.5944E-03 -3.6640E-04 -2.2078E-04  1.0913E-04
      10-
 mid.  surface     1.2852E-03  1.8072E-03 -4.7139E-03  1.3452E-04 -1.9528E-04  3.2920E-04
      11-
 mid.  surface     1.4130E-03  1.3394E-03 -4.1152E-03  3.3361E-04 -1.2987E-03 -1.9191E-04
      12-
 mid.  surface     1.0150E-03  9.9745E-04 -3.4616E-03  1.9007E-04 -1.2313E-03 -5.9454E-04
      17-
 mid.  surface     1.4763E-03  9.8703E-04 -3.5017E-03  3.9801E-04 -4.2324E-04 -5.8685E-04
      18-
 mid.  surface     7.3146E-04  1.5226E-03 -3.2332E-03  4.4782E-04  6.1771E-05 -1.6114E-04
      19-
 mid.  surface     1.2627E-03  1.3895E-03 -4.2233E-03 -1.0227E-04 -2.4553E-04 -4.7049E-04
      20-
 mid.  surface     1.3188E-03  9.4505E-04 -3.4556E-03  2.9190E-04 -2.1585E-04 -4.4836E-05
      21-
 mid.  surface     1.1826E-03  1.2499E-03 -3.9744E-03 -9.0426E-05 -1.2086E-04 -1.0631E-04
      22-
 mid.  surface     9.9625E-04  9.8009E-04 -3.3904E-03  1.6715E-04 -5.1347E-04 -7.9952E-04
      23-
 mid.  surface     1.2755E-03  1.2332E-03 -3.8584E-03  2.7832E-04 -5.3083E-04 -4.7257E-04
      24-
 mid.  surface     9.8912E-04  8.3412E-04 -3.2242E-03  1.1719E-04 -4.2514E-04 -1.6638E-04
      25-
 mid.  surface     9.8346E-04  9.2455E-04 -3.2805E-03 -4.0424E-05 -2.7010E-04 -3.1460E-04
      26-
 mid.  surface     9.2995E-04  9.4299E-04 -3.1425E-03  1.1182E-04 -9.0862E-04 -1.3578E-03
      27-
 mid.  surface     9.8453E-04  1.0325E-03 -3.2512E-03  1.8195E-04 -9.5555E-04 -7.8307E-04
      28-
 mid.  surface     6.9684E-04  5.9506E-04 -2.9998E-03 -2.2546E-05 -4.7223E-04 -3.2615E-04
      29-
 mid.  surface     7.1295E-04  6.3321E-04 -2.7331E-03 -5.4279E-05 -3.6066E-04 -6.0041E-04
      30-
 mid.  surface     7.3437E-04  7.7006E-04 -2.8486E-03  1.8208E-05 -1.1980E-03 -1.6451E-03
      31-
 mid.  surface     7.0831E-04  7.4281E-04 -2.8591E-03  8.0864E-05 -1.1957E-03 -8.2955E-04
      52-
 mid.  surface     1.1618E-03  1.5741E-03 -4.3309E-03  1.0704E-04 -4.4788E-04 -2.1226E-04
      53-
 mid.  surface     7.2950E-04  1.3658E-03 -3.1741E-03  3.4616E-04 -3.9097E-04 -1.3201E-04
      54-
 mid.  surface     8.9596E-04  1.0847E-03 -3.4675E-03  5.1069E-05 -7.5476E-04 -3.5204E-04
      55-
 mid.  surface     7.1980E-04  1.0260E-03 -3.0047E-03  1.4531E-04 -6.4421E-04 -2.1942E-04
      56-
 mid.  surface     6.4922E-04  6.3316E-04 -2.9455E-03 -1.5586E-05 -8.8497E-04 -3.3929E-04
      57-
 mid.  surface     6.1655E-04  6.6498E-04 -2.8635E-03 -1.3976E-06 -7.2125E-04 -2.9683E-04
     124-
 mid.  surface     1.1271E-03  1.4531E-03 -4.3725E-03  3.4416E-04  1.7560E-04 -3.2980E-04
     125-
 mid.  surface     1.0403E-03  6.9705E-04 -3.2540E-03  5.8288E-04  9.2321E-04 -1.0610E-03
     126-
 mid.  surface     9.3792E-04  8.7997E-04 -3.1730E-03  4.3641E-05  2.7571E-04 -5.7061E-04
     127-
 mid.  surface     8.6065E-04  5.3663E-04 -3.0039E-03  2.2136E-04  1.4267E-03 -1.8123E-03
     128-
 mid.  surface     7.0487E-04  5.0814E-04 -2.4233E-03 -1.4698E-04  2.7831E-04 -7.9432E-04
     129-
 mid.  surface     6.1824E-04  3.0721E-04 -2.7567E-03 -1.9601E-05  1.4327E-03 -2.2003E-03
     148-
 mid.  surface     4.8801E-04  1.5075E-03 -2.9776E-03 -1.4058E-04 -2.6292E-04  1.1540E-04
     149-
 mid.  surface     6.1618E-04  1.1534E-03 -3.0102E-03 -3.2188E-05 -4.6059E-04  1.7858E-04
     150-
 mid.  surface     6.0768E-04  7.9834E-04 -2.9940E-03  4.4170E-05 -5.8226E-04  1.5295E-04
     164-
 mid.  surface     1.1885E-03  1.4663E-03 -4.2380E-03 -2.8520E-04 -5.2819E-04 -3.8209E-04
     165-
 mid.  surface     9.8942E-04  9.6858E-04 -3.3889E-03 -1.1003E-04 -9.2256E-04 -6.5726E-04
     166-
 mid.  surface     7.9498E-04  4.8903E-04 -2.8523E-03  3.5521E-06 -1.0985E-03 -7.2695E-04



 n o d a l  s t r e s s  c a l c u l a t i o n s   f o r   t i m e  s t e p       18   ( at time 2.54839E+00 )

 node (global)
          stress       sig-xx      sig-yy      sig-zz      sig-xy      sig-yz      sig-zx       plastic
                                                                                                 strain 
       1-
 mid.  surface     6.9669E+07  1.0627E+08 -2.2770E+08  4.3930E+07 -1.7618E+07  6.8610E+06  2.0021E-03
       2-
 mid.  surface    -6.0585E+08 -4.7416E+08 -7.9529E+08  3.8249E+07 -1.7386E+07  3.3303E+07  1.9433E-02
       8-
 mid.  surface     6.7691E+07  9.2468E+07 -1.4834E+08 -2.3158E+07 -9.1755E+06  2.8095E+06 -1.5426E-02
       9-
 mid.  surface     1.1462E+07 -9.5930E+06 -2.7087E+08 -2.9018E+07 -8.2995E+06  9.2680E+06  1.5059E-02
      10-
 mid.  surface    -2.5110E+07 -3.1078E+07 -2.7793E+08 -3.6974E+06 -2.0650E+07  2.1770E+07  2.9029E-02
      11-
 mid.  surface     2.2164E+08  2.0884E+08 -8.9764E+07  5.6259E+06 -1.2798E+08 -2.7019E+07  1.2136E-02
      12-
 mid.  surface     2.4110E+08  2.5386E+08  1.0243E+07 -7.7152E+06 -1.3221E+08 -5.0102E+07  1.4832E-02
      17-
 mid.  surface     1.4232E+08  1.2090E+08 -6.6423E+07  1.2913E+07 -7.3488E+07 -5.6551E+07 -1.3689E-02
      18-
 mid.  surface     2.6495E+07  4.4389E+07 -1.4465E+08  9.7629E+06 -7.5818E+06 -1.6576E+07 -2.8411E-03
      19-
 mid.  surface    -2.4656E+08 -1.9635E+08 -3.7385E+08 -1.3251E+07 -6.7033E+07 -4.0701E+07  1.2681E-02
      20-
 mid.  surface     8.5855E+07  6.7798E+07 -1.6656E+08  1.0607E+07 -1.0181E+07  1.6371E+05 -2.3215E-03
      21-
 mid.  surface    -1.7334E+08 -1.4230E+08 -3.2510E+08 -7.5591E+06 -1.9804E+07  1.4739E+07  1.2196E-02
      22-
 mid.  surface     1.8900E+08  1.9634E+08 -5.5446E+07  2.4847E+06 -3.7798E+07 -2.7419E+07  2.8119E-03
      23-
 mid.  surface     1.1797E+08  1.1059E+08 -1.9116E+08  7.1090E+06 -1.2829E+07 -2.7274E+06  1.4884E-02
      24-
 mid.  surface    -3.6423E+07 -3.2805E+07 -3.0151E+08  5.5337E+06 -3.9160E+07 -2.0026E+07  3.5956E-03
      25-
 mid.  surface    -1.7017E+07 -2.9119E+07 -1.8624E+08  9.7221E+06 -4.2270E+07  4.1745E+06  1.3866E-02
      26-
 mid.  surface     8.1634E+07  7.2347E+07 -1.7677E+08  2.2948E+07 -6.0926E+07 -9.0354E+07  7.7763E-05
      27-
 mid.  surface    -3.5630E+07 -3.7083E+07 -2.9091E+08  1.6039E+07 -4.5276E+07 -3.9635E+07  4.3815E-03
      28-
 mid.  surface    -2.5893E+08 -2.3106E+08 -4.4574E+08 -5.1727E+06 -9.1436E+07 -2.7735E+07  1.4372E-03
      29-
 mid.  surface    -7.8440E+07 -1.2137E+08 -2.3344E+08  2.0092E+06 -8.7473E+07 -2.5557E+07  2.6813E-03
      30-
 mid.  surface    -1.1852E+08 -1.4287E+08 -3.6176E+08  1.3463E+07 -1.4470E+08 -1.3318E+08  1.0762E-03
      31-
 mid.  surface    -2.2698E+08 -2.2958E+08 -3.5063E+08  1.4060E+07 -1.1740E+08 -3.5216E+06  2.4340E-03
      52-
 mid.  surface    -4.9528E+07 -4.6340E+07 -3.2987E+08 -1.8331E+05  5.6730E+06 -1.3672E+06  2.7099E-02
      53-
 mid.  surface     2.6766E+07  4.3048E+07 -1.9480E+08  8.9290E+06 -1.5777E+07 -8.7353E+06  9.3852E-04
      54-
 mid.  surface    -8.8180E+07 -7.8399E+07 -3.2595E+08  9.1585E+06 -1.6433E+07 -2.7485E+07  6.3836E-03
      55-
 mid.  surface    -1.1620E+07  5.9050E+06 -2.7002E+08 -6.5808E+05 -4.7358E+07 -3.0737E+07  2.5623E-03
      56-
 mid.  surface    -2.5425E+08 -2.5788E+08 -3.4893E+08  1.6903E+07 -3.6287E+07  8.6901E+06  2.6759E-03
      57-
 mid.  surface    -2.1238E+08 -1.9839E+08 -3.5388E+08 -1.5561E+07 -7.2724E+07 -1.9042E+07  2.6498E-03
     124-
 mid.  surface    -4.5428E+08 -3.7114E+08 -6.1281E+08  2.6008E+07  3.2486E+07 -1.3517E+07  2.2543E-02
     125-
 mid.  surface     1.2798E+07  2.3152E+07 -2.6293E+08  3.7211E+07  1.0554E+08 -7.6288E+07 -1.0964E-02
     126-
 mid.  surface    -8.7539E+07 -1.3250E+08 -1.8312E+08 -3.7757E+06  1.0305E+08 -8.4880E+06  2.0106E-02
     127-
 mid.  surface    -1.0553E+08 -1.5095E+08 -3.7811E+08  1.2108E+07  2.0837E+08 -1.4622E+08 -6.4175E-03
     128-
 mid.  surface     2.7541E+07 -9.8221E+07  1.4657E+06 -4.8493E+07  1.1154E+08 -7.6356E+07  4.5399E-03
     129-
 mid.  surface    -2.5889E+08 -3.4766E+08 -5.5245E+08 -3.3772E+07  1.9983E+08 -2.6391E+08 -2.4350E-05
     148-
 mid.  surface     4.5082E+07  6.8248E+07 -1.9799E+08 -1.3764E+07 -2.1236E+07  7.6175E+06 -7.9771E-03
     149-
 mid.  surface    -3.2532E+07 -1.4307E+07 -3.3088E+08  3.7897E+06 -4.9320E+07 -8.4539E+06  1.9086E-03
     150-
 mid.  surface    -2.1125E+08 -2.3425E+08 -4.0649E+08  2.3556E+07 -1.2354E+08 -1.9029E+07  1.9008E-03
     164-
 mid.  surface    -7.3187E+06 -1.8520E+07 -2.9770E+08 -1.7993E+07 -1.2295E+07 -2.3904E+07  1.5044E-02
     165-
 mid.  surface    -5.5392E+07 -6.7716E+07 -3.1477E+08  9.5787E+06 -6.1228E+07 -7.3044E+07  8.0790E-03
     166-
 mid.  surface    -1.8176E+08 -2.3243E+08 -2.5806E+08  3.9357E+07 -9.5230E+07 -7.0558E+07  2.7258E-03



 n o d a l  s t r a i n  c a l c u l a t i o n s   f o r   t i m e  s t e p       18   ( at time 2.54839E+00 )

 node (global)
          strain       eps-xx      eps-yy      eps-zz      eps-xy      eps-yz      eps-zx       
       1-
 mid.  surface     3.2929E-03  6.9676E-03 -1.0529E-02  4.0554E-03 -1.1656E-03 -1.7251E-04
       2-
 mid.  surface     3.5858E-03  1.2132E-02 -2.4702E-02  2.0993E-03 -1.9904E-04  1.0162E-03
       8-
 mid.  surface     5.1237E-03  7.0731E-03 -1.2195E-02 -1.8392E-03 -1.0032E-03  2.7557E-04
       9-
 mid.  surface     8.8272E-03  7.1551E-03 -1.7379E-02 -2.3908E-03 -7.8456E-04  6.3016E-04
      10-
 mid.  surface     8.4651E-03  7.8744E-03 -1.8074E-02 -3.7360E-04 -1.6599E-03  1.7599E-03
      11-
 mid.  surface     8.3457E-03  7.7537E-03 -1.4587E-02  6.3627E-04 -9.2996E-03 -1.5977E-03
      12-
 mid.  surface     5.2640E-03  7.2406E-03 -1.0201E-02 -6.6706E-06 -9.6672E-03 -4.6274E-03
      17-
 mid.  surface     8.3866E-03  6.4752E-03 -1.4032E-02  9.9028E-04 -5.9733E-03 -4.8405E-03
      18-
 mid.  surface     5.8062E-03  7.1431E-03 -1.3390E-02  7.3683E-04 -1.3928E-03 -1.3085E-03
      19-
 mid.  surface     6.2371E-03  9.1918E-03 -1.9459E-02 -1.4166E-03 -4.4029E-03 -5.0760E-03
      20-
 mid.  surface     7.2389E-03  5.7184E-03 -1.3079E-02  8.0960E-04 -4.5353E-04  1.4886E-04
      21-
 mid.  surface     6.2379E-03  7.5827E-03 -1.6989E-02 -8.5861E-04 -7.2263E-04 -7.9128E-05
      22-
 mid.  surface     5.6423E-03  6.5324E-03 -1.0679E-02  4.1814E-04 -2.5264E-03 -2.1782E-03
      23-
 mid.  surface     7.1675E-03  6.8440E-03 -1.3896E-02  6.2261E-04 -1.5056E-04 -3.6291E-04
      24-
 mid.  surface     4.3079E-03  3.9175E-03 -9.9748E-03  4.1517E-04 -1.6441E-03 -6.7906E-04
      25-
 mid.  surface     5.0534E-03  3.7648E-03 -9.9708E-03  2.8600E-04 -1.9590E-03 -8.6981E-04
      26-
 mid.  surface     5.1902E-03  4.7681E-03 -1.0068E-02  1.1577E-03 -4.6086E-03 -4.6929E-03
      27-
 mid.  surface     4.2321E-03  4.5234E-03 -1.0483E-02  8.2024E-04 -2.0623E-03 -2.0607E-03
      28-
 mid.  surface     1.0553E-03  1.7526E-03 -7.2116E-03 -2.3190E-04 -2.8248E-03 -1.5387E-03
      29-
 mid.  surface     2.5200E-03  5.5171E-04 -5.1341E-03  5.2670E-04 -2.3758E-03 -1.4367E-03
      30-
 mid.  surface     3.0901E-03  2.6518E-03 -8.7035E-03  9.6183E-04 -7.8282E-03 -4.9350E-03
      31-
 mid.  surface     1.2060E-03  1.6685E-03 -6.7092E-03  6.1758E-04 -6.1977E-03 -1.3166E-03
      52-
 mid.  surface     7.0835E-03  7.1834E-03 -1.6377E-02 -1.1616E-04 -9.7885E-05 -7.3674E-04
      53-
 mid.  surface     5.3229E-03  6.5839E-03 -1.2551E-02  6.5196E-04 -1.7569E-03 -8.6038E-04
      54-
 mid.  surface     3.9393E-03  4.5912E-03 -1.0883E-02  4.0397E-04 -1.4350E-03 -1.6154E-03
      55-
 mid.  surface     3.8690E-03  4.4946E-03 -9.6846E-03  2.9902E-04 -3.4275E-03 -1.6743E-03
      56-
 mid.  surface     8.6550E-04  1.1917E-03 -6.1349E-03  7.2939E-04 -3.7261E-03 -2.0340E-04
      57-
 mid.  surface     1.7429E-03  1.8080E-03 -7.1924E-03 -3.2885E-04 -4.8507E-03 -1.6564E-03
     124-
 mid.  surface     4.1185E-03  9.1162E-03 -2.0178E-02  1.3510E-03  2.8235E-03 -2.8228E-03
     125-
 mid.  surface     4.0552E-03  5.2054E-03 -1.0359E-02  3.0179E-03  7.8041E-03 -5.3970E-03
     126-
 mid.  surface     4.5700E-03  2.5557E-03 -9.1329E-03 -3.9939E-04  3.8246E-03 -3.9068E-03
     127-
 mid.  surface     4.9340E-03  1.8557E-03 -9.7790E-03  3.5282E-04  1.1453E-02 -8.7406E-03
     128-
 mid.  surface     2.8004E-03 -1.8299E-03 -1.3439E-03 -1.6014E-03  3.7028E-03 -5.5639E-03
     129-
 mid.  surface     3.3583E-03 -7.4714E-04 -8.0555E-03 -1.6851E-03  9.7854E-03 -1.1220E-02
     148-
 mid.  surface     4.7505E-03  6.5792E-03 -1.1758E-02 -1.0688E-03 -1.3862E-03  5.6326E-04
     149-
 mid.  surface     3.7038E-03  4.7048E-03 -1.0192E-02  2.3674E-04 -2.3888E-03  1.4653E-04
     150-
 mid.  surface     2.1722E-03  1.1789E-03 -7.3561E-03  1.1891E-03 -6.1207E-03 -4.3283E-04
     164-
 mid.  surface     7.4587E-03  6.4655E-03 -1.5539E-02 -1.4632E-03 -1.0305E-03 -2.0460E-03
     165-
 mid.  surface     4.4594E-03  4.0579E-03 -1.0620E-02  1.9471E-04 -2.5845E-03 -3.4210E-03
     166-
 mid.  surface     1.7140E-03  1.9402E-05 -4.9168E-03  1.7972E-03 -6.7450E-03 -2.9689E-03



 n o d a l  s t r e s s  c a l c u l a t i o n s   f o r   t i m e  s t e p       26   ( at time 3.80433E+00 )

 node (global)
          stress       sig-xx      sig-yy      sig-zz      sig-xy      sig-yz      sig-zx       plastic
                                                                                                 strain 
       1-
 mid.  surface     5.0563E+07  8.4548E+07 -2.1764E+08  3.7350E+07 -1.9419E+07  2.4208E+07  9.5199E-03
       2-
 mid.  surface    -8.3098E+08 -7.4671E+08 -1.0542E+09  3.0445E+07 -2.1134E+07  5.1827E+07  3.1126E-02
       8-
 mid.  surface     1.1754E+08  1.5437E+08 -1.0842E+08 -1.5108E+07  5.0415E+04  1.5719E+05 -7.5706E-03
       9-
 mid.  surface    -4.9668E+07 -5.4836E+07 -3.2437E+08 -1.9220E+07  1.3710E+06  4.0252E+06  2.6055E-02
      10-
 mid.  surface    -6.8500E+07 -8.2391E+07 -3.1754E+08  4.0349E+06 -3.6574E+07  7.4365E+06  4.0701E-02
      11-
 mid.  surface     2.8549E+08  2.7138E+08 -8.6792E+06  1.5892E+07 -1.1821E+08 -3.2579E+07  2.1394E-02
      12-
 mid.  surface     3.6276E+08  3.7221E+08  1.3512E+08  5.5802E+05 -1.2849E+08 -5.6678E+07  2.3811E-02
      17-
 mid.  surface     2.4993E+08  2.4201E+08  1.2923E+07  2.1919E+07 -9.0979E+07 -5.6089E+07 -4.9194E-03
      18-
 mid.  surface     9.1024E+07  1.1303E+08 -1.0566E+08  1.0598E+07 -2.5736E+07 -1.7442E+07  6.2256E-03
      19-
 mid.  surface    -2.6779E+08 -2.4060E+08 -4.5654E+08 -3.8755E+05 -8.9433E+07 -5.1089E+07  2.3940E-02
      20-
 mid.  surface     1.5166E+08  1.4484E+08 -1.2211E+08  1.5772E+07  5.8811E+06  5.4171E+06  5.5414E-03
      21-
 mid.  surface    -1.7805E+08 -1.6803E+08 -3.8908E+08  1.6824E+06 -3.0985E+06  1.2339E+07  2.2714E-02
      22-
 mid.  surface     2.9302E+08  2.9327E+08  3.5795E+07  8.7526E+06 -1.7496E+07 -2.1960E+07  1.0772E-02
      23-
 mid.  surface     1.6068E+08  1.5318E+08 -1.4008E+08  1.2079E+07  4.8155E+06  7.3295E+05  2.3471E-02
      24-
 mid.  surface    -3.7568E+07 -3.9158E+07 -3.0714E+08  3.0015E+06 -3.4115E+07 -1.8810E+07  1.0362E-02
      25-
 mid.  surface    -3.4956E+06 -2.3685E+07 -2.1260E+08  2.8088E+06 -3.0945E+07 -5.4836E+06  2.2877E-02
      26-
 mid.  surface     1.4440E+08  1.3749E+08 -1.3599E+08  1.9508E+07 -5.0093E+07 -6.6850E+07  6.5221E-03
      27-
 mid.  surface    -1.7873E+07 -1.3193E+07 -2.7510E+08  9.9263E+06 -3.6092E+07 -2.9161E+07  1.1521E-02
      28-
 mid.  surface    -3.2357E+08 -3.1655E+08 -5.3123E+08 -3.4752E+06 -7.8902E+07 -4.3436E+07  7.4757E-03
      29-
 mid.  surface    -1.1867E+08 -1.6069E+08 -3.0218E+08 -7.5995E+06 -7.6196E+07 -3.9440E+07  9.9030E-03
      30-
 mid.  surface    -1.2167E+08 -1.2971E+08 -3.8949E+08  1.3274E+07 -1.2128E+08 -1.0379E+08  6.0705E-03
      31-
 mid.  surface    -2.4033E+08 -2.2610E+08 -4.0232E+08  1.0976E+07 -1.0032E+08 -2.8153E+07  8.7384E-03
      52-
 mid.  surface    -8.1550E+07 -8.5070E+07 -3.6246E+08  3.5936E+06  5.9936E+06 -2.5916E+06  3.7187E-02
      53-
 mid.  surface     5.7863E+07  7.6298E+07 -1.8783E+08  8.2393E+06  2.7832E+06 -1.9291E+06  8.9469E-03
      54-
 mid.  surface    -8.0901E+07 -7.7359E+07 -3.3140E+08  4.6707E+06 -4.1272E+07 -2.3378E+07  1.3426E-02
      55-
 mid.  surface    -3.4830E+07 -3.0274E+07 -3.1199E+08 -1.1149E+06 -4.4549E+07 -2.0620E+07  8.8159E-03
      56-
 mid.  surface    -2.6027E+08 -2.6086E+08 -3.9408E+08  9.9425E+06 -8.2116E+07 -1.5224E+07  8.8538E-03
      57-
 mid.  surface    -3.0634E+08 -3.0970E+08 -5.0794E+08 -7.1889E+06 -8.6235E+07 -2.8883E+07  8.3486E-03
     124-
 mid.  surface    -6.0396E+08 -5.5774E+08 -7.9846E+08  1.3766E+07  5.6188E+07 -2.4289E+07  3.4026E-02
     125-
 mid.  surface    -9.9917E+06 -2.8416E+06 -2.6897E+08  2.5801E+07  1.1131E+08 -6.4286E+07 -3.9459E-03
     126-
 mid.  surface    -1.0765E+08 -1.3174E+08 -2.4051E+08 -1.0305E+07  8.1708E+07 -2.9418E+07  2.9786E-02
     127-
 mid.  surface    -1.3057E+08 -1.5971E+08 -4.0601E+08  7.7693E+06  1.6317E+08 -1.2037E+08 -1.5216E-03
     128-
 mid.  surface     2.6238E+07 -4.2160E+07 -6.7830E+07 -3.1748E+07  6.0582E+07 -7.9634E+07  1.1594E-02
     129-
 mid.  surface    -3.1295E+08 -3.6541E+08 -6.2199E+08 -1.3929E+07  1.3895E+08 -2.0603E+08  2.0449E-03
     148-
 mid.  surface     8.2126E+07  1.1212E+08 -1.7324E+08 -7.7807E+06 -1.0159E+07  8.1054E+06 -7.4874E-04
     149-
 mid.  surface    -4.0611E+07 -2.5731E+07 -3.2513E+08  2.1277E+06 -4.6117E+07  1.1646E+06  8.3526E-03
     150-
 mid.  surface    -3.3817E+08 -3.4781E+08 -5.4957E+08  9.5060E+06 -9.4392E+07 -1.9144E+06  8.4043E-03
     164-
 mid.  surface    -4.1245E+07 -4.2756E+07 -3.2973E+08 -1.2077E+07 -5.5748E+06 -1.4586E+07  2.4710E-02
     165-
 mid.  surface    -3.2084E+07 -3.1410E+07 -2.8720E+08  3.8599E+05 -5.2008E+07 -4.4632E+07  1.5477E-02
     166-
 mid.  surface    -1.9201E+08 -2.0937E+08 -3.1717E+08  1.1194E+07 -8.8762E+07 -4.7627E+07  9.5148E-03



 n o d a l  s t r a i n  c a l c u l a t i o n s   f o r   t i m e  s t e p       26   ( at time 3.80433E+00 )

 node (global)
          strain       eps-xx      eps-yy      eps-zz      eps-xy      eps-yz      eps-zx       
       1-
 mid.  surface     6.5162E-03  1.1348E-02 -1.8247E-02  5.4504E-03 -1.6567E-03  7.5937E-04
       2-
 mid.  surface     6.6385E-03  1.7521E-02 -3.6709E-02  3.0971E-03 -1.6166E-04  2.5769E-03
       8-
 mid.  surface     8.2943E-03  1.2230E-02 -1.9841E-02 -2.3459E-03 -6.8691E-04  2.3750E-04
       9-
 mid.  surface     1.3765E-02  1.2182E-02 -2.8180E-02 -3.0817E-03 -5.6594E-04  6.6779E-04
      10-
 mid.  surface     1.3465E-02  1.2108E-02 -2.8018E-02  3.8051E-05 -3.4808E-03  1.7587E-03
      11-
 mid.  surface     1.3651E-02  1.2285E-02 -2.3523E-02  1.6292E-03 -1.3935E-02 -3.1159E-03
      12-
 mid.  surface     9.2959E-03  1.1524E-02 -1.6836E-02  3.5137E-04 -1.4534E-02 -7.6283E-03
      17-
 mid.  surface     1.3134E-02  1.1232E-02 -2.2140E-02  2.1674E-03 -9.5802E-03 -7.2478E-03
      18-
 mid.  surface     9.2986E-03  1.1830E-02 -2.0790E-02  1.3248E-03 -2.5465E-03 -2.0314E-03
      19-
 mid.  surface     1.0229E-02  1.3850E-02 -2.8862E-02 -1.0954E-03 -7.2699E-03 -7.8601E-03
      20-
 mid.  surface     1.1693E-02  1.0112E-02 -2.1092E-02  1.5902E-03  1.2342E-05  4.9473E-04
      21-
 mid.  surface     1.0592E-02  1.1820E-02 -2.6105E-02 -6.0588E-04 -7.1045E-04  2.7662E-04
      22-
 mid.  surface     9.9793E-03  1.0780E-02 -1.7942E-02  9.6645E-04 -3.3786E-03 -2.8635E-03
      23-
 mid.  surface     1.1947E-02  1.1226E-02 -2.2476E-02  1.2574E-03  3.5349E-04 -3.2765E-04
      24-
 mid.  surface     7.7803E-03  7.2331E-03 -1.6855E-02  4.8326E-04 -2.8015E-03 -1.2002E-03
      25-
 mid.  surface     9.1829E-03  6.7343E-03 -1.7160E-02  2.0287E-04 -2.9566E-03 -1.6317E-03
      26-
 mid.  surface     9.1591E-03  8.5532E-03 -1.7069E-02  1.7908E-03 -6.5961E-03 -6.4913E-03
      27-
 mid.  surface     7.6090E-03  8.2324E-03 -1.7331E-02  1.0730E-03 -3.2176E-03 -2.8997E-03
      28-
 mid.  surface     3.1588E-03  3.7863E-03 -1.2478E-02 -3.1904E-04 -5.4029E-03 -3.2038E-03
      29-
 mid.  surface     5.4467E-03  1.8577E-03 -1.0071E-02  1.1551E-04 -4.4724E-03 -3.3773E-03
      30-
 mid.  surface     5.7536E-03  5.3476E-03 -1.4143E-02  1.4492E-03 -1.1346E-02 -7.4101E-03
      31-
 mid.  surface     2.9725E-03  4.3141E-03 -1.1425E-02  9.6959E-04 -9.2993E-03 -2.7124E-03
      52-
 mid.  surface     1.1686E-02  1.1470E-02 -2.5811E-02  1.1792E-04 -1.8097E-04 -1.0830E-03
      53-
 mid.  surface     8.8654E-03  1.1016E-02 -2.0221E-02  1.0192E-03 -1.4846E-03 -8.6113E-04
      54-
 mid.  surface     7.2658E-03  7.9204E-03 -1.7557E-02  4.7886E-04 -3.2811E-03 -2.3941E-03
      55-
 mid.  surface     7.0737E-03  7.6634E-03 -1.6562E-02  2.6832E-04 -4.9812E-03 -2.1764E-03
      56-
 mid.  surface     2.5914E-03  2.9956E-03 -9.9403E-03  9.7016E-04 -7.1316E-03 -1.1229E-03
      57-
 mid.  surface     3.7897E-03  3.4667E-03 -1.2616E-02 -3.7723E-04 -7.9373E-03 -2.6992E-03
     124-
 mid.  surface     7.3246E-03  1.3398E-02 -3.0187E-02  1.6705E-03  5.0981E-03 -4.4392E-03
     125-
 mid.  surface     7.3854E-03  8.8223E-03 -1.7596E-02  3.8851E-03  1.2093E-02 -7.9751E-03
     126-
 mid.  surface     7.5364E-03  4.9388E-03 -1.4903E-02 -8.3051E-04  6.1333E-03 -6.2679E-03
     127-
 mid.  surface     7.8814E-03  4.1766E-03 -1.5375E-02  6.0892E-04  1.6578E-02 -1.2541E-02
     128-
 mid.  surface     4.8792E-03 -1.0660E-03 -4.2329E-03 -2.2189E-03  4.9948E-03 -8.6342E-03
     129-
 mid.  surface     5.2989E-03  3.9117E-04 -1.1761E-02 -1.7253E-03  1.3530E-02 -1.5840E-02
     148-
 mid.  surface     8.0315E-03  1.1334E-02 -1.9326E-02 -1.2981E-03 -1.6703E-03  9.8369E-04
     149-
 mid.  surface     6.7606E-03  8.2896E-03 -1.6927E-02  2.6605E-04 -4.2373E-03  3.8601E-04
     150-
 mid.  surface     4.1609E-03  3.1114E-03 -1.3120E-02  1.2847E-03 -9.2347E-03 -2.9364E-04
     164-
 mid.  surface     1.2079E-02  1.1167E-02 -2.5350E-02 -1.8987E-03 -1.3686E-03 -2.5919E-03
     165-
 mid.  surface     7.8815E-03  7.7084E-03 -1.7318E-02 -9.0758E-06 -4.3678E-03 -4.6110E-03
     166-
 mid.  surface     3.6253E-03  2.0704E-03 -9.1247E-03  1.6683E-03 -9.6899E-03 -4.1956E-03



 n o d a l  s t r e s s  c a l c u l a t i o n s   f o r   t i m e  s t e p       34   ( at time 5.06028E+00 )

 node (global)
          stress       sig-xx      sig-yy      sig-zz      sig-xy      sig-yz      sig-zx       plastic
                                                                                                 strain 
       1-
 mid.  surface     3.7789E+07  8.1688E+07 -2.1851E+08  2.3838E+07 -1.6685E+07  4.7738E+07  1.8244E-02
       2-
 mid.  surface    -1.1023E+09 -1.0242E+09 -1.3367E+09  2.5907E+07 -2.2065E+07  6.1099E+07  4.3242E-02
       8-
 mid.  surface     1.4146E+08  1.6627E+08 -8.3895E+07 -1.3212E+07 -1.8910E+07 -2.6757E+05  2.1931E-03
       9-
 mid.  surface    -8.7775E+07 -9.6167E+07 -3.5217E+08 -1.5426E+07 -1.7759E+07  1.9447E+06  3.7664E-02
      10-
 mid.  surface    -9.0455E+07 -1.1459E+08 -3.4383E+08  3.2056E+06 -5.7129E+07 -8.6937E+05  5.2382E-02
      11-
 mid.  surface     3.7061E+08  3.5195E+08  7.6343E+07  1.1937E+07 -1.1651E+08 -3.4724E+07  3.0978E-02
      12-
 mid.  surface     5.0963E+08  5.2237E+08  2.8103E+08 -2.7597E+06 -1.2007E+08 -5.2912E+07  3.3577E-02
      17-
 mid.  surface     3.1713E+08  3.1940E+08  8.2287E+07  1.8754E+07 -1.0691E+08 -5.6122E+07  5.3169E-03
      18-
 mid.  surface     1.2457E+08  1.3809E+08 -8.0987E+07  4.9685E+06 -5.1078E+07 -1.8372E+07  1.6646E-02
      19-
 mid.  surface    -3.3949E+08 -3.0828E+08 -5.3888E+08  5.4530E+06 -9.8358E+07 -5.5303E+07  3.6166E-02
      20-
 mid.  surface     2.0116E+08  1.9979E+08 -7.5876E+07  1.4118E+07  7.1629E+06  4.8974E+06  1.4108E-02
      21-
 mid.  surface    -2.1862E+08 -2.1027E+08 -4.4503E+08  4.5391E+06  1.9225E+05  4.9686E+06  3.4129E-02
      22-
 mid.  surface     4.1286E+08  4.1185E+08  1.5026E+08  6.9669E+06 -8.0976E+06 -1.3542E+07  1.9583E-02
      23-
 mid.  surface     2.0517E+08  1.9677E+08 -9.7175E+07  8.4500E+06  1.3841E+07  8.6316E+06  3.2407E-02
      24-
 mid.  surface    -2.4724E+07 -3.1243E+07 -3.0302E+08  2.7698E+06 -3.2325E+07 -2.1566E+07  1.7177E-02
      25-
 mid.  surface     7.8176E+06 -1.2502E+07 -2.1649E+08  1.6093E+06 -2.6230E+07 -1.1651E+07  3.2434E-02
      26-
 mid.  surface     1.9925E+08  1.9250E+08 -8.7489E+07  1.8411E+07 -3.9890E+07 -5.4244E+07  1.3614E-02
      27-
 mid.  surface    -1.6154E+07 -1.0094E+07 -2.8486E+08  6.1993E+06 -2.7501E+07 -2.3493E+07  1.8857E-02
      28-
 mid.  surface    -3.8727E+08 -3.9274E+08 -5.9950E+08 -5.6200E+06 -8.4910E+07 -4.8859E+07  1.3457E-02
      29-
 mid.  surface    -1.6012E+08 -1.9493E+08 -3.5007E+08 -8.1998E+06 -7.2316E+07 -4.8768E+07  1.7318E-02
      30-
 mid.  surface    -1.6734E+08 -1.6687E+08 -4.3212E+08  1.5429E+07 -1.0815E+08 -9.4076E+07  1.1504E-02
      31-
 mid.  surface    -2.8951E+08 -2.7404E+08 -4.5809E+08  6.1067E+06 -9.7786E+07 -3.2785E+07  1.5440E-02
      52-
 mid.  surface    -1.1398E+08 -1.2061E+08 -3.9878E+08  2.7809E+06  1.2109E+07  6.9133E+05  4.7494E-02
      53-
 mid.  surface     7.7689E+07  9.2214E+07 -1.7625E+08  4.4854E+06  9.3177E+06  1.4702E+06  1.7978E-02
      54-
 mid.  surface    -1.0801E+08 -9.8519E+07 -3.7409E+08  3.5718E+06 -3.8084E+07 -2.0263E+07  2.1136E-02
      55-
 mid.  surface    -4.2419E+07 -3.8452E+07 -3.2556E+08  8.5906E+05 -4.2458E+07 -1.9350E+07  1.5754E-02
      56-
 mid.  surface    -2.9327E+08 -2.8740E+08 -4.4540E+08  6.8751E+06 -9.6745E+07 -2.1854E+07  1.5809E-02
      57-
 mid.  surface    -3.7207E+08 -3.7956E+08 -5.7516E+08 -2.9749E+06 -1.0257E+08 -3.4560E+07  1.4977E-02
     124-
 mid.  surface    -8.0320E+08 -7.5959E+08 -1.0078E+09  1.0797E+07  6.3609E+07 -3.5588E+07  4.6149E-02
     125-
 mid.  surface    -1.6570E+07 -4.3839E+06 -2.6964E+08  1.9614E+07  1.1061E+08 -5.9696E+07  3.8245E-03
     126-
 mid.  surface    -1.4598E+08 -1.6757E+08 -2.9777E+08 -1.0611E+07  8.4325E+07 -3.4926E+07  4.0475E-02
     127-
 mid.  surface    -1.5323E+08 -1.8404E+08 -4.2923E+08  6.6936E+06  1.5493E+08 -1.0433E+08  4.3303E-03
     128-
 mid.  surface     2.4155E+07 -3.9239E+07 -9.6342E+07 -2.6525E+07  5.8853E+07 -8.3832E+07  1.9900E-02
     129-
 mid.  surface    -3.9526E+08 -4.5003E+08 -7.0456E+08 -1.1329E+07  1.2652E+08 -1.8410E+08  5.3572E-03
     148-
 mid.  surface     1.0958E+08  1.2914E+08 -1.4792E+08 -7.8047E+06 -4.2952E+06  1.1743E+07  7.6951E-03
     149-
 mid.  surface    -3.4139E+07 -2.4166E+07 -3.1467E+08  9.1568E+05 -3.7912E+07  5.2465E+06  1.5114E-02
     150-
 mid.  surface    -4.1036E+08 -4.1657E+08 -6.1945E+08  7.2802E+06 -9.6378E+07 -2.5788E+06  1.4933E-02
     164-
 mid.  surface    -6.4903E+07 -6.9387E+07 -3.4801E+08 -9.0790E+06 -1.6119E+06 -5.6473E+06  3.4672E-02
     165-
 mid.  surface    -3.6625E+07 -3.5637E+07 -3.0099E+08 -6.6542E+05 -4.4470E+07 -2.8453E+07  2.2913E-02
     166-
 mid.  surface    -2.1756E+08 -2.2944E+08 -3.6439E+08  6.9063E+06 -9.5881E+07 -3.4303E+07  1.6696E-02



 n o d a l  s t r a i n  c a l c u l a t i o n s   f o r   t i m e  s t e p       34   ( at time 5.06028E+00 )

 node (global)
          strain       eps-xx      eps-yy      eps-zz      eps-xy      eps-yz      eps-zx       
       1-
 mid.  surface     9.6694E-03  1.6707E-02 -2.6815E-02  6.4064E-03 -2.0703E-03  2.4984E-03
       2-
 mid.  surface     9.5693E-03  2.3341E-02 -4.9384E-02  3.8555E-03 -5.9681E-06  4.6409E-03
       8-
 mid.  surface     1.2236E-02  1.7225E-02 -2.8542E-02 -2.9141E-03 -1.7021E-03  2.1620E-04
       9-
 mid.  surface     1.8973E-02  1.6959E-02 -3.8753E-02 -3.7111E-03 -1.6932E-03  6.4709E-04
      10-
 mid.  surface     1.8765E-02  1.6135E-02 -3.7795E-02  2.8594E-04 -6.2644E-03  1.5416E-03
      11-
 mid.  surface     1.9183E-02  1.6901E-02 -3.2557E-02  2.2841E-03 -1.8626E-02 -4.5485E-03
      12-
 mid.  surface     1.3563E-02  1.6461E-02 -2.3978E-02  4.9452E-04 -1.9282E-02 -1.0364E-02
      17-
 mid.  surface     1.7920E-02  1.6375E-02 -3.1133E-02  3.0097E-03 -1.3765E-02 -9.4860E-03
      18-
 mid.  surface     1.3330E-02  1.6562E-02 -2.9211E-02  1.5745E-03 -4.8469E-03 -2.7189E-03
      19-
 mid.  surface     1.4224E-02  1.8974E-02 -3.9085E-02 -7.5061E-04 -1.0490E-02 -1.0594E-02
      20-
 mid.  surface     1.6271E-02  1.4728E-02 -2.9636E-02  2.1863E-03  5.7675E-04  8.0176E-04
      21-
 mid.  surface     1.5179E-02  1.6357E-02 -3.5969E-02 -4.2730E-04 -6.4405E-04  3.2899E-04
      22-
 mid.  surface     1.4643E-02  1.5465E-02 -2.5686E-02  1.3626E-03 -4.2699E-03 -3.2963E-03
      23-
 mid.  surface     1.6897E-02  1.5758E-02 -3.1405E-02  1.6030E-03  1.1226E-03  1.1791E-04
      24-
 mid.  surface     1.1441E-02  1.0559E-02 -2.3752E-02  6.0079E-04 -3.7992E-03 -1.7874E-03
      25-
 mid.  surface     1.3475E-02  9.9228E-03 -2.4618E-02  2.0429E-04 -4.0120E-03 -2.4960E-03
      26-
 mid.  surface     1.3322E-02  1.2573E-02 -2.4553E-02  2.4552E-03 -8.5408E-03 -8.1223E-03
      27-
 mid.  surface     1.1102E-02  1.2045E-02 -2.4694E-02  1.2443E-03 -4.0189E-03 -3.5154E-03
      28-
 mid.  surface     5.2799E-03  5.4450E-03 -1.7244E-02 -5.2800E-04 -8.2936E-03 -4.8383E-03
      29-
 mid.  surface     8.1594E-03  3.2087E-03 -1.4715E-02 -7.8549E-05 -6.5565E-03 -5.3357E-03
      30-
 mid.  surface     8.2121E-03  8.0698E-03 -1.9905E-02  2.0698E-03 -1.4880E-02 -9.9411E-03
      31-
 mid.  surface     4.6149E-03  6.6155E-03 -1.6094E-02  1.1743E-03 -1.2693E-02 -3.9681E-03
      52-
 mid.  surface     1.6486E-02  1.5836E-02 -3.5533E-02  2.2596E-04  4.0357E-05 -1.2655E-03
      53-
 mid.  surface     1.2845E-02  1.5648E-02 -2.8656E-02  1.1687E-03 -1.0780E-03 -7.7335E-04
      54-
 mid.  surface     1.0720E-02  1.1840E-02 -2.5401E-02  5.6560E-04 -4.5873E-03 -3.1407E-03
      55-
 mid.  surface     1.0529E-02  1.1324E-02 -2.3845E-02  3.4569E-04 -6.4665E-03 -2.8159E-03
      56-
 mid.  surface     4.3690E-03  5.2189E-03 -1.4479E-02  1.2118E-03 -1.0914E-02 -2.0852E-03
      57-
 mid.  surface     5.9301E-03  5.3352E-03 -1.7605E-02 -3.3534E-04 -1.2073E-02 -4.0569E-03
     124-
 mid.  surface     1.0456E-02  1.8062E-02 -4.0928E-02  1.9628E-03  7.8397E-03 -6.6761E-03
     125-
 mid.  surface     1.0691E-02  1.3001E-02 -2.5153E-02  4.7306E-03  1.6444E-02 -1.0743E-02
     126-
 mid.  surface     1.0868E-02  7.3799E-03 -2.1368E-02 -1.1135E-03  9.0282E-03 -8.7376E-03
     127-
 mid.  surface     1.1279E-02  6.5826E-03 -2.1551E-02  8.5580E-04  2.2317E-02 -1.6352E-02
     128-
 mid.  surface     7.5046E-03 -6.9754E-04 -7.3399E-03 -2.7620E-03  7.2003E-03 -1.2031E-02
     129-
 mid.  surface     7.9776E-03  1.3082E-03 -1.6490E-02 -2.1066E-03  1.8220E-02 -2.0906E-02
     148-
 mid.  surface     1.1877E-02  1.5889E-02 -2.7439E-02 -1.6500E-03 -1.8984E-03  1.6049E-03
     149-
 mid.  surface     1.0047E-02  1.1919E-02 -2.3780E-02  2.5638E-04 -5.4613E-03  6.8399E-04
     150-
 mid.  surface     6.1862E-03  5.0866E-03 -1.8130E-02  1.5397E-03 -1.2997E-02 -4.6843E-04
     164-
 mid.  surface     1.6831E-02  1.5589E-02 -3.4911E-02 -2.2587E-03 -1.6836E-03 -2.8198E-03
     165-
 mid.  surface     1.1406E-02  1.1231E-02 -2.4508E-02 -9.1109E-05 -5.7808E-03 -5.4825E-03
     166-
 mid.  surface     5.6537E-03  3.9265E-03 -1.3471E-02  1.8910E-03 -1.3563E-02 -5.2505E-03



 n o d a l  s t r e s s  c a l c u l a t i o n s   f o r   t i m e  s t e p       42   ( at time 6.31622E+00 )

 node (global)
          stress       sig-xx      sig-yy      sig-zz      sig-xy      sig-yz      sig-zx       plastic
                                                                                                 strain 
       1-
 mid.  surface     5.6013E+07  8.6984E+07 -1.9641E+08  1.0225E+07 -1.9879E+07  4.5926E+07  2.7443E-02
       2-
 mid.  surface    -1.3010E+09 -1.2478E+09 -1.5570E+09  2.2550E+07 -2.2249E+07  5.2345E+07  5.4031E-02
       8-
 mid.  surface     1.7193E+08  1.8701E+08 -6.8454E+07 -1.8573E+07 -3.2613E+07  3.3546E+06  1.0307E-02
       9-
 mid.  surface    -1.4962E+08 -1.7050E+08 -4.2795E+08 -1.9931E+07 -2.0884E+07  7.7577E+06  4.7751E-02
      10-
 mid.  surface    -1.0154E+08 -1.1773E+08 -3.6391E+08  7.0435E+06 -5.7308E+07 -4.2192E+06  6.3213E-02
      11-
 mid.  surface     3.9865E+08  3.7599E+08  1.0914E+08  4.4382E+06 -1.1331E+08 -4.6347E+07  3.9437E-02
      12-
 mid.  surface     6.1023E+08  6.2669E+08  3.6780E+08  2.4424E+05 -1.1134E+08 -5.8909E+07  4.1818E-02
      17-
 mid.  surface     3.4622E+08  3.4284E+08  9.4841E+07  1.0937E+07 -1.0457E+08 -5.2173E+07  1.4378E-02
      18-
 mid.  surface     1.7416E+08  1.8371E+08 -4.8925E+07  9.5407E+06 -5.7745E+07 -2.2428E+07  2.6526E-02
      19-
 mid.  surface    -3.9181E+08 -3.4992E+08 -6.2000E+08  1.2603E+07 -1.0012E+08 -5.4456E+07  4.5938E-02
      20-
 mid.  surface     3.9921E+08  4.0682E+08  3.3468E+07  2.0907E+07 -3.2348E+06  5.5690E+06  2.5600E-02
      21-
 mid.  surface    -2.4521E+08 -2.4026E+08 -4.9252E+08  7.6306E+06  8.7654E+06  5.8718E+06  4.3496E-02
      22-
 mid.  surface     8.7444E+08  8.8237E+08  3.9958E+08  1.2230E+07 -5.5983E+07 -4.4281E+07  3.5192E-02
      23-
 mid.  surface     4.8346E+08  4.7118E+08  5.0671E+07  1.7481E+07 -1.6028E+07 -7.4487E+06  4.5812E-02
      24-
 mid.  surface    -1.7711E+08 -1.6924E+08 -3.5474E+08  1.7963E+06 -1.2915E+07 -1.4417E+07  2.0953E-02
      25-
 mid.  surface    -3.4664E+08 -3.8423E+08 -3.3563E+08  9.9530E+05  3.6154E+07  9.1033E+06  3.2426E-02
      26-
 mid.  surface     5.1408E+08  5.1016E+08  1.3183E+08  3.2389E+07 -8.8586E+07 -8.8602E+07  2.4932E-02
      27-
 mid.  surface     1.1847E+08  1.2991E+08 -2.3623E+08  9.3340E+06 -5.3951E+07 -3.5327E+07  2.9260E-02
      28-
 mid.  surface    -4.1377E+08 -4.1839E+08 -6.2621E+08 -6.6002E+06 -8.8251E+07 -5.4061E+07  1.9011E-02
      29-
 mid.  surface    -5.7687E+08 -6.3337E+08 -6.5066E+08 -1.8879E+07  4.9493E+06 -1.7332E+07  1.9430E-02
      30-
 mid.  surface     1.6186E+08  1.6912E+08 -2.3934E+08  3.0473E+07 -1.5923E+08 -1.2990E+08  2.3041E-02
      31-
 mid.  surface    -3.0765E+08 -2.8826E+08 -4.8928E+08 -8.7776E+05 -9.3870E+07 -3.6820E+07  2.1541E-02
      52-
 mid.  surface    -1.6629E+08 -1.7521E+08 -4.6027E+08  3.6822E+06  1.4765E+07  2.9059E+06  5.6732E-02
      53-
 mid.  surface     9.0648E+07  1.1441E+08 -1.6924E+08 -4.4052E+05  6.4107E+06  3.3225E+06  2.6108E-02
      54-
 mid.  surface    -1.2432E+08 -1.1914E+08 -3.9848E+08  2.2059E+06 -3.7631E+07 -1.9718E+07  2.8512E-02
      55-
 mid.  surface    -3.8511E+07 -3.1859E+07 -3.2470E+08  2.2550E+06 -3.9295E+07 -1.9299E+07  2.2321E-02
      56-
 mid.  surface    -3.2854E+08 -3.2208E+08 -5.0022E+08  1.4994E+06 -9.9416E+07 -2.5701E+07  2.2811E-02
      57-
 mid.  surface    -4.3604E+08 -4.5086E+08 -6.6198E+08 -2.2199E+06 -9.7842E+07 -3.1840E+07  2.1388E-02
     124-
 mid.  surface    -1.2440E+09 -1.2177E+09 -1.2927E+09  3.9873E+06  1.2202E+08 -1.4127E+07  5.0988E-02
     125-
 mid.  surface     2.4448E+08  2.6071E+08 -1.6399E+08  1.9537E+07  5.1860E+07 -7.3468E+07  1.8145E-02
     126-
 mid.  surface    -1.2977E+09 -1.3502E+09 -8.4349E+08 -3.6905E+07  2.7840E+08  6.8782E+07  2.7693E-02
     127-
 mid.  surface    -1.0830E+08 -1.0976E+08 -3.3810E+08  2.3266E+07  1.1641E+08 -8.9686E+07  9.4304E-03
     128-
 mid.  surface    -1.9224E+09 -2.0509E+09 -1.2396E+09 -9.8023E+07  3.7798E+08  1.0992E+08 -2.5222E-03
     129-
 mid.  surface    -1.2377E+09 -1.2972E+09 -1.2300E+09 -3.3135E+07  2.1076E+08 -8.9167E+07 -2.3266E-03
     148-
 mid.  surface     1.4330E+08  1.7142E+08 -1.1312E+08 -2.4336E+06 -6.9594E+06  1.1046E+07  1.5791E-02
     149-
 mid.  surface    -2.5179E+07 -1.4025E+07 -3.0918E+08  3.3858E+06 -2.9351E+07  9.2637E+06  2.2150E-02
     150-
 mid.  surface    -4.6108E+08 -4.6409E+08 -6.8407E+08  6.8415E+06 -9.2246E+07  1.1373E+06  2.1251E-02
     164-
 mid.  surface    -7.9152E+07 -7.7063E+07 -3.5824E+08  1.9303E+05 -4.6239E+06 -6.8235E+06  4.4051E-02
     165-
 mid.  surface    -4.2609E+07 -3.6720E+07 -3.0922E+08 -4.7981E+05 -4.2014E+07 -1.7183E+07  3.0473E-02
     166-
 mid.  surface    -2.5132E+08 -2.5845E+08 -4.1967E+08  3.5807E+06 -9.7650E+07 -2.3426E+07  2.3872E-02



 n o d a l  s t r a i n  c a l c u l a t i o n s   f o r   t i m e  s t e p       42   ( at time 6.31622E+00 )

 node (global)
          strain       eps-xx      eps-yy      eps-zz      eps-xy      eps-yz      eps-zx       
       1-
 mid.  surface     1.3587E-02  2.1494E-02 -3.5292E-02  6.7644E-03 -2.4828E-03  3.9140E-03
       2-
 mid.  surface     1.3042E-02  2.8259E-02 -6.0798E-02  4.6649E-03  1.9808E-05  6.3301E-03
       8-
 mid.  surface     1.5798E-02  2.1395E-02 -3.5997E-02 -3.7840E-03 -2.8910E-03  4.7806E-04
       9-
 mid.  surface     2.3800E-02  2.0739E-02 -4.8426E-02 -4.6187E-03 -2.5215E-03  1.0127E-03
      10-
 mid.  surface     2.3664E-02  2.0643E-02 -4.7428E-02  8.2599E-04 -8.2697E-03  1.3213E-03
      11-
 mid.  surface     2.3750E-02  2.0415E-02 -4.0301E-02  2.4615E-03 -2.2515E-02 -6.3638E-03
      12-
 mid.  surface     1.7213E-02  2.0824E-02 -3.0646E-02  8.1473E-04 -2.3048E-02 -1.2892E-02
      17-
 mid.  surface     2.2422E-02  2.0654E-02 -3.9647E-02  3.4318E-03 -1.6872E-02 -1.1228E-02
      18-
 mid.  surface     1.7574E-02  2.1402E-02 -3.7734E-02  2.2923E-03 -6.7202E-03 -3.5875E-03
      19-
 mid.  surface     1.7541E-02  2.4086E-02 -4.8362E-02 -1.7880E-05 -1.3355E-02 -1.2602E-02
      20-
 mid.  surface     2.0748E-02  1.9520E-02 -3.8184E-02  3.0714E-03  1.4550E-03  1.5674E-03
      21-
 mid.  surface     1.9489E-02  2.0686E-02 -4.4853E-02 -9.4011E-05 -3.7130E-04  7.3013E-04
      22-
 mid.  surface     1.9088E-02  2.0055E-02 -3.3086E-02  1.6535E-03 -4.9515E-03 -4.3162E-03
      23-
 mid.  surface     2.2091E-02  2.0052E-02 -4.0149E-02  2.3368E-03  1.3434E-03  1.0682E-04
      24-
 mid.  surface     1.4420E-02  1.4292E-02 -3.0327E-02  8.1940E-04 -5.0774E-03 -2.4441E-03
      25-
 mid.  surface     1.8263E-02  1.2929E-02 -3.2089E-02  3.6701E-04 -5.0080E-03 -3.2121E-03
      26-
 mid.  surface     1.7878E-02  1.6564E-02 -3.1972E-02  3.3548E-03 -1.0798E-02 -1.0690E-02
      27-
 mid.  surface     1.4527E-02  1.5915E-02 -3.2150E-02  1.5904E-03 -5.4284E-03 -4.4220E-03
      28-
 mid.  surface     7.2881E-03  7.2309E-03 -2.1408E-02 -6.9227E-04 -1.1004E-02 -6.5086E-03
      29-
 mid.  surface     1.1431E-02  4.6994E-03 -2.0444E-02 -1.5651E-04 -8.3340E-03 -7.4308E-03
      30-
 mid.  surface     1.1375E-02  1.0917E-02 -2.6021E-02  2.8259E-03 -1.8435E-02 -1.3297E-02
      31-
 mid.  surface     6.2791E-03  9.0956E-03 -2.0536E-02  1.1265E-03 -1.5555E-02 -5.1535E-03
      52-
 mid.  surface     2.0829E-02  1.9748E-02 -4.4637E-02  4.0249E-04  4.1159E-04 -1.2246E-03
      53-
 mid.  surface     1.6233E-02  2.0275E-02 -3.6508E-02  1.0821E-03 -9.4661E-04 -5.9108E-04
      54-
 mid.  surface     1.4156E-02  1.5343E-02 -3.2661E-02  5.7353E-04 -5.9505E-03 -3.9269E-03
      55-
 mid.  surface     1.3750E-02  1.4857E-02 -3.0573E-02  4.1642E-04 -7.7717E-03 -3.4854E-03
      56-
 mid.  surface     6.3912E-03  7.6111E-03 -1.9506E-02  1.2169E-03 -1.4497E-02 -3.0950E-03
      57-
 mid.  surface     8.4610E-03  7.3070E-03 -2.3185E-02 -3.6068E-04 -1.5295E-02 -5.0858E-03
     124-
 mid.  surface     1.3763E-02  2.2436E-02 -5.1055E-02  2.3720E-03  1.0559E-02 -8.6064E-03
     125-
 mid.  surface     1.4268E-02  1.7235E-02 -3.2972E-02  5.3195E-03  1.9859E-02 -1.2855E-02
     126-
 mid.  surface     1.4231E-02  9.8172E-03 -2.7634E-02 -1.2639E-03  1.1813E-02 -1.0742E-02
     127-
 mid.  surface     1.4482E-02  9.8396E-03 -2.8024E-02  1.6813E-03  2.7012E-02 -1.9222E-02
     128-
 mid.  surface     9.5408E-03  1.0735E-04 -9.7342E-03 -3.6182E-03  8.4253E-03 -1.4795E-02
     129-
 mid.  surface     9.6363E-03  2.5385E-03 -2.0790E-02 -2.4021E-03  2.1467E-02 -2.5116E-02
     148-
 mid.  surface     1.5273E-02  2.0681E-02 -3.5143E-02 -1.6430E-03 -2.4425E-03  2.0655E-03
     149-
 mid.  surface     1.3463E-02  1.5783E-02 -3.0982E-02  4.2877E-04 -6.3592E-03  1.1378E-03
     150-
 mid.  surface     8.4569E-03  7.4592E-03 -2.3566E-02  1.7908E-03 -1.6050E-02 -3.8584E-04
     164-
 mid.  surface     2.1076E-02  2.0044E-02 -4.3815E-02 -2.0610E-03 -2.3157E-03 -3.2609E-03
     165-
 mid.  surface     1.4809E-02  1.4917E-02 -3.1708E-02 -1.1782E-04 -7.2906E-03 -5.9391E-03
     166-
 mid.  surface     7.8473E-03  6.1316E-03 -1.8458E-02  2.0053E-03 -1.7183E-02 -5.9077E-03



 n o d a l  s t r e s s  c a l c u l a t i o n s   f o r   t i m e  s t e p       50   ( at time 7.57216E+00 )

 node (global)
          stress       sig-xx      sig-yy      sig-zz      sig-xy      sig-yz      sig-zx       plastic
                                                                                                 strain 
       1-
 mid.  surface     1.7149E+08  1.6701E+08 -1.0835E+08  9.8601E+06 -2.8746E+07  3.4884E+07  3.6744E-02
       2-
 mid.  surface    -1.4283E+09 -1.4061E+09 -1.7082E+09  2.4798E+07 -2.1317E+07  5.0612E+07  6.5146E-02
       8-
 mid.  surface     2.1528E+08  2.4625E+08 -1.1276E+07 -1.3360E+07 -2.8262E+07  1.8884E+05  1.9965E-02
       9-
 mid.  surface    -1.7327E+08 -1.7568E+08 -4.3444E+08 -1.2981E+07 -3.0940E+07  1.5032E+05  5.9337E-02
      10-
 mid.  surface    -2.7432E+07 -3.3825E+07 -2.9304E+08  2.4226E+07 -8.0333E+07 -2.1529E+07  7.4205E-02
      11-
 mid.  surface     3.0448E+08  3.1333E+08  2.1782E+07 -9.3629E+06 -9.6701E+07 -2.9092E+07  4.7520E-02
      12-
 mid.  surface     5.9335E+08  6.1492E+08  3.4490E+08 -2.0281E+07 -8.5916E+07 -3.2788E+07  5.0332E-02
      17-
 mid.  surface     3.0024E+08  3.2951E+08  4.9530E+07 -1.8811E+06 -1.1537E+08 -4.6028E+07  2.3077E-02
      18-
 mid.  surface     2.4700E+08  2.6549E+08  1.2357E+07  1.9506E+07 -6.5917E+07 -2.0143E+07  3.6822E-02
      19-
 mid.  surface    -4.8764E+08 -4.4015E+08 -7.2806E+08  6.5915E+05 -9.0681E+07 -5.9000E+07  5.5503E-02
      20-
 mid.  surface     8.7854E+06 -2.9418E+07 -7.3488E+07  1.9496E+07  3.2795E+07  5.9491E+07  2.7250E-02
      21-
 mid.  surface    -7.4547E+08 -7.4946E+08 -7.9918E+08  7.3563E+06  5.2583E+07  2.9515E+07  4.5512E-02
      22-
 mid.  surface     7.8699E+08  8.0639E+08  4.8384E+08  3.9681E+06 -2.2779E+07 -2.6975E+07  4.6154E-02
      23-
 mid.  surface     5.7825E+08  5.8026E+08  2.4920E+08  1.3490E+07 -6.4573E+06 -1.0386E+07  5.8208E-02
      24-
 mid.  surface    -3.4830E+08 -3.2882E+08 -5.1591E+08  6.0616E+06 -6.6241E+06  2.3986E+07  2.2801E-02
      25-
 mid.  surface     9.7687E+08  8.7874E+08  3.1005E+08  3.5752E+07  6.3995E+05 -1.4627E+08  5.3253E-02
      26-
 mid.  surface     2.0975E+09  2.0429E+09  1.0946E+09  6.3521E+07 -1.7143E+08 -2.5278E+08  5.8855E-02
      27-
 mid.  surface     8.5005E+08  8.6198E+08  1.7916E+08  1.4733E+07 -1.2961E+08 -1.0393E+08  5.0832E-02
      28-
 mid.  surface    -1.9991E+09 -1.9243E+09 -1.5512E+09 -2.2510E+07 -9.9073E+07  1.9399E+08  3.4663E-03
      29-
 mid.  surface    -9.1831E+08 -9.4604E+08 -9.9867E+08 -1.2881E+07 -2.5899E+07  4.4613E+07  2.0300E-02
      30-
 mid.  surface    -8.7636E+08 -8.3098E+08 -5.5190E+08  2.1121E+07 -1.8763E+08  9.7744E+06  1.6673E-02
      31-
 mid.  surface    -1.7807E+09 -1.7048E+09 -1.2876E+09 -3.0964E+07 -1.2479E+08  1.7497E+08  7.0110E-03
      52-
 mid.  surface    -9.5525E+07 -9.5356E+07 -4.8440E+08 -8.1778E+06  1.9180E+06 -8.9399E+06  6.8858E-02
      53-
 mid.  surface    -9.0325E+07 -9.2424E+07 -2.8218E+08 -1.5941E+07  3.4835E+07  2.3341E+07  3.1141E-02
      54-
 mid.  surface    -2.9329E+08 -2.7593E+08 -4.6926E+08  4.4954E+06 -1.8621E+07 -2.6155E+05  3.3275E-02
      55-
 mid.  surface    -4.7421E+08 -4.6599E+08 -5.0513E+08  4.1134E+05  1.2863E+07  2.2233E+07  2.0662E-02
      56-
 mid.  surface    -3.6487E+08 -3.5936E+08 -5.3783E+08 -9.7866E+06 -9.5491E+07 -2.4986E+07  3.0110E-02
      57-
 mid.  surface    -5.2297E+08 -5.4224E+08 -7.5616E+08 -7.2389E+06 -8.4006E+07 -3.0742E+07  2.8083E-02
     124-
 mid.  surface    -1.4567E+09 -1.4094E+09 -1.5067E+09  3.4535E+06  1.0990E+08 -1.4262E+07  5.5612E-02
     125-
 mid.  surface     2.4191E+08  2.3973E+08 -1.9291E+08  4.7581E+06  4.0426E+07 -6.2363E+07  3.2853E-02
     126-
 mid.  surface    -8.0885E+08 -8.7357E+08 -7.6501E+08 -3.3756E+07  2.6148E+08 -3.6731E+07  2.6538E-02
     127-
 mid.  surface    -1.9873E+07 -3.4335E+07 -2.2793E+08  2.2413E+07  1.4517E+08 -8.7964E+07  1.5233E-02
     128-
 mid.  surface    -3.0496E+09 -3.1155E+09 -2.3472E+09 -1.5355E+08  4.9735E+08  1.7058E+08 -2.8982E-02
     129-
 mid.  surface    -4.3234E+09 -4.2417E+09 -2.9465E+09 -1.0608E+08  3.3719E+08  2.9405E+08 -5.0609E-02
     148-
 mid.  surface     1.7045E+08  1.8297E+08 -9.3205E+07 -5.0266E+06 -1.6483E+06  1.3030E+07  2.4313E-02
     149-
 mid.  surface    -2.3239E+07 -1.4196E+07 -3.1091E+08  4.9911E+06 -2.8488E+07  1.1960E+07  2.9275E-02
     150-
 mid.  surface    -5.2038E+08 -5.1584E+08 -7.4957E+08  8.3395E+06 -8.7641E+07  6.8450E+06  2.8079E-02
     164-
 mid.  surface    -1.2190E+08 -1.1786E+08 -3.9758E+08 -5.5044E+06 -3.6941E+06 -6.7194E+06  5.3711E-02
     165-
 mid.  surface    -3.8476E+07 -2.3531E+07 -3.0499E+08  6.1265E+04 -3.7687E+07 -1.2671E+07  3.7944E-02
     166-
 mid.  surface    -2.7702E+08 -2.6880E+08 -4.5341E+08  3.8830E+06 -9.4101E+07 -1.3845E+07  3.1103E-02



 n o d a l  s t r a i n  c a l c u l a t i o n s   f o r   t i m e  s t e p       50   ( at time 7.57216E+00 )

 node (global)
          strain       eps-xx      eps-yy      eps-zz      eps-xy      eps-yz      eps-zx       
       1-
 mid.  surface     1.8973E-02  2.5984E-02 -4.3833E-02  7.4925E-03 -3.3882E-03  4.6196E-03
       2-
 mid.  surface     1.7847E-02  3.2967E-02 -7.2373E-02  5.7821E-03 -2.2045E-04  8.0833E-03
       8-
 mid.  surface     1.9305E-02  2.6925E-02 -4.4322E-02 -4.2516E-03 -3.4936E-03  4.2382E-04
       9-
 mid.  surface     2.8614E-02  2.5986E-02 -5.8730E-02 -5.0229E-03 -3.7958E-03  8.1467E-04
      10-
 mid.  surface     2.8859E-02  2.5902E-02 -5.6869E-02  2.5008E-03 -1.1328E-02  3.2627E-04
      11-
 mid.  surface     2.6917E-02  2.4264E-02 -4.8555E-02  1.7616E-03 -2.5969E-02 -6.9250E-03
      12-
 mid.  surface     2.0294E-02  2.4960E-02 -3.8148E-02 -2.5107E-04 -2.5601E-02 -1.3800E-02
      17-
 mid.  surface     2.5315E-02  2.6065E-02 -4.8489E-02  3.0772E-03 -2.0591E-02 -1.2605E-02
      18-
 mid.  surface     2.1873E-02  2.7246E-02 -4.6894E-02  3.6933E-03 -8.4379E-03 -4.3109E-03
      19-
 mid.  surface     2.0323E-02  2.9300E-02 -5.7772E-02 -2.2787E-04 -1.5531E-02 -1.4594E-02
      20-
 mid.  surface     2.7692E-02  2.3782E-02 -4.7258E-02  4.8499E-03  2.3030E-03  1.7990E-03
      21-
 mid.  surface     2.4424E-02  2.5515E-02 -5.3884E-02  1.4066E-03 -5.6354E-04  3.3576E-04
      22-
 mid.  surface     2.3890E-02  2.5511E-02 -4.0547E-02  2.5737E-03 -6.0361E-03 -5.5032E-03
      23-
 mid.  surface     2.8329E-02  2.5420E-02 -4.9040E-02  3.3952E-03  1.3837E-03 -6.9695E-04
      24-
 mid.  surface     1.6797E-02  1.8388E-02 -3.7629E-02  4.8962E-04 -5.6359E-03 -2.4845E-03
      25-
 mid.  surface     2.4048E-02  1.6755E-02 -4.0169E-02  5.0673E-04 -5.5292E-03 -3.7491E-03
      26-
 mid.  surface     2.3458E-02  2.0730E-02 -3.9626E-02  3.7743E-03 -1.2921E-02 -1.3997E-02
      27-
 mid.  surface     1.7793E-02  1.9674E-02 -4.0067E-02  8.7494E-04 -6.6635E-03 -5.2994E-03
      28-
 mid.  surface     9.2533E-03  8.8313E-03 -2.4887E-02 -6.7884E-04 -1.4839E-02 -8.7385E-03
      29-
 mid.  surface     1.4507E-02  6.2010E-03 -2.6388E-02 -3.8515E-04 -1.0276E-02 -9.6438E-03
      30-
 mid.  surface     1.4610E-02  1.3600E-02 -3.2752E-02  3.2417E-03 -2.1871E-02 -1.7683E-02
      31-
 mid.  surface     8.0665E-03  1.1436E-02 -2.4681E-02  9.0309E-04 -1.9458E-02 -6.6611E-03
      52-
 mid.  surface     2.4953E-02  2.3750E-02 -5.4130E-02 -4.3724E-04  9.3704E-04 -9.2849E-04
      53-
 mid.  surface     2.0446E-02  2.4149E-02 -4.4936E-02  4.3441E-04 -8.0866E-05 -1.4765E-04
      54-
 mid.  surface     1.7498E-02  1.9674E-02 -4.0172E-02  1.0420E-03 -7.4435E-03 -4.6515E-03
      55-
 mid.  surface     1.7086E-02  1.9015E-02 -3.7431E-02  1.0890E-03 -9.4146E-03 -4.3618E-03
      56-
 mid.  surface     8.4413E-03  9.9954E-03 -2.4488E-02  7.4173E-04 -1.7818E-02 -4.0853E-03
      57-
 mid.  surface     1.0949E-02  9.2219E-03 -2.8910E-02 -6.7412E-04 -1.8057E-02 -6.1451E-03
     124-
 mid.  surface     1.6900E-02  2.7281E-02 -6.1709E-02  2.8560E-03  1.2709E-02 -1.0281E-02
     125-
 mid.  surface     1.8186E-02  2.1200E-02 -4.1430E-02  5.2674E-03  2.2868E-02 -1.4258E-02
     126-
 mid.  surface     1.8230E-02  1.2159E-02 -3.4191E-02 -1.3128E-03  1.4754E-02 -1.3790E-02
     127-
 mid.  surface     1.8839E-02  1.3072E-02 -3.5362E-02  2.7340E-03  3.1797E-02 -2.1138E-02
     128-
 mid.  surface     1.2395E-02  1.1637E-03 -1.1698E-02 -4.4143E-03  9.1684E-03 -1.8346E-02
     129-
 mid.  surface     1.2309E-02  3.6597E-03 -2.5368E-02 -3.1727E-03  2.4309E-02 -2.8064E-02
     148-
 mid.  surface     1.9232E-02  2.4966E-02 -4.3153E-02 -1.9005E-03 -2.6933E-03  2.6682E-03
     149-
 mid.  surface     1.6906E-02  1.9575E-02 -3.8253E-02  6.3364E-04 -7.3806E-03  1.6475E-03
     150-
 mid.  surface     1.0802E-02  1.0355E-02 -2.9668E-02  2.1267E-03 -1.8968E-02 -9.3036E-05
     164-
 mid.  surface     2.5224E-02  2.4362E-02 -5.2919E-02 -2.4102E-03 -2.8884E-03 -3.7080E-03
     165-
 mid.  surface     1.8014E-02  1.8834E-02 -3.8763E-02 -1.2527E-04 -8.5356E-03 -6.4070E-03
     166-
 mid.  surface     9.8747E-03  8.9904E-03 -2.3700E-02  2.2033E-03 -2.0429E-02 -6.2384E-03



 n o d a l  s t r e s s  c a l c u l a t i o n s   f o r   t i m e  s t e p       58   ( at time 8.82811E+00 )

 node (global)
          stress       sig-xx      sig-yy      sig-zz      sig-xy      sig-yz      sig-zx       plastic
                                                                                                 strain 
       1-
 mid.  surface     1.9618E+08  1.9993E+08 -7.5097E+07  2.5246E+06 -2.1557E+07  4.3171E+07  4.6086E-02
       2-
 mid.  surface    -1.6049E+09 -1.5799E+09 -1.8891E+09  1.5728E+07 -2.0968E+07  4.6984E+07  7.5777E-02
       8-
 mid.  surface     2.3759E+08  2.4207E+08  3.8044E+06 -1.7114E+07 -4.0412E+07  4.5931E+06  2.9785E-02
       9-
 mid.  surface    -2.4329E+08 -2.7395E+08 -5.1166E+08 -1.3246E+07 -3.4687E+07  6.9416E+06  7.0658E-02
      10-
 mid.  surface     1.3350E+07  4.8298E+05 -2.7777E+08  1.4983E+07 -8.9203E+07 -1.9505E+07  8.4191E-02
      11-
 mid.  surface     3.2541E+08  3.2756E+08  3.7621E+07 -4.3086E+06 -8.2450E+07 -2.3282E+07  5.6743E-02
      12-
 mid.  surface     6.7255E+08  6.7928E+08  4.0696E+08 -1.2764E+07 -8.0173E+07 -3.4912E+07  5.9550E-02
      17-
 mid.  surface     2.8333E+08  3.0227E+08  2.9502E+07  3.0444E+06 -9.8056E+07 -4.0925E+07  3.3076E-02
      18-
 mid.  surface     3.0017E+08  3.1234E+08  4.0081E+07  8.5163E+06 -8.6355E+07 -2.5456E+07  4.6608E-02
      19-
 mid.  surface    -5.1976E+08 -4.9529E+08 -7.7883E+08  6.0409E+06 -9.3740E+07 -4.5836E+07  6.5433E-02
      20-
 mid.  surface     7.3359E+08  7.0710E+08  3.0348E+08  2.8184E+07 -2.5515E+06 -3.6807E+05  4.2053E-02
      21-
 mid.  surface    -4.7769E+08 -4.4379E+08 -7.3914E+08  2.5732E+07  1.5039E+07 -4.0947E+06  5.5380E-02
      22-
 mid.  surface     9.0873E+08  9.5020E+08  6.1989E+08  2.2269E+07 -2.1777E+07 -2.9612E+07  5.6449E-02
      23-
 mid.  surface     9.1286E+08  8.6689E+08  4.8191E+08  2.1993E+07 -1.6539E+07 -1.7869E+07  7.3624E-02
      24-
 mid.  surface    -2.3781E+08 -2.3266E+08 -4.9364E+08 -7.5526E+06 -3.0254E+07  8.8186E+06  2.8425E-02
      25-
 mid.  surface     9.5550E+08  9.2814E+08  3.2180E+08  5.2068E+06  1.2406E+07 -1.6084E+08  7.3882E-02
      26-
 mid.  surface     1.7362E+09  1.7415E+09  1.1039E+09  3.3911E+07 -1.1280E+08 -1.9071E+08  7.8080E-02
      27-
 mid.  surface     1.5320E+08  1.4855E+08 -8.9071E+07 -7.8061E+06 -7.5131E+07 -1.9725E+07  5.7163E-02
      28-
 mid.  surface    -2.1831E+09 -2.1560E+09 -1.7279E+09  6.6069E+06 -1.2423E+08  1.7493E+08 -9.9353E-03
      29-
 mid.  surface    -1.0761E+09 -1.1140E+09 -1.1156E+09 -2.1022E+07 -5.1705E+07  2.9079E+07  2.4107E-02
      30-
 mid.  surface    -8.7491E+08 -8.5314E+08 -5.6663E+08  1.2637E+07 -1.6296E+08  3.5396E+07  8.9849E-03
      31-
 mid.  surface    -1.9807E+09 -1.9325E+09 -1.4953E+09  1.2020E+07 -1.4015E+08  1.7531E+08 -6.2082E-03
      52-
 mid.  surface    -2.7229E+08 -2.9531E+08 -5.8306E+08 -4.3764E+06  2.2473E+07  7.0365E+06  7.8116E-02
      53-
 mid.  surface     2.2718E+07  4.4404E+07 -2.5288E+08 -1.0762E+07  2.7773E+07  9.5693E+06  3.9391E-02
      54-
 mid.  surface    -8.7645E+08 -8.6078E+08 -7.9160E+08 -1.4516E+07  1.1612E+07  4.4394E+07  2.9370E-02
      55-
 mid.  surface    -7.5541E+08 -7.3909E+08 -6.8117E+08 -7.4393E+06  2.0040E+07  4.4108E+07  1.5666E-02
      56-
 mid.  surface    -4.0809E+08 -3.9424E+08 -5.8210E+08 -6.7656E+06 -9.3354E+07 -2.6275E+07  3.8183E-02
      57-
 mid.  surface    -5.7940E+08 -5.8942E+08 -8.0223E+08 -5.1074E+06 -9.0588E+07 -3.2759E+07  3.5352E-02
     124-
 mid.  surface    -1.7034E+09 -1.6799E+09 -1.7696E+09 -8.7958E+06  1.1318E+08 -1.7876E+07  5.9749E-02
     125-
 mid.  surface     3.1294E+08  3.4366E+08 -1.1317E+08  1.1974E+07  2.8424E+07 -4.6741E+07  4.7115E-02
     126-
 mid.  surface    -1.0374E+09 -1.1074E+09 -1.0181E+09 -3.7843E+07  2.7363E+08 -6.0110E+07  2.6050E-02
     127-
 mid.  surface     1.5014E+07 -8.5692E+06 -2.2441E+08  1.8951E+07  1.7113E+08 -9.1942E+07  1.9244E-02
     128-
 mid.  surface    -3.4543E+09 -3.6393E+09 -2.8299E+09 -1.4178E+08  4.8990E+08  1.8814E+08 -5.1331E-02
     129-
 mid.  surface    -4.6609E+09 -4.7513E+09 -3.3500E+09 -1.1552E+08  3.8542E+08  3.1332E+08 -9.7413E-02
     148-
 mid.  surface     2.2876E+08  2.6219E+08 -2.0888E+07 -2.1464E+06  1.7899E+06  1.1675E+07  3.3708E-02
     149-
 mid.  surface    -3.1694E+07 -3.5049E+07 -3.3119E+08  4.1461E+05 -2.0226E+07  1.4718E+07  3.6564E-02
     150-
 mid.  surface    -5.6326E+08 -5.5479E+08 -7.8238E+08  1.0852E+07 -1.0022E+08  9.6762E+06  3.5230E-02
     164-
 mid.  surface    -1.1475E+08 -9.7540E+07 -3.7750E+08 -4.8536E+05 -2.8444E+06 -5.3003E+06  6.4235E-02
     165-
 mid.  surface    -5.2883E+07 -5.1082E+07 -3.3540E+08 -6.7555E+06 -3.1254E+07 -7.9621E+06  4.5556E-02
     166-
 mid.  surface    -2.8282E+08 -2.7403E+08 -4.5957E+08  1.0083E+07 -9.9570E+07 -1.2438E+07  3.8424E-02



 n o d a l  s t r a i n  c a l c u l a t i o n s   f o r   t i m e  s t e p       58   ( at time 8.82811E+00 )

 node (global)
          strain       eps-xx      eps-yy      eps-zz      eps-xy      eps-yz      eps-zx       
       1-
 mid.  surface     2.3162E-02  3.0683E-02 -5.2283E-02  7.9911E-03 -3.9191E-03  6.0563E-03
       2-
 mid.  surface     2.1648E-02  3.7952E-02 -8.3662E-02  6.6032E-03 -2.9027E-04  9.7972E-03
       8-
 mid.  surface     2.3534E-02  3.1239E-02 -5.2746E-02 -5.0454E-03 -4.7326E-03  7.4176E-04
       9-
 mid.  surface     3.3895E-02  2.9528E-02 -6.8782E-02 -5.5804E-03 -5.0892E-03  1.1118E-03
      10-
 mid.  surface     3.3982E-02  3.0573E-02 -6.6301E-02  3.2724E-03 -1.4411E-02 -2.7128E-04
      11-
 mid.  surface     3.1387E-02  2.8764E-02 -5.7359E-02  1.7299E-03 -2.8795E-02 -7.5198E-03
      12-
 mid.  surface     2.4856E-02  2.9312E-02 -4.6142E-02 -5.0676E-04 -2.8309E-02 -1.5035E-02
      17-
 mid.  surface     2.9447E-02  3.1131E-02 -5.8056E-02  3.4148E-03 -2.3242E-02 -1.3764E-02
      18-
 mid.  surface     2.6500E-02  3.2596E-02 -5.6319E-02  4.2426E-03 -1.1046E-02 -5.1365E-03
      19-
 mid.  surface     2.4402E-02  3.4026E-02 -6.7272E-02  1.8672E-04 -1.8150E-02 -1.5568E-02
      20-
 mid.  surface     3.3246E-02  2.9209E-02 -5.6406E-02  5.6193E-03  3.0595E-03  1.9045E-03
      21-
 mid.  surface     2.8528E-02  3.0892E-02 -6.3379E-02  2.3885E-03 -1.0999E-03  7.4296E-05
      22-
 mid.  surface     2.8140E-02  3.1264E-02 -4.8347E-02  3.5861E-03 -7.4158E-03 -6.4103E-03
      23-
 mid.  surface     3.4704E-02  2.9911E-02 -5.8410E-02  4.1490E-03  1.7963E-03 -1.1816E-03
      24-
 mid.  surface     2.0350E-02  2.1958E-02 -4.4817E-02  6.3015E-05 -6.2821E-03 -3.1112E-03
      25-
 mid.  surface     2.8759E-02  2.0194E-02 -4.8731E-02  9.7597E-05 -6.0537E-03 -4.7781E-03
      26-
 mid.  surface     2.7805E-02  2.4815E-02 -4.7025E-02  4.3142E-03 -1.4635E-02 -1.5936E-02
      27-
 mid.  surface     2.1263E-02  2.3780E-02 -4.8366E-02  4.8662E-04 -7.4007E-03 -5.9444E-03
      28-
 mid.  surface     1.1703E-02  1.0600E-02 -2.8995E-02 -5.8188E-04 -1.8998E-02 -1.1189E-02
      29-
 mid.  surface     1.8562E-02  8.3422E-03 -3.3414E-02 -6.8278E-04 -1.2628E-02 -1.1546E-02
      30-
 mid.  surface     1.8410E-02  1.6612E-02 -3.9298E-02  3.5906E-03 -2.4712E-02 -2.0753E-02
      31-
 mid.  surface     1.0188E-02  1.3907E-02 -2.9429E-02  1.1144E-03 -2.3272E-02 -8.4242E-03
      52-
 mid.  surface     2.9916E-02  2.7685E-02 -6.3722E-02 -5.0592E-04  1.7767E-03 -6.2724E-04
      53-
 mid.  surface     2.4232E-02  2.8869E-02 -5.3556E-02  1.2764E-04  9.7731E-04  2.1498E-04
      54-
 mid.  surface     2.1141E-02  2.3837E-02 -4.8295E-02  8.7361E-04 -8.6843E-03 -5.3998E-03
      55-
 mid.  surface     2.0887E-02  2.2821E-02 -4.4446E-02  1.3773E-03 -1.0750E-02 -5.0889E-03
      56-
 mid.  surface     1.0560E-02  1.3035E-02 -3.0247E-02  6.7636E-04 -2.1341E-02 -5.2830E-03
      57-
 mid.  surface     1.3398E-02  1.1716E-02 -3.4595E-02 -7.3384E-04 -2.1627E-02 -7.4243E-03
     124-
 mid.  surface     1.9960E-02  3.1310E-02 -7.1582E-02  3.0013E-03  1.5112E-02 -1.2128E-02
     125-
 mid.  surface     2.1528E-02  2.6051E-02 -4.9317E-02  5.5165E-03  2.5815E-02 -1.5424E-02
     126-
 mid.  surface     2.1617E-02  1.5071E-02 -4.1137E-02 -1.0583E-03  1.7473E-02 -1.6818E-02
     127-
 mid.  surface     2.2028E-02  1.6187E-02 -4.1476E-02  3.8948E-03  3.6574E-02 -2.4035E-02
     128-
 mid.  surface     1.6478E-02  3.3166E-03 -1.7507E-02 -5.3229E-03  1.0302E-02 -1.9708E-02
     129-
 mid.  surface     1.5368E-02  5.6990E-03 -3.0307E-02 -3.7795E-03  2.8522E-02 -3.1219E-02
     148-
 mid.  surface     2.2900E-02  3.0620E-02 -5.1533E-02 -1.9122E-03 -2.9014E-03  3.1267E-03
     149-
 mid.  surface     2.0756E-02  2.3073E-02 -4.5879E-02  5.5388E-04 -7.9233E-03  2.2835E-03
     150-
 mid.  surface     1.3069E-02  1.3381E-02 -3.5524E-02  2.5768E-03 -2.2591E-02  1.4656E-04
     164-
 mid.  surface     2.9468E-02  2.9609E-02 -6.2249E-02 -2.3096E-03 -3.6516E-03 -4.1356E-03
     165-
 mid.  surface     2.1725E-02  2.2322E-02 -4.6343E-02 -5.5446E-04 -9.4394E-03 -6.6700E-03
     166-
 mid.  surface     1.1985E-02  1.1816E-02 -2.8737E-02  2.7156E-03 -2.3910E-02 -6.7875E-03



 n o d a l  s t r e s s  c a l c u l a t i o n s   f o r   t i m e  s t e p       66   ( at time 1.00840E+01 )

 node (global)
          stress       sig-xx      sig-yy      sig-zz      sig-xy      sig-yz      sig-zx       plastic
                                                                                                 strain 
       1-
 mid.  surface    -2.2553E+09 -2.1881E+09 -1.1735E+09 -7.8889E+04  9.2130E+07  1.9315E+07  9.6295E-03
       2-
 mid.  surface    -4.2133E+09 -4.1956E+09 -3.1690E+09 -1.6631E+07  9.8086E+07  6.0114E+07  4.0128E-02
       8-
 mid.  surface     2.4479E+08  2.7048E+08  3.7446E+07 -3.1657E+06 -4.5347E+07 -2.9686E+06  4.2431E-02
       9-
 mid.  surface    -2.2862E+08 -2.1706E+08 -4.6725E+08  1.7542E+06 -6.0012E+07 -9.1742E+06  8.3415E-02
      10-
 mid.  surface    -3.7593E+07 -6.7197E+07 -3.5590E+08 -1.6960E+07 -8.5820E+07 -3.1936E+06  9.3120E-02
      11-
 mid.  surface     2.9792E+08  2.6791E+08 -1.1785E+07 -1.4284E+07 -5.8627E+07 -1.3699E+06  6.6271E-02
      12-
 mid.  surface    -3.5873E+08 -3.3489E+08  4.2806E+07  1.3726E+07 -1.8957E+07 -4.6843E+07  4.7120E-02
      17-
 mid.  surface     1.8201E+08  1.6789E+08 -8.7996E+07 -1.7277E+07 -9.8118E+07 -4.7930E+07  4.3741E-02
      18-
 mid.  surface     2.8859E+08  2.8872E+08  8.4722E+06 -1.6435E+07 -1.1165E+08 -1.7356E+07  5.5348E-02
      19-
 mid.  surface    -1.8029E+09 -1.8099E+09 -1.4116E+09 -2.2228E+06 -2.1910E+07 -3.2128E+07  5.4604E-02
      20-
 mid.  surface     4.1125E+08  4.5576E+08  3.4989E+08  2.8679E+07  1.6691E+07  7.6145E+06  4.7448E-02
      21-
 mid.  surface    -2.9631E+08 -2.5154E+08 -6.7158E+08  8.1250E+06  1.3675E+07  4.2076E+06  7.2183E-02
      22-
 mid.  surface     9.3262E+08  9.5376E+08  6.7910E+08 -1.1408E+07 -2.6462E+07  2.5172E+07  6.6219E-02
      23-
 mid.  surface     5.9368E+08  5.5720E+08  4.8552E+08  1.8728E+07  3.0262E+07  3.2240E+07  7.9337E-02
      24-
 mid.  surface    -1.4063E+08 -1.4044E+08 -4.5050E+08  4.8937E+06 -6.7574E+07  3.3926E+07  3.6448E-02
      25-
 mid.  surface     7.7630E+08  7.6016E+08  5.0817E+08  2.1466E+07  8.8980E+06 -7.4709E+07  8.7096E-02
      26-
 mid.  surface     1.2890E+09  1.2810E+09  1.1434E+09  2.5834E+07 -1.0665E+08 -8.3368E+06  8.5006E-02
      27-
 mid.  surface     2.7855E+08  2.6857E+08 -2.6612E+07 -5.4553E+06 -9.3020E+07  3.8857E+07  6.5522E-02
      28-
 mid.  surface    -1.6562E+09 -1.6149E+09 -1.8729E+09 -2.8978E+07 -1.4868E+08  2.1718E+07 -7.1477E-03
      29-
 mid.  surface     1.1894E+09  1.0968E+09 -1.7814E+08 -9.2484E+06 -1.2772E+08 -3.2977E+08  6.7376E-02
      30-
 mid.  surface     1.3598E+09  1.3193E+09  3.1626E+08  3.0956E+07 -2.4447E+08 -2.7881E+08  4.2854E-02
      31-
 mid.  surface    -1.3769E+09 -1.3032E+09 -1.5376E+09 -2.7226E+07 -1.6764E+08  2.2577E+07 -2.5359E-03
      52-
 mid.  surface    -8.0173E+08 -8.1922E+08 -7.8709E+08 -4.4475E+06  7.3735E+07  3.4479E+07  7.7204E-02
      53-
 mid.  surface    -5.2044E+08 -4.9283E+08 -4.7826E+08  7.3079E+05  7.4655E+07  4.1284E+07  3.7757E-02
      54-
 mid.  surface    -4.8173E+08 -4.7827E+08 -7.5252E+08 -9.3752E+06 -3.7909E+07  1.7589E+06  3.6644E-02
      55-
 mid.  surface    -3.3352E+08 -3.4691E+08 -6.2891E+08 -4.2183E+06 -1.9744E+07  5.0285E+06  2.2796E-02
      56-
 mid.  surface    -3.9265E+08 -3.7649E+08 -5.7082E+08  1.4911E+07 -1.1355E+08 -2.8312E+07  4.6236E-02
      57-
 mid.  surface    -6.2332E+08 -6.3509E+08 -8.5047E+08  1.1661E+07 -1.2061E+08 -3.1329E+07  4.3272E-02
     124-
 mid.  surface    -1.0096E+09 -1.0702E+09 -1.4698E+09  1.3128E+07  9.3376E+07  1.8383E+07  8.0512E-02
     125-
 mid.  surface     1.1815E+09  1.1606E+09  4.5129E+08 -2.1831E+06 -1.3980E+06 -1.6083E+07  7.5133E-02
     126-
 mid.  surface    -7.6828E+08 -7.9360E+08 -1.0023E+09 -1.8316E+07  2.6729E+08  1.9044E+06  3.6930E-02
     127-
 mid.  surface    -2.3743E+08 -2.0576E+08 -3.5509E+08  1.5597E+07  1.3797E+08  2.0706E+07  2.2597E-02
     128-
 mid.  surface    -2.1231E+09 -2.2019E+09 -2.6834E+09 -8.8406E+07  4.4173E+08 -1.8770E+08 -4.1994E-02
     129-
 mid.  surface    -3.7564E+09 -3.7774E+09 -3.7312E+09 -2.5518E+07  3.3217E+08  5.0587E+07 -1.1194E-01
     148-
 mid.  surface     2.3459E+08  2.1728E+08 -3.3302E+07 -1.9662E+06  9.9653E+06  1.5081E+07  4.4211E-02
     149-
 mid.  surface     4.4090E+06  2.0745E+07 -2.7748E+08  1.8507E+06 -2.5324E+07  1.7456E+07  4.4385E-02
     150-
 mid.  surface    -5.4994E+08 -5.3735E+08 -7.5287E+08  9.2113E+06 -1.0627E+08  5.2122E+06  4.2246E-02
     164-
 mid.  surface    -1.5514E+08 -1.5588E+08 -4.2692E+08 -9.1246E+06  8.5944E+06  4.0452E+06  7.4666E-02
     165-
 mid.  surface    -4.1712E+07 -1.8679E+07 -3.1784E+08 -4.1093E+06 -1.9859E+07  6.9899E+06  5.4051E-02
     166-
 mid.  surface    -3.2028E+08 -3.1492E+08 -5.0555E+08  2.8370E+06 -9.9414E+07 -1.0481E+07  4.6719E-02



 n o d a l  s t r a i n  c a l c u l a t i o n s   f o r   t i m e  s t e p       66   ( at time 1.00840E+01 )

 node (global)
          strain       eps-xx      eps-yy      eps-zz      eps-xy      eps-yz      eps-zx       
       1-
 mid.  surface     2.9603E-02  3.7382E-02 -6.2425E-02  9.6096E-03 -4.7088E-03  6.9959E-03
       2-
 mid.  surface     2.9011E-02  4.2517E-02 -9.5341E-02  6.6212E-03  5.2236E-05  1.3257E-02
       8-
 mid.  surface     2.7740E-02  3.7744E-02 -6.3194E-02 -4.9620E-03 -5.8095E-03  3.9258E-04
       9-
 mid.  surface     3.8583E-02  3.5724E-02 -7.9192E-02 -5.1085E-03 -7.7053E-03  3.6464E-04
      10-
 mid.  surface     3.8875E-02  3.4003E-02 -7.5615E-02  2.0546E-03 -1.7491E-02  6.1144E-05
      11-
 mid.  surface     3.6775E-02  3.2165E-02 -6.6856E-02  9.4967E-04 -3.0576E-02 -7.1649E-03
      12-
 mid.  surface     3.1980E-02  3.5763E-02 -5.5586E-02  1.8231E-03 -3.0994E-02 -1.6697E-02
      17-
 mid.  surface     3.4495E-02  3.4638E-02 -6.8363E-02  2.1333E-03 -2.6170E-02 -1.5179E-02
      18-
 mid.  surface     3.0715E-02  3.6949E-02 -6.5253E-02  3.0939E-03 -1.4801E-02 -5.2819E-03
      19-
 mid.  surface     3.1891E-02  3.8707E-02 -7.9271E-02  8.5819E-04 -1.9944E-02 -1.5696E-02
      20-
 mid.  surface     3.7514E-02  3.7022E-02 -6.6133E-02  7.1089E-03  3.2178E-03  1.7462E-03
      21-
 mid.  surface     3.1054E-02  3.7031E-02 -7.3776E-02  2.0226E-03 -1.0372E-03 -3.7595E-04
      22-
 mid.  surface     3.1558E-02  3.7136E-02 -5.7444E-02  2.7015E-03 -7.8035E-03 -6.2083E-03
      23-
 mid.  surface     4.0757E-02  3.6207E-02 -6.8484E-02  5.4034E-03  2.5398E-03 -4.1326E-04
      24-
 mid.  surface     2.5474E-02  2.4678E-02 -5.2299E-02 -4.4554E-04 -6.8632E-03 -3.9318E-03
      25-
 mid.  surface     3.5986E-02  2.4289E-02 -5.6892E-02  1.2391E-03 -6.9948E-03 -7.5285E-03
      26-
 mid.  surface     3.4867E-02  2.9826E-02 -5.5128E-02  5.6710E-03 -1.6166E-02 -1.8708E-02
      27-
 mid.  surface     2.5561E-02  2.7604E-02 -5.6444E-02 -3.3977E-04 -8.2560E-03 -6.3799E-03
      28-
 mid.  surface     1.2627E-02  1.3588E-02 -3.4254E-02 -1.3551E-03 -2.1805E-02 -1.3254E-02
      29-
 mid.  surface     2.2443E-02  1.0521E-02 -4.1467E-02 -1.2654E-03 -1.4769E-02 -1.2890E-02
      30-
 mid.  surface     2.2174E-02  1.9866E-02 -4.7752E-02  3.8969E-03 -2.8490E-02 -2.3717E-02
      31-
 mid.  surface     1.0587E-02  1.7001E-02 -3.3951E-02  5.4895E-04 -2.6600E-02 -1.0405E-02
      52-
 mid.  surface     3.5470E-02  3.3000E-02 -7.3304E-02  2.6483E-04  2.3991E-03 -1.1779E-03
      53-
 mid.  surface     2.9056E-02  3.4655E-02 -6.2731E-02  1.2528E-03  2.2290E-03  2.9961E-04
      54-
[...]
      31-
 mid.  surface     3.2289E-01  2.6293E-01 -5.6074E-01  5.0753E-02 -3.3343E-01 -9.0419E-02
      52-
 mid.  surface     3.9208E-01  3.7687E-01 -7.2516E-01  1.6856E-03 -1.1915E-02  4.6771E-02
      53-
 mid.  surface     4.0599E-01  3.8964E-01 -7.2749E-01  4.0946E-03  1.2146E-01  8.3013E-02
      54-
 mid.  surface     3.6812E-01  4.2422E-01 -8.0007E-01  1.1705E-03  7.5177E-02  1.7167E-01
      55-
 mid.  surface     3.7844E-01  3.0077E-01 -6.2643E-01 -6.7585E-03  3.3866E-01  1.6771E-01
      56-
 mid.  surface     2.9273E-01  4.2320E-01 -8.6520E-01  6.0021E-02 -6.0511E-01 -1.4919E-01
      57-
 mid.  surface     2.9279E-01  1.2627E-01 -5.2549E-01 -4.7548E-02 -1.1536E-01 -7.1037E-02
     124-
 mid.  surface     4.2420E-01  3.5599E-01 -7.6232E-01 -2.0492E-02  5.6656E-02  3.1175E-02
     125-
 mid.  surface     3.9751E-01  3.9991E-01 -7.5414E-01  2.0696E-02  3.3125E-02  4.6150E-02
     126-
 mid.  surface     3.6354E-01  2.9534E-01 -6.5812E-01 -2.1343E-02  7.3952E-02 -2.6109E-02
     127-
 mid.  surface     3.7122E-01  3.3461E-01 -6.7242E-01 -2.3418E-02 -1.2154E-02 -1.6688E-02
     128-
 mid.  surface     1.8028E-01  2.3082E-01 -3.9279E-01 -1.0071E-01 -1.0194E-01 -5.1205E-02
     129-
 mid.  surface     2.4107E-01  3.2407E-01 -4.8563E-01 -1.1730E-01 -2.6134E-01  7.1074E-02
     148-
 mid.  surface     4.0678E-01  4.4713E-01 -8.6016E-01  7.2671E-03  1.4748E-01  2.5848E-02
     149-
 mid.  surface     3.9890E-01  4.4854E-01 -6.4905E-01  4.2277E-03 -1.9191E-02  8.3159E-03
     150-
 mid.  surface     2.9402E-01  1.9721E-01 -4.1327E-01  1.6387E-03 -4.5139E-01 -1.9334E-01
     164-
 mid.  surface     4.1730E-01  4.1374E-01 -9.4572E-01  1.1636E-04  1.0836E-02 -2.7169E-02
     165-
 mid.  surface     4.2523E-01  6.6296E-01 -1.1044E+00 -5.8239E-03 -5.1177E-02  2.8241E-03
     166-
 mid.  surface     2.6149E-01  7.5806E-01 -9.9411E-01  4.0718E-02 -1.0938E+00 -2.1947E-01



 n o d a l  s t r e s s  c a l c u l a t i o n s   f o r   t i m e  s t e p      450   ( at time 9.89075E+01 )

 node (global)
          stress       sig-xx      sig-yy      sig-zz      sig-xy      sig-yz      sig-zx       plastic
                                                                                                 strain 
       1-
 mid.  surface     1.1388E+09  1.1627E+09  1.8989E+09  1.4166E+07  6.0485E+06  6.2278E+07  1.4773E+00
       2-
 mid.  surface     8.8925E+08  9.0502E+08  1.3917E+09  9.3640E+06  3.9983E+06  4.1168E+07  2.6403E+00
       8-
 mid.  surface    -8.6805E+08 -9.5478E+08  9.3246E+08  1.0133E+08 -1.5169E+07 -5.5719E+07 -1.8372E+00
       9-
 mid.  surface     8.6212E+08  8.6505E+08  6.7512E+08 -5.5036E+07  1.4379E+07  4.8006E+07  1.9046E+00
      10-
 mid.  surface    -4.9185E+08 -3.6227E+08  1.3101E+08 -5.2866E+07 -9.4437E+07 -2.1758E+07  4.5143E-01
      11-
 mid.  surface    -1.9637E+09 -1.7413E+09  2.8909E+08 -2.4680E+07 -1.0631E+08 -1.6638E+07 -1.9220E-01
      12-
 mid.  surface    -6.8563E+08 -6.9102E+08 -1.0558E+09 -7.2385E+06 -4.4240E+07  2.3667E+07 -7.3080E-01
      17-
 mid.  surface     1.7086E+09  1.7118E+09  5.5418E+08  3.0901E+06 -2.4485E+08 -1.6414E+07  2.6616E+00
      18-
 mid.  surface     1.1641E+09  1.2420E+09  7.3355E+07  3.7720E+07 -1.4510E+08 -6.3001E+07 -4.9033E-01
      19-
 mid.  surface     6.1251E+08  4.3065E+08 -1.4316E+09 -1.0050E+07 -3.1711E+07 -9.5767E+06  1.9761E+00
      20-
 mid.  surface     1.1617E+09  1.1391E+09  9.1867E+08  3.3641E+07  2.5858E+07  2.3373E+07  1.6273E+00
      21-
 mid.  surface     2.5190E+08  5.1284E+07 -2.4049E+09 -2.3709E+07 -4.1146E+07 -6.8479E+07  1.6815E+00
      22-
 mid.  surface    -8.4706E+08 -9.0557E+08 -1.8163E+09 -2.5909E+07 -1.0666E+07  4.7879E+06 -1.0504E+00
      23-
 mid.  surface    -1.3218E+09 -1.2097E+09  3.0671E+08  2.5159E+07  1.1799E+08  4.1648E+07 -3.3019E-01
      24-
 mid.  surface     8.0868E+08  7.6643E+08  7.5976E+08  3.1172E+07 -6.5683E+07 -2.2031E+07  1.0481E-01
      25-
 mid.  surface     3.4790E+06 -7.7386E+07 -7.0801E+08 -3.2570E+07  1.0116E+07 -7.3982E+07  1.0999E-02
      26-
 mid.  surface    -1.0916E+09 -1.1400E+09 -1.6873E+09 -9.9664E+06 -2.1209E+07 -2.0634E+07 -6.7310E-01
      27-
 mid.  surface    -9.5511E+08 -9.7365E+08 -7.5035E+08  1.9887E+07  3.3961E+07  4.4306E+07 -1.4318E-01
      28-
 mid.  surface     1.5338E+09  1.4485E+09  2.2222E+08  1.8424E+07 -2.7183E+08 -2.0458E+08  1.5278E+00
      29-
 mid.  surface     5.2716E+08  4.3009E+08  4.0123E+08 -4.1359E+07  3.8948E+07 -1.5494E+08  1.2426E+00
      30-
 mid.  surface    -1.6172E+09 -1.6408E+09 -2.8476E+09 -2.9942E+07 -5.7536E+07 -1.4414E+08  2.1437E+00
      31-
 mid.  surface     1.2745E+07 -2.0400E+07 -1.1485E+09 -8.2415E+06 -1.1092E+08 -6.7033E+07  1.7001E+00
      52-
 mid.  surface    -5.3110E+06  4.6502E+07  1.1249E+09 -3.0398E+07  1.9363E+08 -9.3265E+05 -1.8427E-01
      53-
 mid.  surface     4.1197E+08  4.5175E+08  1.1202E+09  7.8310E+06  1.1147E+08 -1.9431E+07 -5.9176E-01
      54-
 mid.  surface    -1.8291E+09 -1.8132E+09 -2.1856E+09  6.7499E+06 -1.4357E+07  5.5216E+07  8.2338E-01
      55-
 mid.  surface    -1.0356E+09 -1.0200E+09 -1.1588E+09  2.5681E+07  2.6461E+06  4.4528E+07  5.5767E-01
      56-
 mid.  surface    -1.6575E+08 -2.0645E+08 -1.4233E+09  8.3979E+06 -2.0938E+08  1.7542E+07  1.5894E+00
      57-
 mid.  surface     6.5167E+08  6.1760E+08 -7.5437E+08  2.1106E+07 -2.4280E+08 -3.4396E+07  1.3786E+00
     124-
 mid.  surface    -5.9093E+07 -6.3144E+07 -8.8401E+07 -1.9772E+05  2.2734E+06  8.1938E+06  1.3185E+00
     125-
 mid.  surface     5.1043E+08  5.2512E+08  1.1290E+09  1.2055E+07  8.7142E+06  6.6709E+07  2.3036E-01
     126-
 mid.  surface     5.9757E+08  6.1745E+08  8.5749E+08  1.8019E+07  1.2606E+07  6.2610E+07 -9.7307E-01
     127-
 mid.  surface     3.1272E+08  4.0375E+08  2.7113E+08  6.0173E+07 -4.3631E+07  1.0225E+08 -1.2723E+00
     128-
 mid.  surface     1.0479E+08  7.1265E+07  5.3191E+07 -4.8859E+07  4.4300E+07 -4.2234E+07 -4.6540E-02
     129-
 mid.  surface    -1.5994E+09 -1.4606E+09 -3.2235E+09  5.2134E+07 -1.5081E+08 -4.8170E+07  2.4761E-01
     148-
 mid.  surface     2.7790E+08  2.1105E+08  1.2181E+09  1.7243E+07  1.5119E+08 -3.7089E+07 -1.2118E+00
     149-
 mid.  surface    -1.3441E+09 -1.3031E+09 -1.1476E+09 -3.6700E+06  1.7995E+08  1.5210E+07  1.7002E-01
     150-
 mid.  surface     2.3442E+09  2.3293E+09  1.3294E+09  7.1521E+06 -1.6212E+08 -2.2445E+07  9.3494E-01
     164-
 mid.  surface     1.2022E+09  1.1468E+09  2.0769E+09 -5.5702E+07  1.7288E+08  7.0198E+06  7.5108E-02
     165-
 mid.  surface    -1.6792E+09 -1.6510E+09 -2.3742E+09 -1.2482E+07  3.6099E+07 -1.0518E+06  7.8018E-01
     166-
 mid.  surface     1.2359E+09  1.2121E+09 -1.6683E+08 -5.8699E+07 -1.5095E+08 -7.8266E+07  1.6069E+00



 n o d a l  s t r a i n  c a l c u l a t i o n s   f o r   t i m e  s t e p      450   ( at time 9.89075E+01 )

 node (global)
          strain       eps-xx      eps-yy      eps-zz      eps-xy      eps-yz      eps-zx       
       1-
 mid.  surface     4.1192E-01  4.5124E-01 -8.5599E-01  1.9697E-02 -5.8201E-03  7.5101E-02
       2-
 mid.  surface     4.6448E-01  3.9117E-01 -8.7339E-01 -4.2118E-02  3.2040E-02 -1.3075E-02
       8-
 mid.  surface     4.4204E-01  4.0445E-01 -8.6860E-01 -1.0136E-03 -7.9635E-02 -1.6467E-02
       9-
 mid.  surface     4.1482E-01  3.4782E-01 -9.0085E-01 -4.4650E-02 -5.8954E-02 -1.9004E-02
      10-
 mid.  surface     3.9802E-01  3.1532E-01 -7.1027E-01 -1.1932E-02 -1.4085E-01 -1.3448E-02
      11-
 mid.  surface     3.4426E-01  3.2241E-01 -6.3828E-01 -2.6029E-02 -5.5453E-02  1.5133E-02
      12-
 mid.  surface     4.0128E-01  4.6617E-01 -8.2576E-01  4.1685E-02 -7.9095E-02 -4.4544E-02
      17-
 mid.  surface     3.7151E-01  3.3603E-01 -7.3918E-01 -4.1875E-02 -4.5032E-02 -1.3508E-02
      18-
 mid.  surface     4.3296E-01  3.7430E-01 -7.4454E-01  3.2739E-02 -1.4621E-01 -4.5011E-02
      19-
 mid.  surface     4.2908E-01  4.0998E-01 -9.0868E-01 -1.0312E-02 -1.8775E-02 -5.9131E-02
      20-
 mid.  surface     4.0074E-01  3.3701E-01 -7.5206E-01 -4.0104E-02  5.2151E-02  4.6784E-02
      21-
 mid.  surface     4.2123E-01  3.7678E-01 -8.7842E-01  4.2015E-03  1.0936E-01 -4.9067E-02
      22-
 mid.  surface     3.9434E-01  4.3057E-01 -8.2459E-01  5.0177E-02  1.2989E-01  1.8846E-02
      23-
 mid.  surface     3.7085E-01  3.6755E-01 -7.3374E-01 -1.8340E-02  9.8863E-03  4.0760E-02
      24-
 mid.  surface     3.7761E-01  3.6788E-01 -6.2158E-01 -8.1837E-03  1.9718E-01  1.6310E-01
      25-
 mid.  surface     3.6431E-01  2.8284E-01 -7.3541E-01  3.8716E-03  2.5300E-01 -1.2384E-01
      26-
 mid.  surface     3.7182E-01  3.0742E-01 -7.2445E-01  1.8452E-03  1.3967E-01  1.5802E-02
      27-
 mid.  surface     3.7537E-01  3.5303E-01 -6.1524E-01  2.8578E-02  1.1091E-01  1.1047E-01
      28-
 mid.  surface     3.3766E-01  2.4503E-01 -5.5366E-01 -3.6976E-02  9.4232E-02  1.6051E-01
      29-
 mid.  surface     3.8145E-01  2.8604E-01 -6.9435E-01  6.6283E-02 -4.5301E-02 -1.6998E-01
      30-
 mid.  surface     3.7814E-01  3.2770E-01 -5.7404E-01  9.6414E-02 -3.0829E-01 -8.5232E-02
      31-
 mid.  surface     3.3437E-01  2.5848E-01 -5.5553E-01  5.0986E-02 -3.3821E-01 -6.8182E-02
      52-
 mid.  surface     4.0540E-01  3.8971E-01 -7.4737E-01  1.1688E-03 -1.5945E-02  4.2014E-02
      53-
 mid.  surface     4.2102E-01  4.0020E-01 -7.4728E-01  6.4445E-03  1.2194E-01  8.7649E-02
      54-
 mid.  surface     3.8103E-01  4.4586E-01 -8.3828E-01  1.5101E-03  7.6876E-02  1.7650E-01
      55-
 mid.  surface     3.9106E-01  3.2123E-01 -6.6486E-01 -5.5722E-03  3.6226E-01  1.8285E-01
      56-
 mid.  surface     3.0944E-01  4.4586E-01 -9.1018E-01  6.8807E-02 -6.1494E-01 -1.5895E-01
      57-
 mid.  surface     3.0649E-01  1.3634E-01 -5.5233E-01 -4.5070E-02 -1.3396E-01 -8.7770E-02
     124-
 mid.  surface     4.4350E-01  3.7050E-01 -8.1338E-01 -1.9996E-02  5.2087E-02  3.8191E-02
     125-
 mid.  surface     4.1491E-01  4.1115E-01 -7.7853E-01  2.0192E-02  3.0229E-02  6.3376E-02
     126-
 mid.  surface     3.7991E-01  3.0811E-01 -7.1262E-01 -2.1632E-02  7.4915E-02 -1.3630E-02
     127-
 mid.  surface     3.8217E-01  3.4635E-01 -7.0834E-01 -2.9780E-02 -1.4630E-02  4.1085E-04
     128-
 mid.  surface     2.0240E-01  2.4244E-01 -4.2508E-01 -9.4953E-02 -1.2681E-01 -6.6834E-02
     129-
 mid.  surface     2.5308E-01  3.4583E-01 -5.0662E-01 -1.1324E-01 -3.0201E-01  6.3552E-02
     148-
 mid.  surface     4.2232E-01  4.5869E-01 -8.9441E-01  8.4061E-03  1.5443E-01  2.9370E-02
     149-
 mid.  surface     4.1090E-01  4.6263E-01 -6.6624E-01  2.4258E-03 -1.0088E-02  1.1301E-02
     150-
 mid.  surface     3.0731E-01  1.8935E-01 -3.8975E-01  1.5114E-03 -4.6006E-01 -2.2255E-01
     164-
 mid.  surface     4.3214E-01  4.2886E-01 -9.8634E-01 -3.1743E-03  2.1525E-02 -3.1346E-02
     165-
 mid.  surface     4.4074E-01  6.8173E-01 -1.1390E+00 -6.7008E-03 -2.7237E-02  3.6620E-03
     166-
 mid.  surface     2.8028E-01  7.7309E-01 -1.0248E+00  4.6273E-02 -1.1085E+00 -2.4785E-01



 n o d a l  s t r e s s  c a l c u l a t i o n s   f o r   t i m e  s t e p      454   ( at time 1.00000E+02 )

 node (global)
          stress       sig-xx      sig-yy      sig-zz      sig-xy      sig-yz      sig-zx       plastic
                                                                                                 strain 
       1-
 mid.  surface     1.2891E+09  1.2768E+09  2.4335E+09  2.2968E+07  5.7186E+06  7.4065E+07  1.4684E+00
       2-
 mid.  surface     9.4665E+08  9.2934E+08  2.0375E+09  2.9206E+07  2.7257E+06  6.8224E+07  2.6342E+00
       8-
 mid.  surface    -5.0383E+08 -5.4370E+08  1.3255E+09  9.1029E+07  1.0768E+06 -5.9945E+07 -1.8568E+00
       9-
 mid.  surface    -6.9406E+06  4.2287E+06 -1.9177E+08 -4.9320E+07  2.1345E+07  5.0263E+07  1.9074E+00
      10-
 mid.  surface    -2.8098E+08 -1.5658E+08  6.2339E+08 -2.8703E+07 -9.5541E+07  2.1415E+05  4.4908E-01
      11-
 mid.  surface    -1.6040E+09 -1.4230E+09  3.9709E+08  4.5084E+07 -1.1139E+08 -1.0569E+07 -2.0169E-01
      12-
 mid.  surface    -3.2757E+08 -3.9186E+08 -1.2036E+09 -1.8458E+07 -5.0941E+07  3.7954E+07 -7.2749E-01
      17-
 mid.  surface     1.5086E+09  1.5012E+09 -1.3181E+08  1.0859E+07 -1.9180E+08 -1.1030E+07  2.6745E+00
      18-
 mid.  surface     1.5738E+09  1.6488E+09  6.6715E+08  3.7342E+07 -1.4649E+08 -6.3434E+07 -4.8184E-01
      19-
 mid.  surface     1.1084E+08 -3.4273E+07 -1.4236E+09 -3.8269E+07 -4.8360E+07  1.8995E+07  1.9870E+00
      20-
 mid.  surface     1.0938E+09  1.0862E+09  2.3022E+08  2.0097E+07  1.5344E+07 -4.1205E+07  1.6320E+00
      21-
 mid.  surface    -7.1431E+08 -8.1989E+08 -2.5912E+09 -3.4222E+07 -2.5173E+07 -5.4188E+07  1.6955E+00
      22-
 mid.  surface    -1.4479E+09 -1.4475E+09 -1.9095E+09 -1.6563E+07  2.2448E+07  9.1114E+05 -1.0475E+00
      23-
 mid.  surface    -1.1507E+09 -1.0618E+09 -4.2120E+07  4.3385E+07  1.2871E+08 -2.2358E+07 -3.3602E-01
      24-
 mid.  surface     7.2935E+08  7.3652E+08  5.0478E+08 -3.1996E+07 -3.1248E+07  5.2056E+07  1.0385E-01
      25-
 mid.  surface    -8.4572E+07 -1.5094E+08 -1.0317E+09 -3.2811E+07 -2.9720E+07 -6.8873E+07  1.3801E-02
      26-
 mid.  surface    -1.4046E+09 -1.4295E+09 -1.9583E+09 -1.0928E+07 -4.5183E+07 -5.2621E+07 -6.7059E-01
      27-
 mid.  surface    -7.4363E+08 -7.5979E+08 -1.0700E+09 -5.2088E+06  8.4663E+06 -1.8056E+06 -1.4002E-01
      28-
 mid.  surface     6.5488E+08  6.8760E+08  1.1900E+09 -9.2955E+06  1.2578E+07  9.1631E+07  1.5358E+00
      29-
 mid.  surface     3.1541E+08  2.8638E+08  1.0175E+09 -3.4748E+07  1.5069E+08  1.6187E+07  1.2414E+00
      30-
 mid.  surface    -1.9007E+09 -1.9278E+09 -2.6907E+09 -2.7109E+07 -2.7498E+07 -1.1765E+08  2.1593E+00
      31-
 mid.  surface    -5.4883E+07 -8.9829E+07 -3.9268E+08  5.4253E+06  3.4414E+07  4.8383E+07  1.7145E+00
      52-
 mid.  surface     7.9625E+07  9.6043E+07  1.2862E+09 -3.5843E+07  1.6862E+08  1.8917E+07 -1.9306E-01
      53-
 mid.  surface     7.8550E+08  8.0132E+08  1.0735E+09  1.7481E+06  8.5325E+07  7.2579E+06 -5.9899E-01
      54-
 mid.  surface    -1.7626E+09 -1.7761E+09 -2.5062E+09  2.7550E+07 -9.0230E+07 -2.9181E+06  8.2677E-01
      55-
 mid.  surface    -9.9467E+08 -9.5329E+08 -1.4353E+09  3.5404E+07 -8.1715E+07  4.5046E+07  5.5630E-01
      56-
 mid.  surface    -1.7732E+08 -2.9533E+08 -2.4959E+09  6.8222E+07 -3.4611E+08 -1.4570E+08  1.6040E+00
      57-
 mid.  surface     7.2504E+08  6.7087E+08 -1.4058E+09  6.9694E+07 -4.1518E+08 -1.4823E+08  1.3928E+00
     124-
 mid.  surface    -1.3425E+08 -1.3857E+08  3.5664E+07  7.4005E+06 -6.3464E+04  1.9864E+07  1.3189E+00
     125-
 mid.  surface     5.7414E+08  5.8034E+08  9.7718E+08 -4.5006E+06  7.5778E+06  4.5563E+07  2.2373E-01
     126-
 mid.  surface     8.2528E+08  8.5468E+08  1.0945E+09  2.3685E+07  2.1276E+07  5.2152E+07 -9.7651E-01
     127-
 mid.  surface     3.5838E+08  4.0372E+08  3.0466E+08  4.3125E+07 -5.1476E+07  6.7978E+07 -1.2730E+00
     128-
 mid.  surface     2.3763E+08  2.0031E+08  1.8381E+08 -3.7284E+07  3.6409E+07 -4.6823E+07 -4.5925E-02
     129-
 mid.  surface    -1.8478E+09 -1.8161E+09 -3.5148E+09  1.5739E+07 -1.9097E+08 -9.0102E+07  2.6644E-01
     148-
 mid.  surface     1.9969E+08  1.0933E+08  1.1255E+09  1.0735E+07  1.1563E+08 -3.8358E+07 -1.2227E+00
     149-
 mid.  surface    -7.8267E+08 -7.4452E+08 -7.4902E+08 -7.2958E+05  1.4680E+08  7.5126E+06  1.6945E-01
     150-
 mid.  surface     2.6174E+09  2.6277E+09  1.9119E+09  2.9684E+06 -1.1921E+08 -1.4021E+07  9.4439E-01
     164-
 mid.  surface     8.0024E+08  7.1993E+08  2.0582E+09 -6.9378E+07  1.7857E+08 -6.8309E+06  6.6238E-02
     165-
 mid.  surface    -1.8982E+09 -1.8659E+09 -2.0764E+09 -2.7125E+07  9.3753E+07  1.5406E+06  7.8610E-01
     166-
 mid.  surface     4.7669E+08  4.9329E+08 -4.8878E+08 -7.7811E+07 -7.4217E+07 -6.0524E+07  1.6157E+00



 n o d a l  s t r a i n  c a l c u l a t i o n s   f o r   t i m e  s t e p      454   ( at time 1.00000E+02 )

 node (global)
          strain       eps-xx      eps-yy      eps-zz      eps-xy      eps-yz      eps-zx       
       1-
 mid.  surface     4.1431E-01  4.5216E-01 -8.6220E-01  2.0322E-02 -7.2444E-03  7.4153E-02
       2-
 mid.  surface     4.6784E-01  3.9330E-01 -8.8572E-01 -4.1264E-02  2.9687E-02 -1.3430E-02
       8-
 mid.  surface     4.4386E-01  4.0571E-01 -8.7251E-01 -6.6768E-04 -7.9041E-02 -1.6059E-02
       9-
 mid.  surface     4.1596E-01  3.4686E-01 -9.0625E-01 -4.5430E-02 -5.8265E-02 -2.0071E-02
      10-
 mid.  surface     3.9887E-01  3.1471E-01 -7.1419E-01 -1.2658E-02 -1.4204E-01 -1.3738E-02
      11-
 mid.  surface     3.4545E-01  3.2159E-01 -6.4428E-01 -2.6465E-02 -5.5972E-02  1.5423E-02
      12-
 mid.  surface     4.0227E-01  4.6662E-01 -8.2379E-01  4.0919E-02 -8.0146E-02 -4.4999E-02
      17-
 mid.  surface     3.7272E-01  3.3675E-01 -7.4429E-01 -4.1529E-02 -4.5917E-02 -1.3413E-02
      18-
 mid.  surface     4.3425E-01  3.7623E-01 -7.4740E-01  3.3015E-02 -1.4804E-01 -4.4613E-02
      19-
 mid.  surface     4.3049E-01  4.1120E-01 -9.1085E-01 -1.0417E-02 -2.1292E-02 -5.9926E-02
      20-
 mid.  surface     4.0169E-01  3.3836E-01 -7.5466E-01 -3.9932E-02  5.1788E-02  4.6602E-02
      21-
 mid.  surface     4.2301E-01  3.7789E-01 -8.8388E-01  3.4645E-03  1.1454E-01 -4.3501E-02
      22-
 mid.  surface     3.9596E-01  4.3199E-01 -8.2910E-01  5.0052E-02  1.3048E-01  1.5315E-02
      23-
 mid.  surface     3.7204E-01  3.6839E-01 -7.3828E-01 -1.8737E-02  8.4386E-03  4.0179E-02
      24-
 mid.  surface     3.7826E-01  3.6863E-01 -6.2215E-01 -8.3571E-03  1.9756E-01  1.6310E-01
      25-
 mid.  surface     3.6688E-01  2.8346E-01 -7.4006E-01  4.0102E-03  2.5533E-01 -1.2466E-01
      26-
 mid.  surface     3.7399E-01  3.0814E-01 -7.2850E-01  1.5861E-03  1.3943E-01  1.8853E-02
      27-
 mid.  surface     3.7642E-01  3.5403E-01 -6.1558E-01  2.8892E-02  1.1236E-01  1.1030E-01
      28-
 mid.  surface     3.3879E-01  2.4433E-01 -5.5896E-01 -3.7630E-02  9.6127E-02  1.6283E-01
      29-
 mid.  surface     3.8339E-01  2.8718E-01 -6.9703E-01  6.6249E-02 -4.4074E-02 -1.6761E-01
      30-
 mid.  surface     3.7925E-01  3.2980E-01 -5.7316E-01  9.7299E-02 -3.1134E-01 -8.5101E-02
      31-
 mid.  surface     3.3530E-01  2.5885E-01 -5.5778E-01  5.1542E-02 -3.3653E-01 -6.4884E-02
      52-
 mid.  surface     4.0647E-01  3.9105E-01 -7.5187E-01  1.5518E-03 -2.0369E-02  4.0703E-02
      53-
 mid.  surface     4.2237E-01  4.0177E-01 -7.5209E-01  6.6903E-03  1.2477E-01  8.8841E-02
      54-
 mid.  surface     3.8176E-01  4.4842E-01 -8.4214E-01  1.2929E-03  8.0646E-02  1.7858E-01
      55-
 mid.  surface     3.9200E-01  3.2231E-01 -6.6773E-01 -5.5168E-03  3.6282E-01  1.8408E-01
      56-
 mid.  surface     3.1038E-01  4.4875E-01 -9.1525E-01  6.9171E-02 -6.1439E-01 -1.5742E-01
      57-
 mid.  surface     3.0774E-01  1.3478E-01 -5.5190E-01 -4.5472E-02 -1.3402E-01 -8.8367E-02
     124-
 mid.  surface     4.4499E-01  3.7235E-01 -8.1882E-01 -2.0432E-02  5.3718E-02  3.8642E-02
     125-
 mid.  surface     4.1559E-01  4.1237E-01 -7.8016E-01  1.9894E-02  3.3245E-02  6.4007E-02
     126-
 mid.  surface     3.8139E-01  3.0953E-01 -7.1607E-01 -2.2177E-02  7.2152E-02 -1.2054E-02
     127-
 mid.  surface     3.8323E-01  3.4832E-01 -7.1081E-01 -2.9830E-02 -1.8117E-02 -1.2551E-03
     128-
 mid.  surface     2.0386E-01  2.4349E-01 -4.2900E-01 -9.4782E-02 -1.2811E-01 -6.7583E-02
     129-
 mid.  surface     2.5364E-01  3.4824E-01 -5.0920E-01 -1.1352E-01 -3.0606E-01  6.3013E-02
     148-
 mid.  surface     4.2392E-01  4.5977E-01 -8.9944E-01  8.3484E-03  1.5659E-01  3.0623E-02
     149-
 mid.  surface     4.1222E-01  4.6322E-01 -6.6814E-01  2.4078E-03 -9.2197E-03  1.0152E-02
     150-
 mid.  surface     3.0878E-01  1.8677E-01 -3.8670E-01  1.4808E-03 -4.6356E-01 -2.2594E-01
     164-
 mid.  surface     4.3360E-01  4.2976E-01 -9.9058E-01 -3.2909E-03  1.7470E-02 -3.2224E-02
     165-
 mid.  surface     4.4231E-01  6.8442E-01 -1.1439E+00 -6.2940E-03 -2.3596E-02  4.0129E-03
     166-
 mid.  surface     2.8195E-01  7.7733E-01 -1.0349E+00  4.6512E-02 -1.1108E+00 -2.5033E-01
