 LS-DYNA keyword deck by LS-PrePost                                      
                    ls-dyna smp d R14 R14.1.1s_1_ef50e1 date 06/16/2024



 e l e m e n t   s t r e s s   c a l c u l a t i o n s   f o r   t i m e  s t e p        1   ( at time 0.00000E+00 )

 element  materl
     ipt  stress       sig-xx      sig-yy      sig-zz      sig-xy      sig-yz      sig-zx                       yield
           state                                                                                  effsg      function
      13-      1
       1          -1.9509E-06 -1.9509E-06 -1.9509E-06  0.0000E+00  0.0000E+00  0.0000E+00    0.0000E+00    0.0000E+00
      14-      1
       1          -5.8528E-06 -5.8528E-06 -5.8528E-06  0.0000E+00  0.0000E+00  0.0000E+00    0.0000E+00    0.0000E+00
      15-      1
       1          -1.9509E-06 -1.9509E-06 -1.9509E-06  0.0000E+00  0.0000E+00  0.0000E+00    0.0000E+00    0.0000E+00
      21-      1
       1           0.0000E+00  0.0000E+00  0.0000E+00  0.0000E+00  0.0000E+00  0.0000E+00    0.0000E+00    0.0000E+00
      22-      1
       1           0.0000E+00  0.0000E+00  0.0000E+00  0.0000E+00  0.0000E+00  0.0000E+00    0.0000E+00    0.0000E+00
      23-      1
       1          -1.9509E-06 -1.9509E-06 -1.9509E-06  0.0000E+00  0.0000E+00  0.0000E+00    0.0000E+00    0.0000E+00
      53-      1
       1          -1.9509E-06 -1.9509E-06 -1.9509E-06  0.0000E+00  0.0000E+00  0.0000E+00    0.0000E+00    0.0000E+00
      54-      1
       1           0.0000E+00  0.0000E+00  0.0000E+00  0.0000E+00  0.0000E+00  0.0000E+00    0.0000E+00    0.0000E+00
      55-      1
       1          -1.9509E-06 -1.9509E-06 -1.9509E-06  0.0000E+00  0.0000E+00  0.0000E+00    0.0000E+00    0.0000E+00
      93-      1
       1          -3.9019E-06 -3.9019E-06 -3.9019E-06  0.0000E+00  0.0000E+00  0.0000E+00    0.0000E+00    0.0000E+00
      94-      1
       1          -3.9019E-06 -3.9019E-06 -3.9019E-06  0.0000E+00  0.0000E+00  0.0000E+00    0.0000E+00    0.0000E+00
      95-      1
       1          -1.9509E-06 -1.9509E-06 -1.9509E-06  0.0000E+00  0.0000E+00  0.0000E+00    0.0000E+00    0.0000E+00



 e l e m e n t   s t r a i n   c a l c u l a t i o n s   f o r   t i m e  s t e p        1   ( at time  0.00000E+00 )

 element  strain       eps-xx      eps-yy      eps-zz      eps-xy      eps-yz      eps-zx                            yield
 num/ipt   state
      13-      1
      1            0.0000E+00  0.0000E+00  0.0000E+00  0.0000E+00  0.0000E+00  0.0000E+00
      14-      1
      1            0.0000E+00  0.0000E+00  0.0000E+00  0.0000E+00  0.0000E+00  0.0000E+00
      15-      1
      1            0.0000E+00  0.0000E+00  0.0000E+00  0.0000E+00  0.0000E+00  0.0000E+00
      21-      1
      1            0.0000E+00  0.0000E+00  0.0000E+00  0.0000E+00  0.0000E+00  0.0000E+00
      22-      1
      1            0.0000E+00  0.0000E+00  0.0000E+00  0.0000E+00  0.0000E+00  0.0000E+00
      23-      1
      1            0.0000E+00  0.0000E+00  0.0000E+00  0.0000E+00  0.0000E+00  0.0000E+00
      53-      1
      1            0.0000E+00  0.0000E+00  0.0000E+00  0.0000E+00  0.0000E+00  0.0000E+00
      54-      1
      1            0.0000E+00  0.0000E+00  0.0000E+00  0.0000E+00  0.0000E+00  0.0000E+00
      55-      1
      1            0.0000E+00  0.0000E+00  0.0000E+00  0.0000E+00  0.0000E+00  0.0000E+00
      93-      1
      1            0.0000E+00  0.0000E+00  0.0000E+00  0.0000E+00  0.0000E+00  0.0000E+00
      94-      1
      1            0.0000E+00  0.0000E+00  0.0000E+00  0.0000E+00  0.0000E+00  0.0000E+00
      95-      1
      1            0.0000E+00  0.0000E+00  0.0000E+00  0.0000E+00  0.0000E+00  0.0000E+00



 e l e m e n t   s t r e s s   c a l c u l a t i o n s   f o r   t i m e  s t e p       10   ( at time 1.29245E+00 )

 element  materl
     ipt  stress       sig-xx      sig-yy      sig-zz      sig-xy      sig-yz      sig-zx                       yield
           state                                                                                  effsg      function
      13-      1
       1          -2.5070E+07 -2.7637E+07 -2.7244E+08  1.1419E+07 -8.0167E+06 -1.1498E+07    2.4808E+08    9.0421E-05
      14-      1
       1          -2.2288E+07 -2.4127E+07 -2.5204E+08  7.7997E+06 -2.2417E+07 -3.2618E+07    2.3927E+08    2.8259E-05
      15-      1
       1          -2.3783E+07 -2.5334E+07 -2.1394E+08  2.3114E+06 -3.1463E+07 -4.7058E+07    2.1330E+08    0.0000E+00
      21-      1
       1          -2.8784E+07 -1.8943E+07 -2.7178E+08  9.5999E+06 -1.1026E+07 -7.7886E+06    2.4972E+08    8.2464E-05
      22-      1
       1          -2.6195E+07 -1.9902E+07 -2.5337E+08  6.8132E+06 -3.1246E+07 -2.2102E+07    2.4003E+08    2.2169E-05
      23-      1
       1          -2.7434E+07 -2.6494E+07 -2.1739E+08  2.7591E+06 -4.4980E+07 -3.1746E+07    2.1302E+08    0.0000E+00
      53-      1
       1          -1.6562E+07 -3.5208E+07 -2.7306E+08  6.0235E+06 -2.6240E+06 -1.3583E+07    2.4908E+08    7.6583E-05
      54-      1
       1          -1.6471E+07 -2.9936E+07 -2.4948E+08  3.9414E+06 -6.9913E+06 -3.7719E+07    2.3622E+08    3.8009E-05
      55-      1
       1          -1.9141E+07 -2.5637E+07 -2.1212E+08  9.3718E+05 -9.8982E+06 -5.4656E+07    2.1281E+08    0.0000E+00
      93-      1
       1          -3.2609E+07 -1.1974E+07 -2.7180E+08  3.1359E+06 -1.2154E+07 -2.2603E+06    2.5112E+08    6.3899E-05
      94-      1
       1          -3.0150E+07 -1.5707E+07 -2.5465E+08  2.4539E+06 -3.4388E+07 -6.5078E+06    2.3989E+08    1.5466E-05
      95-      1
       1          -3.0291E+07 -2.4582E+07 -2.2121E+08  1.5077E+06 -4.9922E+07 -9.8178E+06    2.1294E+08    0.0000E+00



 e l e m e n t   s t r a i n   c a l c u l a t i o n s   f o r   t i m e  s t e p       10   ( at time  1.29245E+00 )

 element  strain       eps-xx      eps-yy      eps-zz      eps-xy      eps-yz      eps-zx                            yield
 num/ipt   state
      13-      1
      1            1.1893E-03  1.1404E-03 -3.8750E-03  2.3290E-04 -1.7158E-04 -2.4075E-04
      14-      1
      1            1.0323E-03  9.9833E-04 -3.4489E-03  1.5281E-04 -4.4427E-04 -6.4100E-04
      15-      1
      1            8.0310E-04  7.7341E-04 -2.8262E-03  4.4100E-05 -6.0042E-04 -8.9802E-04
      21-      1
      1            1.0757E-03  1.2750E-03 -3.8693E-03  1.9492E-04 -2.3354E-04 -1.6229E-04
      22-      1
      1            9.5420E-04  1.0771E-03 -3.4543E-03  1.3307E-04 -6.1544E-04 -4.3110E-04
      23-      1
      1            7.7285E-04  7.9080E-04 -2.8524E-03  5.2701E-05 -8.5837E-04 -6.0583E-04
      53-      1
      1            1.3436E-03  9.7055E-04 -3.8581E-03  1.2129E-04 -5.1579E-05 -2.7683E-04
      54-      1
      1            1.1466E-03  8.8357E-04 -3.4362E-03  7.7286E-05 -1.3603E-04 -7.4360E-04
      55-      1
      1            8.6218E-04  7.3860E-04 -2.8213E-03  1.7784E-05 -1.8886E-04 -1.0430E-03
      93-      1
      1            9.6137E-04  1.3733E-03 -3.8385E-03  6.2366E-05 -2.4944E-04 -4.5894E-05
      94-      1
      1            8.7604E-04  1.1550E-03 -3.4591E-03  4.7473E-05 -6.6820E-04 -1.2596E-04
      95-      1
      1            7.4110E-04  8.5013E-04 -2.9026E-03  2.8813E-05 -9.5269E-04 -1.8735E-04



 e l e m e n t   s t r e s s   c a l c u l a t i o n s   f o r   t i m e  s t e p       18   ( at time 2.54839E+00 )

 element  materl
     ipt  stress       sig-xx      sig-yy      sig-zz      sig-xy      sig-yz      sig-zx                       yield
           state                                                                                  effsg      function
      13-      1
       1          -6.3486E+07 -5.5146E+07 -3.0779E+08 -2.1025E+06 -8.1916E+06 -1.1764E+07    2.4984E+08    9.5847E-03
      14-      1
       1          -3.6961E+07 -3.5827E+07 -2.8066E+08  2.5136E+06 -2.8346E+07 -4.0953E+07    2.5909E+08    5.2586E-03
      15-      1
       1          -2.5224E+07 -3.3827E+07 -2.3593E+08  4.4112E+06 -4.5525E+07 -6.9262E+07    2.5164E+08    1.8669E-03
      21-      1
       1          -4.1822E+07 -4.6787E+07 -3.0156E+08 -3.9936E+06 -1.2855E+07 -8.2555E+06    2.5874E+08    9.3587E-03
      22-      1
       1          -3.0224E+07 -3.2118E+07 -2.7982E+08  3.1660E+06 -4.3154E+07 -2.7762E+07    2.6412E+08    5.1068E-03
      23-      1
       1          -4.0454E+07 -4.0218E+07 -2.4600E+08  8.9549E+06 -6.6898E+07 -4.6035E+07    2.4965E+08    1.8518E-03
      53-      1
       1          -5.2257E+07 -4.5822E+07 -3.0534E+08  3.3388E+06 -2.1529E+06 -1.2715E+07    2.5739E+08    7.5166E-03
      54-      1
       1          -2.9597E+07 -3.5669E+07 -2.6300E+08  3.7803E+06 -7.6091E+06 -4.3156E+07    2.4269E+08    6.2675E-03
      55-      1
       1          -7.4151E+06 -2.6940E+07 -1.9063E+08  1.9286E+06 -1.2703E+07 -6.9500E+07    2.1298E+08    2.3076E-03
      93-      1
       1          -2.5975E+07 -3.3948E+07 -2.9831E+08 -2.3961E+06 -1.4648E+07 -2.6974E+06    2.6970E+08    8.4288E-03
      94-      1
       1          -3.2322E+07 -2.9988E+07 -2.8153E+08  2.2848E+06 -4.7530E+07 -8.8912E+06    2.6405E+08    4.8981E-03
      95-      1
       1          -4.8933E+07 -3.6858E+07 -2.4630E+08  6.1620E+06 -7.3073E+07 -1.4798E+07    2.4140E+08    1.9541E-03



 e l e m e n t   s t r a i n   c a l c u l a t i o n s   f o r   t i m e  s t e p       18   ( at time  2.54839E+00 )

 element  strain       eps-xx      eps-yy      eps-zz      eps-xy      eps-yz      eps-zx                            yield
 num/ipt   state
      13-      1
      1            6.2020E-03  6.9197E-03 -1.5244E-02 -1.7375E-04 -8.3848E-04 -1.0893E-03
      14-      1
      1            5.2181E-03  5.3530E-03 -1.2278E-02  1.7855E-04 -2.1589E-03 -2.9997E-03
      15-      1
      1            3.0945E-03  2.7350E-03 -7.2238E-03  2.3307E-04 -2.2320E-03 -3.4956E-03
      21-      1
      1            6.8773E-03  6.4525E-03 -1.5278E-02 -3.3216E-04 -1.1884E-03 -7.4045E-04
      22-      1
      1            5.3755E-03  5.2369E-03 -1.2265E-02  2.1243E-04 -3.1027E-03 -1.9889E-03
      23-      1
      1            2.8341E-03  2.8360E-03 -7.2153E-03  4.4192E-04 -3.3360E-03 -2.2738E-03
      53-      1
      1            6.4333E-03  6.9657E-03 -1.5407E-02  3.0267E-04 -1.6924E-04 -1.1787E-03
      54-      1
      1            5.4551E-03  5.0058E-03 -1.2062E-02  2.7067E-04 -4.6297E-04 -3.3198E-03
      55-      1
      1            3.3896E-03  2.3295E-03 -6.7906E-03  7.6622E-05 -4.7869E-04 -3.8857E-03
      93-      1
      1            7.1188E-03  6.4753E-03 -1.5391E-02 -1.9311E-04 -1.2264E-03 -2.2237E-04
      94-      1
      1            5.2379E-03  5.3851E-03 -1.2289E-02  1.5381E-04 -3.3320E-03 -6.2784E-04
      95-      1
      1            2.6129E-03  3.1671E-03 -7.3546E-03  3.1800E-04 -3.7877E-03 -7.6634E-04



 e l e m e n t   s t r e s s   c a l c u l a t i o n s   f o r   t i m e  s t e p       26   ( at time 3.80433E+00 )

 element  materl
     ipt  stress       sig-xx      sig-yy      sig-zz      sig-xy      sig-yz      sig-zx                       yield
           state                                                                                  effsg      function
      13-      1
       1          -7.6129E+07 -7.5649E+07 -3.3073E+08  4.0384E+06 -7.1917E+06 -8.9862E+06    2.5572E+08    1.8692E-02
      14-      1
       1          -3.1246E+07 -3.0656E+07 -2.9235E+08  3.4399E+06 -2.4867E+07 -3.4500E+07    2.7164E+08    1.3112E-02
      15-      1
       1          -1.4316E+07 -1.8702E+07 -2.4455E+08  1.1479E+06 -4.3509E+07 -6.4158E+07    2.6467E+08    8.0397E-03
      21-      1
       1          -5.2660E+07 -5.2355E+07 -3.1751E+08  2.3271E+06 -1.0851E+07 -5.9542E+06    2.6590E+08    1.8344E-02
      22-      1
       1          -2.3798E+07 -2.4500E+07 -2.8833E+08  3.7947E+06 -3.7635E+07 -2.2770E+07    2.7503E+08    1.2991E-02
      23-      1
       1          -3.0672E+07 -3.2711E+07 -2.5826E+08  4.4123E+06 -6.4196E+07 -4.3472E+07    2.6349E+08    8.0052E-03
      53-      1
       1          -5.6237E+07 -6.5010E+07 -3.2524E+08  5.8009E+06 -1.4187E+06 -9.1422E+06    2.6540E+08    1.6222E-02
      54-      1
       1          -2.0166E+07 -2.9240E+07 -2.7412E+08  3.9560E+06 -5.1153E+06 -3.5632E+07    2.5731E+08    1.4246E-02
      55-      1
       1           1.3353E+07  1.4554E+06 -2.0086E+08  6.7192E+05 -1.0638E+07 -6.6093E+07    2.3859E+08    8.5903E-03
      93-      1
       1          -3.0552E+07 -2.7136E+07 -3.0693E+08  9.1698E+05 -1.1241E+07 -1.9567E+06    2.7881E+08    1.7186E-02
      94-      1
       1          -2.9403E+07 -2.4146E+07 -2.9122E+08  2.7502E+06 -3.9482E+07 -7.4680E+06    2.7353E+08    1.2822E-02
      95-      1
       1          -4.2294E+07 -3.6614E+07 -2.6572E+08  3.7211E+06 -7.1185E+07 -1.4755E+07    2.5907E+08    7.9804E-03



 e l e m e n t   s t r a i n   c a l c u l a t i o n s   f o r   t i m e  s t e p       26   ( at time  3.80433E+00 )

 element  strain       eps-xx      eps-yy      eps-zz      eps-xy      eps-yz      eps-zx                            yield
 num/ipt   state
      13-      1
      1            1.0324E-02  1.0900E-02 -2.3661E-02  1.2801E-04 -1.1844E-03 -1.4865E-03
      14-      1
      1            9.0294E-03  9.1878E-03 -1.9972E-02  3.5176E-04 -3.1652E-03 -4.3458E-03
      15-      1
      1            5.9326E-03  5.4998E-03 -1.2767E-02  2.2605E-04 -3.6728E-03 -5.5730E-03
      21-      1
      1            1.1036E-02  1.0713E-02 -2.3904E-02 -1.0447E-04 -1.6829E-03 -9.8591E-04
      22-      1
      1            9.2582E-03  9.1152E-03 -2.0046E-02  3.9291E-04 -4.5969E-03 -2.8587E-03
      23-      1
      1            5.6421E-03  5.5326E-03 -1.2719E-02  5.1890E-04 -5.4471E-03 -3.7024E-03
      53-      1
      1            1.0883E-02  1.0705E-02 -2.3852E-02  6.1189E-04 -1.9262E-04 -1.5742E-03
      54-      1
      1            9.3895E-03  8.4977E-03 -1.9509E-02  4.4555E-04 -6.0520E-04 -4.7115E-03
      55-      1
      1            6.2477E-03  4.9159E-03 -1.2074E-02  8.2394E-05 -8.1025E-04 -6.0909E-03
      93-      1
      1            1.1315E-02  1.1046E-02 -2.4246E-02 -8.7423E-05 -1.6974E-03 -2.9860E-04
      94-      1
      1            8.9814E-03  9.4160E-03 -2.0114E-02  2.8294E-04 -4.8506E-03 -9.1389E-04
      95-      1
      1            5.2471E-03  5.8902E-03 -1.2794E-02  3.9921E-04 -6.0890E-03 -1.2528E-03



 e l e m e n t   s t r e s s   c a l c u l a t i o n s   f o r   t i m e  s t e p       34   ( at time 5.06028E+00 )

 element  materl
     ipt  stress       sig-xx      sig-yy      sig-zz      sig-xy      sig-yz      sig-zx                       yield
           state                                                                                  effsg      function
      13-      1
       1          -9.8306E+07 -9.7781E+07 -3.5621E+08  2.0844E+06 -6.5533E+06 -7.6488E+06    2.5878E+08    2.8476E-02
      14-      1
       1          -3.4245E+07 -3.2983E+07 -3.0315E+08  2.3294E+06 -2.2901E+07 -3.1527E+07    2.7789E+08    2.1520E-02
      15-      1
       1          -9.9996E+06 -1.2024E+07 -2.4792E+08  7.7414E+05 -4.1611E+07 -6.2086E+07    2.6998E+08    1.4592E-02
      21-      1
       1          -6.7874E+07 -6.9091E+07 -3.3575E+08  3.6240E+05 -9.9624E+06 -5.3389E+06    2.6799E+08    2.7996E-02
      22-      1
       1          -2.1834E+07 -2.3477E+07 -2.9561E+08  2.7067E+06 -3.5894E+07 -2.1150E+07    2.8237E+08    2.1333E-02
      23-      1
       1          -2.6397E+07 -2.9010E+07 -2.6206E+08  3.5996E+06 -6.3581E+07 -4.1465E+07    2.6879E+08    1.4578E-02
      53-      1
       1          -7.2190E+07 -7.7817E+07 -3.4577E+08  4.6659E+06 -8.0524E+05 -7.3025E+06    2.7123E+08    2.5689E-02
      54-      1
       1          -2.1274E+07 -2.8594E+07 -2.8264E+08  3.4329E+06 -3.6335E+06 -3.2282E+07    2.6392E+08    2.2827E-02
      55-      1
       1           2.7119E+07  1.6407E+07 -1.9628E+08  5.0736E+05 -9.0743E+06 -6.4462E+07    2.4565E+08    1.5419E-02
      93-      1
       1          -3.6546E+07 -3.7023E+07 -3.1912E+08 -1.9116E+04 -1.0160E+07 -1.7299E+06    2.8290E+08    2.6547E-02
      94-      1
       1          -2.6861E+07 -2.3920E+07 -2.9917E+08  2.5414E+06 -3.8035E+07 -6.9297E+06    2.8190E+08    2.1075E-02
      95-      1
       1          -3.9741E+07 -3.4807E+07 -2.7181E+08  3.1301E+06 -7.0776E+07 -1.4013E+07    2.6584E+08    1.4571E-02



 e l e m e n t   s t r a i n   c a l c u l a t i o n s   f o r   t i m e  s t e p       34   ( at time  5.06028E+00 )

 element  strain       eps-xx      eps-yy      eps-zz      eps-xy      eps-yz      eps-zx                            yield
 num/ipt   state
      13-      1
      1            1.4577E-02  1.5165E-02 -3.2565E-02  1.8725E-04 -1.4854E-03 -1.8381E-03
      14-      1
      1            1.3016E-02  1.3244E-02 -2.8136E-02  4.5234E-04 -4.1062E-03 -5.6346E-03
      15-      1
      1            8.8410E-03  8.3738E-03 -1.8534E-02  2.8012E-04 -5.0460E-03 -7.6488E-03
      21-      1
      1            1.5467E-02  1.5040E-02 -3.2959E-02 -1.2855E-04 -2.1459E-03 -1.2286E-03
      22-      1
      1            1.3363E-02  1.3141E-02 -2.8245E-02  5.0690E-04 -6.0791E-03 -3.7125E-03
      23-      1
      1            8.5377E-03  8.3440E-03 -1.8427E-02  6.5787E-04 -7.6110E-03 -5.0831E-03
      53-      1
      1            1.5407E-02  1.4997E-02 -3.2961E-02  8.1716E-04 -1.7546E-04 -1.9208E-03
      54-      1
      1            1.3461E-02  1.2262E-02 -2.7433E-02  5.9431E-04 -6.7401E-04 -6.0603E-03
      55-      1
      1            9.2539E-03  7.5239E-03 -1.7553E-02  1.0977E-04 -1.0685E-03 -8.3441E-03
      93-      1
      1            1.5926E-02  1.5557E-02 -3.3565E-02 -1.0579E-04 -2.1570E-03 -3.6960E-04
      94-      1
      1            1.2967E-02  1.3505E-02 -2.8262E-02  3.9551E-04 -6.4039E-03 -1.1855E-03
      95-      1
      1            7.9960E-03  8.8424E-03 -1.8526E-02  5.0780E-04 -8.5146E-03 -1.7210E-03



 e l e m e n t   s t r e s s   c a l c u l a t i o n s   f o r   t i m e  s t e p       42   ( at time 6.31622E+00 )

 element  materl
     ipt  stress       sig-xx      sig-yy      sig-zz      sig-xy      sig-yz      sig-zx                       yield
           state                                                                                  effsg      function
      13-      1
       1          -1.0624E+08 -1.0532E+08 -3.7249E+08  3.3172E+06 -4.9152E+06 -7.2857E+06    2.6720E+08    3.7450E-02
      14-      1
       1          -7.8597E+07 -8.0282E+07 -3.2119E+08  5.7696E+06 -1.6254E+07 -2.9256E+07    2.4881E+08    2.8746E-02
      15-      1
       1           2.4430E+06 -8.1644E+05 -2.4303E+08  2.5065E+06 -4.1714E+07 -6.1619E+07    2.7585E+08    2.1095E-02
      21-      1
       1          -8.0422E+07 -7.9808E+07 -3.5444E+08  1.9202E+06 -8.8072E+06 -5.4645E+06    2.7493E+08    3.6841E-02
      22-      1
       1          -1.8741E+07 -1.8677E+07 -2.9765E+08  5.7436E+06 -3.5439E+07 -2.0870E+07    2.8806E+08    2.9361E-02
      23-      1
       1          -2.1916E+07 -2.3944E+07 -2.6677E+08  3.3468E+06 -6.1797E+07 -3.9793E+07    2.7514E+08    2.1084E-02
      53-      1
       1          -7.6729E+07 -8.2224E+07 -3.5798E+08  4.2120E+06  1.1870E+05 -5.1674E+06    2.7878E+08    3.4275E-02
      54-      1
       1          -5.8455E+07 -6.5701E+07 -2.9778E+08  4.9797E+06  5.4916E+06 -2.6165E+07    2.4044E+08    3.0125E-02
      55-      1
       1          -9.0951E+06 -2.0373E+07 -2.1624E+08 -3.1518E+04 -1.5906E+06 -5.8627E+07    2.2587E+08    2.1371E-02
      93-      1
       1          -4.4902E+07 -4.2475E+07 -3.3065E+08  1.7155E+05 -9.1940E+06 -1.4094E+06    2.8743E+08    3.5195E-02
      94-      1
       1          -3.0757E+07 -2.5204E+07 -3.0897E+08  2.8524E+06 -3.5521E+07 -6.0850E+06    2.8792E+08    2.8976E-02
      95-      1
       1          -3.5700E+07 -2.9782E+07 -2.7766E+08  2.8753E+06 -6.9628E+07 -1.2673E+07    2.7397E+08    2.1168E-02



 e l e m e n t   s t r a i n   c a l c u l a t i o n s   f o r   t i m e  s t e p       42   ( at time  6.31622E+00 )

 element  strain       eps-xx      eps-yy      eps-zz      eps-xy      eps-yz      eps-zx                            yield
 num/ipt   state
      13-      1
      1            1.8612E-02  1.9230E-02 -4.0865E-02  3.5212E-04 -1.6197E-03 -2.1353E-03
      14-      1
      1            1.7075E-02  1.7246E-02 -3.6118E-02  8.3493E-04 -5.1180E-03 -7.0243E-03
      15-      1
      1            1.1829E-02  1.1208E-02 -2.4245E-02  4.3497E-04 -6.3964E-03 -9.6973E-03
      21-      1
      1            1.9528E-02  1.9150E-02 -4.1378E-02 -1.4777E-05 -2.4936E-03 -1.4598E-03
      22-      1
      1            1.7257E-02  1.7083E-02 -3.6098E-02  8.1985E-04 -7.4771E-03 -4.5381E-03
      23-      1
      1            1.1445E-02  1.1217E-02 -2.4211E-02  7.9407E-04 -9.6190E-03 -6.3647E-03
      53-      1
      1            1.9619E-02  1.8963E-02 -4.1288E-02  9.8771E-04 -1.1729E-04 -2.1197E-03
      54-      1
      1            1.7584E-02  1.6143E-02 -3.5332E-02  9.0830E-04 -8.1397E-04 -7.3089E-03
      55-      1
      1            1.2417E-02  1.0406E-02 -2.3252E-02  2.4679E-04 -1.5987E-03 -1.0622E-02
      93-      1
      1            2.0055E-02  1.9846E-02 -4.2157E-02 -9.4584E-05 -2.5298E-03 -4.1712E-04
      94-      1
      1            1.6679E-02  1.7511E-02 -3.6097E-02  5.2362E-04 -7.7491E-03 -1.3966E-03
      95-      1
      1            1.0800E-02  1.1916E-02 -2.4416E-02  6.1161E-04 -1.0831E-02 -2.1172E-03



 e l e m e n t   s t r e s s   c a l c u l a t i o n s   f o r   t i m e  s t e p       50   ( at time 7.57216E+00 )

 element  materl
     ipt  stress       sig-xx      sig-yy      sig-zz      sig-xy      sig-yz      sig-zx                       yield
           state                                                                                  effsg      function
      13-      1
       1          -8.0362E+07 -7.8590E+07 -3.5685E+08  4.4132E+06 -4.1757E+06 -3.4269E+06    2.7765E+08    4.6771E-02
      14-      1
       1          -9.5161E+07 -1.0194E+08 -3.1004E+08  3.9890E+06 -1.2700E+07 -2.0790E+07    2.1584E+08    3.5498E-02
      15-      1
       1          -1.0210E+08 -9.9448E+07 -2.8174E+08 -3.2943E+06 -4.1434E+07 -4.2816E+07    2.0841E+08    2.6201E-02
      21-      1
       1          -8.2442E+07 -8.0568E+07 -3.6059E+08  1.4068E+06 -5.2695E+06 -5.7870E+06    2.7943E+08    4.6217E-02
      22-      1
       1          -6.6289E+07 -6.3129E+07 -3.1393E+08  2.6966E+06 -2.7829E+07 -1.7876E+07    2.5578E+08    3.6676E-02
      23-      1
       1          -2.2559E+07 -2.5158E+07 -2.7107E+08  1.8936E+06 -6.1079E+07 -3.8879E+07    2.7723E+08    2.7784E-02
      53-      1
       1          -8.2077E+07 -8.8943E+07 -3.7186E+08  4.3292E+06 -4.1580E+05 -2.9955E+06    2.8656E+08    4.3013E-02
      54-      1
       1          -4.7219E+07 -6.0537E+07 -2.9719E+08  5.7630E+06  4.6104E+06 -2.0420E+07    2.4647E+08    3.7723E-02
      55-      1
       1          -1.0404E+08 -1.1613E+08 -2.5546E+08 -2.8075E+06 -2.8792E+06 -4.4337E+07    1.6489E+08    2.6002E-02
      93-      1
       1          -5.2967E+07 -4.9227E+07 -3.4118E+08 -8.2380E+05 -7.5040E+06 -2.3204E+06    2.9042E+08    4.4293E-02
      94-      1
       1          -3.2914E+07 -2.3129E+07 -3.1464E+08  2.4015E+06 -3.3270E+07 -6.1159E+06    2.9270E+08    3.7079E-02
      95-      1
       1          -3.3592E+07 -2.6020E+07 -2.8288E+08  2.8054E+06 -6.7855E+07 -1.1915E+07    2.7992E+08    2.7848E-02



 e l e m e n t   s t r a i n   c a l c u l a t i o n s   f o r   t i m e  s t e p       50   ( at time  7.57216E+00 )

 element  strain       eps-xx      eps-yy      eps-zz      eps-xy      eps-yz      eps-zx                            yield
 num/ipt   state
      13-      1
      1            2.3042E-02  2.3747E-02 -4.9546E-02  5.7468E-04 -1.6807E-03 -2.1770E-03
      14-      1
      1            2.1936E-02  2.1916E-02 -4.4559E-02  1.1212E-03 -6.2271E-03 -8.5577E-03
      15-      1
      1            1.5160E-02  1.4310E-02 -3.0084E-02  3.7096E-04 -7.7927E-03 -1.2135E-02
      21-      1
      1            2.3849E-02  2.3570E-02 -5.0217E-02  4.3012E-05 -2.6078E-03 -1.7045E-03
      22-      1
      1            2.1300E-02  2.1405E-02 -4.4278E-02  1.0030E-03 -8.8697E-03 -5.5454E-03
      23-      1
      1            1.4393E-02  1.4105E-02 -3.0103E-02  8.7162E-04 -1.1614E-02 -7.6333E-03
      53-      1
      1            2.3991E-02  2.2995E-02 -4.9868E-02  1.1757E-03 -1.0459E-04 -2.2249E-03
      54-      1
      1            2.2166E-02  1.9968E-02 -4.3657E-02  1.2341E-03 -1.0448E-03 -8.2445E-03
      55-      1
      1            1.6336E-02  1.3377E-02 -2.9385E-02  3.4650E-04 -2.2682E-03 -1.3318E-02
      93-      1
      1            2.4351E-02  2.4334E-02 -5.1118E-02 -1.5110E-04 -2.8216E-03 -5.2006E-04
      94-      1
      1            2.0402E-02  2.1746E-02 -4.4129E-02  6.1991E-04 -8.9835E-03 -1.6206E-03
      95-      1
      1            1.3634E-02  1.5118E-02 -3.0477E-02  7.1867E-04 -1.3013E-02 -2.4911E-03



 e l e m e n t   s t r e s s   c a l c u l a t i o n s   f o r   t i m e  s t e p       58   ( at time 8.82811E+00 )

 element  materl
     ipt  stress       sig-xx      sig-yy      sig-zz      sig-xy      sig-yz      sig-zx                       yield
           state                                                                                  effsg      function
      13-      1
       1          -6.5794E+07 -6.3091E+07 -3.4898E+08  3.6707E+06 -3.1961E+06 -4.1036E+05    2.8467E+08    5.6426E-02
      14-      1
       1          -2.2534E+08 -2.3064E+08 -3.7355E+08 -4.3819E+06 -2.6927E+06 -7.9684E+06    1.4656E+08    3.9796E-02
      15-      1
       1          -1.0751E+08 -1.0745E+08 -2.9007E+08 -3.3170E+06 -4.1714E+07 -4.4200E+07    2.1084E+08    3.1421E-02
      21-      1
       1          -8.2703E+07 -8.3143E+07 -3.6570E+08  9.0674E+05 -2.7192E+06 -4.1475E+06    2.8291E+08    5.5889E-02
      22-      1
       1          -1.2971E+08 -1.3035E+08 -3.4811E+08  3.5939E+05 -2.1719E+07 -1.3261E+07    2.2249E+08    4.3052E-02
      23-      1
       1          -1.7497E+07 -1.9992E+07 -2.6777E+08  8.8861E+05 -6.0399E+07 -4.0958E+07    2.7928E+08    3.4758E-02
      53-      1
       1          -9.2759E+07 -9.7390E+07 -3.8646E+08  5.8239E+06 -1.1765E+06 -1.2474E+05    2.9160E+08    5.1882E-02
      54-      1
       1          -6.2485E+07 -6.6993E+07 -3.1165E+08  7.5624E+06  3.4562E+06 -1.6462E+07    2.4900E+08    4.5140E-02
      55-      1
       1          -9.3357E+07 -1.0482E+08 -2.5269E+08 -4.2292E+06 -1.5346E+06 -3.9977E+07    1.6895E+08    3.0954E-02
      93-      1
       1          -5.9252E+07 -5.8271E+07 -3.5074E+08 -1.4322E+06 -5.0286E+06 -2.2244E+06    2.9214E+08    5.3636E-02
      94-      1
       1          -3.3689E+07 -2.6307E+07 -3.2216E+08  1.2016E+06 -2.9894E+07 -6.3513E+06    2.9700E+08    4.5427E-02
      95-      1
       1          -2.9701E+07 -2.2649E+07 -2.8268E+08  6.1763E+05 -6.8290E+07 -1.1777E+07    2.8326E+08    3.4834E-02



 e l e m e n t   s t r a i n   c a l c u l a t i o n s   f o r   t i m e  s t e p       58   ( at time  8.82811E+00 )

 element  strain       eps-xx      eps-yy      eps-zz      eps-xy      eps-yz      eps-zx                            yield
 num/ipt   state
      13-      1
      1            2.7578E-02  2.8417E-02 -5.8632E-02  7.3180E-04 -1.7240E-03 -2.1294E-03
      14-      1
      1            2.6539E-02  2.6551E-02 -5.3003E-02  1.0872E-03 -7.2636E-03 -9.7527E-03
      15-      1
      1            1.8394E-02  1.7338E-02 -3.6196E-02  2.0461E-04 -9.1266E-03 -1.4412E-02
      21-      1
      1            2.8385E-02  2.8019E-02 -5.9300E-02  8.0921E-05 -2.5930E-03 -1.8463E-03
      22-      1
      1            2.5718E-02  2.5668E-02 -5.2741E-02  1.1690E-03 -1.0038E-02 -6.5925E-03
      23-      1
      1            1.7465E-02  1.7144E-02 -3.6176E-02  9.4084E-04 -1.3577E-02 -9.0286E-03
      53-      1
      1            2.8320E-02  2.7162E-02 -5.8576E-02  1.4563E-03 -1.6326E-04 -2.1983E-03
      54-      1
      1            2.6139E-02  2.4037E-02 -5.1749E-02  1.7128E-03 -1.3844E-03 -8.9512E-03
      55-      1
      1            2.0083E-02  1.6806E-02 -3.6089E-02  3.6128E-04 -2.7468E-03 -1.5594E-02
      93-      1
      1            2.8821E-02  2.8790E-02 -6.0222E-02 -2.2946E-04 -2.9861E-03 -6.0009E-04
      94-      1
      1            2.4363E-02  2.6000E-02 -5.2448E-02  6.5604E-04 -1.0054E-02 -1.8513E-03
      95-      1
      1            1.6606E-02  1.8440E-02 -3.6764E-02  7.1678E-04 -1.5253E-02 -2.8739E-03



 e l e m e n t   s t r e s s   c a l c u l a t i o n s   f o r   t i m e  s t e p       66   ( at time 1.00840E+01 )

 element  materl
     ipt  stress       sig-xx      sig-yy      sig-zz      sig-xy      sig-yz      sig-zx                       yield
           state                                                                                  effsg      function
      13-      1
       1          -7.1762E+07 -6.8215E+07 -3.5964E+08  1.7038E+06 -2.4638E+06  4.2142E+06    2.8981E+08    6.6778E-02
      14-      1
       1          -2.1741E+08 -2.2546E+08 -3.7004E+08 -4.0076E+06 -4.1392E+05 -6.8991E+06    1.4942E+08    4.4631E-02
      15-      1
       1          -1.0138E+08 -1.0173E+08 -2.8590E+08 -3.7525E+06 -4.2779E+07 -4.7164E+07    2.1492E+08    3.7178E-02
      21-      1
       1          -6.5228E+07 -6.8876E+07 -3.5286E+08 -4.2219E+05 -1.6480E+06 -8.1808E+05    2.8584E+08    6.6314E-02
      22-      1
       1          -1.2139E+08 -1.2410E+08 -3.4369E+08 -1.4879E+06 -2.2206E+07 -1.3632E+07    2.2554E+08    4.9840E-02
      23-      1
       1          -1.3769E+07 -1.5267E+07 -2.6410E+08 -1.0336E+06 -6.2363E+07 -4.2358E+07    2.8168E+08    4.2239E-02
      53-      1
       1          -1.2019E+07 -1.6768E+07 -3.1226E+08  5.0492E+06 -6.0814E+05 -3.2187E+05    2.9803E+08    6.2996E-02
      54-      1
       1          -6.9863E+07 -7.3165E+07 -2.8697E+08  3.8479E+06  3.0658E+06 -1.7592E+07    2.1779E+08    5.2433E-02
      55-      1
       1          -9.8714E+07 -1.0699E+08 -2.5457E+08 -2.3426E+06  8.0752E+04 -4.4276E+07    1.7020E+08    3.5787E-02
      93-      1
       1          -6.6157E+07 -6.9402E+07 -3.5962E+08 -1.9826E+06 -2.3851E+06 -1.6277E+06    2.9192E+08    6.3601E-02
      94-      1
       1          -2.9512E+07 -2.5038E+07 -3.2375E+08  4.0745E+05 -2.9328E+07 -6.7531E+06    3.0104E+08    5.4134E-02
      95-      1
       1          -2.4418E+07 -1.7735E+07 -2.7896E+08  1.4854E+06 -7.0135E+07 -1.3190E+07    2.8605E+08    4.2256E-02



 e l e m e n t   s t r a i n   c a l c u l a t i o n s   f o r   t i m e  s t e p       66   ( at time  1.00840E+01 )

 element  strain       eps-xx      eps-yy      eps-zz      eps-xy      eps-yz      eps-zx                            yield
 num/ipt   state
      13-      1
      1            3.2318E-02  3.3355E-02 -6.8484E-02  7.7695E-04 -1.6988E-03 -1.8404E-03
      14-      1
      1            3.1535E-02  3.1523E-02 -6.2328E-02  8.8157E-04 -7.7864E-03 -1.0685E-02
      15-      1
      1            2.2343E-02  2.0924E-02 -4.2770E-02  2.1074E-04 -1.0625E-02 -1.7244E-02
      21-      1
      1            3.3421E-02  3.2779E-02 -6.8956E-02  4.0213E-05 -2.4840E-03 -1.8102E-03
      22-      1
      1            3.0553E-02  3.0371E-02 -6.1606E-02  1.1930E-03 -1.1235E-02 -7.6342E-03
      23-      1
      1            2.0695E-02  2.0436E-02 -4.2666E-02  9.5534E-04 -1.5669E-02 -1.0490E-02
      53-      1
      1            3.4256E-02  3.2798E-02 -6.9122E-02  1.7061E-03 -7.5965E-05 -2.2588E-03
      54-      1
      1            3.1221E-02  2.8952E-02 -6.0847E-02  1.9337E-03 -1.2081E-03 -9.8557E-03
      55-      1
      1            2.3984E-02  2.0305E-02 -4.2388E-02  4.8468E-04 -3.1657E-03 -1.8636E-02
      93-      1
      1            3.3618E-02  3.3339E-02 -6.9762E-02 -3.3873E-04 -2.9783E-03 -6.3415E-04
      94-      1
      1            2.8584E-02  3.0413E-02 -6.1115E-02  6.7079E-04 -1.1069E-02 -2.0966E-03
      95-      1
      1            1.9737E-02  2.1985E-02 -4.3403E-02  8.1596E-04 -1.7591E-02 -3.3467E-03



 e l e m e n t   s t r e s s   c a l c u l a t i o n s   f o r   t i m e  s t e p       74   ( at time 1.13400E+01 )

 element  materl
     ipt  stress       sig-xx      sig-yy      sig-zz      sig-xy      sig-yz      sig-zx                       yield
           state                                                                                  effsg      function
      13-      1
       1          -8.5246E+07 -7.8571E+07 -3.7695E+08 -6.6445E+06 -3.9171E+06  4.2025E+06    2.9549E+08    7.6547E-02
      14-      1
       1          -2.0868E+08 -2.1590E+08 -3.6299E+08 -6.1384E+05  3.8383E+06 -6.2305E+06    1.5137E+08    4.9633E-02
      15-      1
       1          -2.1752E+08 -2.2146E+08 -3.3120E+08  5.3638E+05 -3.6569E+07 -4.0348E+07    1.4625E+08    4.1196E-02
      21-      1
       1          -4.3038E+07 -5.3419E+07 -3.3799E+08 -6.8307E+06 -1.7449E+06 -1.4172E+06    2.9017E+08    7.6769E-02
      22-      1
       1          -2.3723E+08 -2.3912E+08 -3.8659E+08 -1.7887E+06 -1.2276E+07 -1.1420E+07    1.5128E+08    5.4435E-02
      23-      1
       1          -2.4319E+06 -2.0152E+06 -2.5352E+08 -8.8268E+05 -6.3575E+07 -4.3847E+07    2.8469E+08    4.9812E-02
      53-      1
       1          -1.2137E+07  1.4383E+06 -3.0793E+08 -2.0689E+06 -5.4118E+05  2.2977E+05    3.0283E+08    7.2602E-02
      54-      1
       1          -4.8675E+07 -5.0219E+07 -2.7007E+08  2.2568E+06  5.0962E+06 -1.1919E+07    2.2180E+08    5.9713E-02
      55-      1
       1          -1.2178E+08 -1.3291E+08 -2.5314E+08 -7.3616E+06 -1.1261E+07 -3.0521E+07    1.3877E+08    4.0173E-02
      93-      1
       1          -7.0703E+07 -7.8160E+07 -3.6730E+08 -2.1920E+06 -1.0424E+06 -3.5733E+06    2.9303E+08    7.3824E-02
      94-      1
       1          -2.2303E+07 -2.0705E+07 -3.2156E+08  1.7853E+06 -2.7343E+07 -6.8811E+06    3.0403E+08    6.3239E-02
      95-      1
       1          -1.7331E+07 -1.3902E+07 -2.7586E+08 -6.1189E+04 -6.9311E+07 -1.5481E+07    2.8786E+08    4.9793E-02



 e l e m e n t   s t r a i n   c a l c u l a t i o n s   f o r   t i m e  s t e p       74   ( at time  1.13400E+01 )

 element  strain       eps-xx      eps-yy      eps-zz      eps-xy      eps-yz      eps-zx                            yield
 num/ipt   state
      13-      1
      1            3.6705E-02  3.8104E-02 -7.7879E-02  3.0329E-04 -1.7917E-03 -1.5842E-03
      14-      1
      1            3.6411E-02  3.6423E-02 -7.1895E-02  7.2167E-04 -8.1346E-03 -1.1300E-02
      15-      1
      1            2.6786E-02  2.4562E-02 -4.9660E-02  6.3407E-04 -1.2266E-02 -2.0136E-02
      21-      1
      1            3.8687E-02  3.7384E-02 -7.8649E-02 -4.2055E-04 -2.4139E-03 -1.8242E-03
      22-      1
      1            3.5566E-02  3.5260E-02 -7.0782E-02  1.0087E-03 -1.2417E-02 -8.4098E-03
      23-      1
      1            2.3966E-02  2.3867E-02 -4.9226E-02  1.0460E-03 -1.7722E-02 -1.1935E-02
      53-      1
      1            3.8501E-02  3.8013E-02 -7.8541E-02  1.4759E-03 -1.7005E-05 -2.1781E-03
      54-      1
      1            3.5946E-02  3.3786E-02 -7.0071E-02  2.0149E-03 -1.0369E-03 -1.0268E-02
      55-      1
      1            2.8836E-02  2.4436E-02 -4.9449E-02  3.6708E-04 -3.7811E-03 -2.1700E-02
      93-      1
      1            3.8606E-02  3.7875E-02 -7.9454E-02 -4.5088E-04 -2.9179E-03 -8.0823E-04
      94-      1
      1            3.3061E-02  3.4978E-02 -7.0149E-02  7.9140E-04 -1.1959E-02 -2.3669E-03
      95-      1
      1            2.3008E-02  2.5535E-02 -5.0184E-02  8.2552E-04 -1.9753E-02 -3.8933E-03



 e l e m e n t   s t r e s s   c a l c u l a t i o n s   f o r   t i m e  s t e p       82   ( at time 1.25959E+01 )

 element  materl
     ipt  stress       sig-xx      sig-yy      sig-zz      sig-xy      sig-yz      sig-zx                       yield
           state                                                                                  effsg      function
      13-      1
       1          -9.6113E+07 -8.3697E+07 -3.8692E+08 -1.2479E+07 -3.3332E+06  2.5316E+06    2.9808E+08    8.6192E-02
      14-      1
       1          -1.9046E+08 -2.0019E+08 -3.4715E+08  5.5394E+05  3.6808E+06 -3.8107E+06    1.5234E+08    5.4655E-02
      15-      1
       1          -2.1700E+08 -2.2357E+08 -3.3495E+08  2.3771E+06 -3.3187E+07 -4.1422E+07    1.4714E+08    4.5764E-02
      21-      1
       1          -4.2200E+07 -5.6002E+07 -3.4067E+08 -1.2426E+07 -4.8355E+06  1.0642E+06    2.9274E+08    8.7444E-02
      22-      1
       1          -2.3731E+08 -2.3566E+08 -3.8651E+08 -1.9744E+06 -8.6649E+06 -1.0435E+07    1.5190E+08    5.9332E-02
      23-      1
       1          -9.4236E+07 -9.5020E+07 -2.7383E+08 -6.8660E+05 -5.9478E+07 -3.2041E+07    2.1403E+08    5.5948E-02
      53-      1
       1          -1.4094E+07  7.0498E+06 -3.0946E+08  3.6906E+05  1.3344E+06  2.4900E+04    3.0649E+08    8.2077E-02
      54-      1
       1          -8.2823E+07 -8.9513E+07 -2.7153E+08  3.0438E+06  1.0349E+07 -9.3027E+06    1.8708E+08    6.5572E-02
      55-      1
       1          -1.1053E+08 -1.2306E+08 -2.4890E+08 -4.6081E+06 -6.7324E+06 -2.5684E+07    1.4053E+08    4.4383E-02
      93-      1
       1          -4.9266E+07 -7.0645E+07 -3.5392E+08 -4.9053E+06 -2.4437E+06 -1.6322E+06    2.9471E+08    8.5052E-02
      94-      1
       1          -1.7221E+08 -1.7489E+08 -3.6296E+08 -3.1359E+06 -1.5249E+07 -5.3255E+06    1.9156E+08    6.9332E-02
      95-      1
       1          -1.2755E+07 -7.6358E+06 -2.6809E+08 -1.4968E+06 -7.1281E+07 -1.5285E+07    2.8719E+08    5.7328E-02



 e l e m e n t   s t r a i n   c a l c u l a t i o n s   f o r   t i m e  s t e p       82   ( at time  1.25959E+01 )

 element  strain       eps-xx      eps-yy      eps-zz      eps-xy      eps-yz      eps-zx                            yield
 num/ipt   state
      13-      1
      1            4.0861E-02  4.2929E-02 -8.7046E-02 -3.8417E-04 -1.7690E-03 -1.3543E-03
      14-      1
      1            4.1324E-02  4.1113E-02 -8.1336E-02  5.9009E-04 -8.5677E-03 -1.1554E-02
      15-      1
      1            3.1892E-02  2.8711E-02 -5.7509E-02  1.2597E-03 -1.3761E-02 -2.3264E-02
      21-      1
      1            4.3969E-02  4.1914E-02 -8.8557E-02 -1.1417E-03 -2.5114E-03 -1.5620E-03
      22-      1
      1            4.0385E-02  4.0640E-02 -8.0275E-02  6.4332E-04 -1.3566E-02 -8.7223E-03
      23-      1
      1            2.7598E-02  2.7862E-02 -5.6393E-02  1.2972E-03 -1.9804E-02 -1.3541E-02
      53-      1
      1            4.2585E-02  4.3180E-02 -8.7845E-02  1.5432E-03  1.7361E-04 -2.0903E-03
      54-      1
      1            4.0465E-02  3.8360E-02 -7.9027E-02  2.2332E-03 -9.9285E-04 -1.0691E-02
      55-      1
      1            3.3492E-02  2.8168E-02 -5.6607E-02  7.2969E-04 -4.2923E-03 -2.4181E-02
      93-      1
      1            4.4588E-02  4.2460E-02 -8.9906E-02 -7.5965E-04 -2.8352E-03 -8.1836E-04
      94-      1
      1            3.8320E-02  3.9992E-02 -7.9911E-02  7.4535E-04 -1.2916E-02 -2.6417E-03
      95-      1
      1            2.6115E-02  2.9135E-02 -5.6824E-02  7.9951E-04 -2.1874E-02 -4.3240E-03



 e l e m e n t   s t r e s s   c a l c u l a t i o n s   f o r   t i m e  s t e p       90   ( at time 1.38519E+01 )

 element  materl
     ipt  stress       sig-xx      sig-yy      sig-zz      sig-xy      sig-yz      sig-zx                       yield
           state                                                                                  effsg      function
      13-      1
       1          -1.0707E+08 -1.0468E+08 -4.0606E+08 -1.3294E+07 -3.9456E+06  1.2485E+06    3.0116E+08    9.4976E-02
      14-      1
       1          -1.6690E+08 -1.7711E+08 -3.2558E+08 -6.2098E+04  5.2856E+06 -2.4905E+06    1.5416E+08    5.9642E-02
      15-      1
       1          -1.9606E+08 -2.0313E+08 -3.1483E+08  2.4526E+06 -3.3062E+07 -4.2939E+07    1.4881E+08    5.0770E-02
      21-      1
       1          -5.1263E+07 -6.7008E+07 -3.5535E+08 -1.1486E+07 -6.9823E+06  5.4615E+06    2.9759E+08    9.7795E-02
      22-      1
       1          -2.6022E+08 -2.5643E+08 -4.1130E+08 -4.6884E+06 -7.3325E+06 -9.2709E+06    1.5459E+08    6.3987E-02
      23-      1
       1          -9.6430E+07 -9.3677E+07 -2.7688E+08 -7.5527E+04 -5.9865E+07 -3.1082E+07    2.1614E+08    6.2024E-02
      53-      1
       1          -5.1318E+07 -3.4581E+07 -3.1333E+08 -4.4073E+06  3.7308E+06 -7.2521E+06    2.7125E+08    9.0274E-02
      54-      1
       1          -8.9118E+07 -9.4579E+07 -2.7826E+08  2.8910E+05  1.0825E+07 -9.6890E+06    1.8816E+08    7.0737E-02
      55-      1
       1          -6.1543E+07 -8.7831E+07 -2.1227E+08 -1.0913E+06 -8.0397E+06 -2.2268E+07    1.4537E+08    4.8810E-02
      93-      1
       1          -1.0739E+07 -3.4485E+07 -3.2254E+08 -4.4761E+06 -1.2800E+06  4.8466E+06    3.0085E+08    9.7114E-02
      94-      1
       1          -2.4116E+08 -2.4173E+08 -3.9277E+08 -3.7568E+06 -1.5184E+07 -5.9508E+06    1.5408E+08    7.4052E-02
      95-      1
       1          -6.3536E+07 -5.4645E+07 -2.8067E+08 -7.4613E+05 -6.9712E+07 -1.4596E+07    2.5372E+08    6.3663E-02



 e l e m e n t   s t r a i n   c a l c u l a t i o n s   f o r   t i m e  s t e p       90   ( at time  1.38519E+01 )

 element  strain       eps-xx      eps-yy      eps-zz      eps-xy      eps-yz      eps-zx                            yield
 num/ipt   state
      13-      1
      1            4.4980E-02  4.6937E-02 -9.5468E-02 -9.3861E-04 -1.7599E-03 -1.1219E-03
      14-      1
      1            4.6372E-02  4.5635E-02 -9.0658E-02  4.1040E-04 -8.9596E-03 -1.1634E-02
      15-      1
      1            3.7443E-02  3.3248E-02 -6.5878E-02  1.8966E-03 -1.5405E-02 -2.6516E-02
      21-      1
      1            4.9121E-02  4.6259E-02 -9.8289E-02 -1.6637E-03 -2.7900E-03 -1.0917E-03
      22-      1
      1            4.4918E-02  4.5488E-02 -8.9508E-02  3.1743E-04 -1.4946E-02 -9.1141E-03
      23-      1
      1            3.1051E-02  3.1872E-02 -6.3678E-02  1.5110E-03 -2.1834E-02 -1.4852E-02
      53-      1
      1            4.7191E-02  4.8222E-02 -9.7146E-02  1.3642E-03  5.6697E-04 -2.1552E-03
      54-      1
      1            4.4534E-02  4.2481E-02 -8.7133E-02  2.1512E-03 -7.7301E-04 -1.1042E-02
      55-      1
      1            3.8726E-02  3.1493E-02 -6.4164E-02  1.0372E-03 -4.8134E-03 -2.6191E-02
      93-      1
      1            5.1094E-02  4.7628E-02 -1.0118E-01 -9.9747E-04 -2.6753E-03 -3.6327E-04
      94-      1
      1            4.3838E-02  4.5488E-02 -8.9256E-02  6.1276E-04 -1.4385E-02 -2.7403E-03
      95-      1
      1            2.9084E-02  3.2798E-02 -6.3169E-02  8.7398E-04 -2.3822E-02 -4.4762E-03



 e l e m e n t   s t r e s s   c a l c u l a t i o n s   f o r   t i m e  s t e p       98   ( at time 1.51078E+01 )

 element  materl
     ipt  stress       sig-xx      sig-yy      sig-zz      sig-xy      sig-yz      sig-zx                       yield
           state                                                                                  effsg      function
      13-      1
       1          -1.2239E+08 -1.2126E+08 -4.2791E+08 -4.7333E+06 -4.2703E+06  1.6345E+06    3.0630E+08    1.0371E-01
      14-      1
       1          -1.5647E+08 -1.6605E+08 -3.1469E+08 -1.9014E+06  1.1163E+07  6.8977E+05    1.5490E+08    6.4761E-02
      15-      1
       1          -1.4292E+08 -1.5097E+08 -2.6409E+08 -2.0336E+06 -3.2789E+07 -4.3653E+07    1.5075E+08    5.5626E-02
      21-      1
       1          -5.9378E+07 -7.2848E+07 -3.6663E+08 -6.8221E+06 -7.3734E+06  3.4047E+06    3.0131E+08    1.0761E-01
      22-      1
       1          -2.7534E+08 -2.6716E+08 -4.2757E+08 -5.0599E+06 -8.8297E+05 -6.0942E+06    1.5709E+08    6.8687E-02
      23-      1
       1          -1.3378E+08 -1.3500E+08 -2.7880E+08 -8.0275E+05 -6.0702E+07 -2.8807E+07    1.8547E+08    6.7080E-02
      53-      1
       1           5.4727E+06  1.4212E+07 -2.6727E+08  5.0185E+05  2.7668E+06 -8.3955E+06    2.7763E+08    9.9765E-02
      54-      1
       1          -1.1211E+08 -1.0899E+08 -2.9982E+08  3.1930E+06  1.2533E+07 -2.5731E+06    1.9066E+08    7.6068E-02
      55-      1
       1          -1.0710E+08 -1.1903E+08 -2.1842E+08  1.3506E+06  2.5841E+06 -1.7369E+07    1.1017E+08    5.1572E-02
      93-      1
       1          -2.1726E+07 -3.6921E+07 -3.3322E+08 -1.9055E+06 -2.7018E+06  3.0797E+06    3.0428E+08    1.0788E-01
      94-      1
       1          -2.5856E+08 -2.5578E+08 -4.1299E+08 -3.3835E+06 -4.2029E+06 -3.6552E+06    1.5624E+08    7.8653E-02
      95-      1
       1          -1.0074E+08 -9.2988E+07 -2.8219E+08  1.3803E+06 -6.9144E+07 -1.0267E+07    2.2149E+08    6.9286E-02



 e l e m e n t   s t r a i n   c a l c u l a t i o n s   f o r   t i m e  s t e p       98   ( at time  1.51078E+01 )

 element  strain       eps-xx      eps-yy      eps-zz      eps-xy      eps-yz      eps-zx                            yield
 num/ipt   state
      13-      1
      1            4.9074E-02  5.1042E-02 -1.0397E-01 -9.7106E-04 -1.7013E-03 -9.6326E-04
      14-      1
      1            5.1317E-02  5.0258E-02 -1.0009E-01  2.5398E-04 -9.0057E-03 -1.1553E-02
      15-      1
      1            4.3009E-02  3.7824E-02 -7.3997E-02  1.8941E-03 -1.6515E-02 -2.9320E-02
      21-      1
      1            5.3946E-02  5.0501E-02 -1.0754E-01 -1.8764E-03 -3.0612E-03 -8.9144E-04
      22-      1
      1            4.9403E-02  5.0469E-02 -9.8731E-02  4.9777E-05 -1.6070E-02 -9.2477E-03
      23-      1
      1            3.4682E-02  3.5527E-02 -7.0798E-02  1.4857E-03 -2.3624E-02 -1.6046E-02
      53-      1
      1            5.3011E-02  5.3946E-02 -1.0782E-01  1.4811E-03  9.1491E-04 -2.5590E-03
      54-      1
      1            4.8604E-02  4.6905E-02 -9.5323E-02  2.3565E-03 -3.8427E-04 -1.1365E-02
      55-      1
      1            4.2608E-02  3.5274E-02 -7.1013E-02  1.7332E-03 -5.2664E-03 -2.7956E-02
      93-      1
      1            5.6418E-02  5.2359E-02 -1.1143E-01 -1.0431E-03 -2.7436E-03 -1.7342E-04
      94-      1
      1            4.8608E-02  5.0289E-02 -9.8305E-02  5.8608E-04 -1.5441E-02 -2.7075E-03
      95-      1
      1            3.2322E-02  3.6539E-02 -6.9856E-02  8.8535E-04 -2.5655E-02 -4.7385E-03



 e l e m e n t   s t r e s s   c a l c u l a t i o n s   f o r   t i m e  s t e p      106   ( at time 1.63638E+01 )

 element  materl
     ipt  stress       sig-xx      sig-yy      sig-zz      sig-xy      sig-yz      sig-zx                       yield
           state                                                                                  effsg      function
      13-      1
       1          -1.2221E+08 -1.1552E+08 -4.2671E+08 -3.3943E+06 -4.8557E+06  9.8995E+05    3.0807E+08    1.1278E-01
      14-      1
       1          -1.4389E+08 -1.4422E+08 -2.9771E+08  8.8607E+05  1.5496E+07  3.9295E+06    1.5614E+08    6.9938E-02
      15-      1
       1          -4.3052E+07 -5.6263E+07 -1.7172E+08 -1.8959E+06 -3.2423E+07 -4.3673E+07    1.5465E+08    6.1021E-02
      21-      1
       1          -6.2209E+07 -7.5185E+07 -3.6948E+08 -9.4821E+06 -7.1440E+06  3.8479E+06    3.0177E+08    1.1698E-01
      22-      1
       1          -2.4582E+08 -2.3826E+08 -4.0054E+08 -5.7488E+05  7.3404E+06 -7.8978E+05    1.5915E+08    7.4121E-02
      23-      1
       1          -1.2542E+08 -1.3175E+08 -2.7162E+08  3.3082E+06 -6.2154E+07 -2.9661E+07    1.8642E+08    7.3026E-02
      53-      1
       1          -1.3100E+07 -7.9903E+06 -2.4992E+08  3.7251E+06  4.6233E+06 -7.5546E+06    2.3999E+08    1.0824E-01
      54-      1
       1          -1.6037E+08 -1.6373E+08 -3.1410E+08  1.7017E+04  9.6393E+06 -5.9785E+04    1.5299E+08    8.0625E-02
      55-      1
       1          -7.1205E+07 -8.6614E+07 -1.8038E+08 -1.2082E+06  5.6022E+06 -2.3445E+07    1.1055E+08    5.5011E-02
      93-      1
       1          -1.6931E+07 -3.7375E+07 -3.3064E+08 -3.6134E+06 -3.3679E+06  3.8972E+06    3.0420E+08    1.1831E-01
      94-      1
       1          -2.5082E+08 -2.3951E+08 -4.0324E+08 -9.3285E+05  6.9122E+06 -1.8825E+06    1.5888E+08    8.4017E-02
      95-      1
       1          -9.5873E+07 -8.4657E+07 -2.7123E+08  1.7279E+06 -7.1920E+07 -1.0569E+07    2.2069E+08    7.5851E-02



 e l e m e n t   s t r a i n   c a l c u l a t i o n s   f o r   t i m e  s t e p      106   ( at time  1.63638E+01 )

 element  strain       eps-xx      eps-yy      eps-zz      eps-xy      eps-yz      eps-zx                            yield
 num/ipt   state
      13-      1
      1            5.3182E-02  5.5574E-02 -1.1263E-01 -1.0826E-03 -1.5508E-03 -8.3489E-04
      14-      1
      1            5.5869E-02  5.5327E-02 -1.0953E-01  2.8932E-04 -8.6715E-03 -1.0967E-02
      15-      1
      1            4.9230E-02  4.3174E-02 -8.3008E-02  2.2674E-03 -1.7659E-02 -3.2173E-02
      21-      1
      1            5.8523E-02  5.4522E-02 -1.1623E-01 -2.3272E-03 -3.1603E-03 -6.2782E-04
      22-      1
      1            5.4368E-02  5.5951E-02 -1.0890E-01 -6.2999E-05 -1.6592E-02 -8.8031E-03
      23-      1
      1            3.9314E-02  4.0042E-02 -7.8765E-02  2.1810E-03 -2.5722E-02 -1.7775E-02
      53-      1
      1            5.8494E-02  6.0034E-02 -1.1870E-01  1.8867E-03  1.1827E-03 -2.9820E-03
      54-      1
      1            5.3418E-02  5.1473E-02 -1.0386E-01  2.3377E-03  2.3038E-04 -1.1748E-02
      55-      1
      1            4.8083E-02  3.9120E-02 -7.8980E-02  1.5659E-03 -4.7821E-03 -3.0006E-02
      93-      1
      1            6.1800E-02  5.6664E-02 -1.2115E-01 -1.2452E-03 -2.7173E-03  1.2602E-04
      94-      1
      1            5.3641E-02  5.5772E-02 -1.0841E-01  6.7768E-04 -1.5956E-02 -2.4333E-03
      95-      1
      1            3.5718E-02  4.1174E-02 -7.7239E-02  1.0208E-03 -2.7665E-02 -5.0861E-03



 e l e m e n t   s t r e s s   c a l c u l a t i o n s   f o r   t i m e  s t e p      114   ( at time 1.76197E+01 )

 element  materl
     ipt  stress       sig-xx      sig-yy      sig-zz      sig-xy      sig-yz      sig-zx                       yield
           state                                                                                  effsg      function
      13-      1
       1          -1.2282E+08 -1.1751E+08 -4.3120E+08 -5.0403E+06 -4.0546E+06  1.3133E+06    3.1127E+08    1.2140E-01
      14-      1
       1          -1.4570E+08 -1.3756E+08 -2.9523E+08  4.9306E+06  1.7373E+07  5.3542E+06    1.5718E+08    7.4912E-02
      15-      1
       1           3.1027E+07  1.2591E+07 -1.0572E+08  1.5270E+06 -3.1397E+07 -4.0396E+07    1.5613E+08    6.6299E-02
      21-      1
       1          -7.0031E+07 -7.6586E+07 -3.7198E+08 -1.0603E+07 -6.5678E+06  4.3391E+06    2.9960E+08    1.2644E-01
      22-      1
       1          -2.2572E+08 -2.2415E+08 -3.8392E+08 -1.7763E+06  1.2712E+07  3.6616E+06    1.6066E+08    7.9248E-02
      23-      1
       1          -1.0425E+08 -1.1283E+08 -2.5490E+08  2.7685E+05 -5.6930E+07 -3.1831E+07    1.8504E+08    7.9190E-02
      53-      1
       1          -7.3204E+06 -6.0003E+06 -2.4783E+08  2.7733E+06  4.7310E+06 -4.8287E+06    2.4150E+08    1.1554E-01
      54-      1
       1          -1.4597E+08 -1.4842E+08 -3.0105E+08  1.5364E+06  1.0689E+07  3.2519E+06    1.5510E+08    8.5345E-02
      55-      1
       1          -2.6677E+07 -3.7963E+07 -1.3706E+08 -4.1097E+05  3.4824E+06 -2.4559E+07    1.1363E+08    5.8800E-02
      93-      1
       1          -1.6516E+07 -3.8335E+07 -3.2889E+08 -2.2556E+06 -2.8367E+06  2.9457E+06    3.0217E+08    1.2884E-01
      94-      1
       1          -2.4517E+08 -2.3366E+08 -3.9823E+08 -1.5430E+06  1.4849E+07 -1.3184E+06    1.6123E+08    8.9583E-02
      95-      1
       1          -1.5269E+08 -1.5119E+08 -2.8480E+08  4.1660E+05 -6.9246E+07 -9.2898E+06    1.7971E+08    8.1460E-02



 e l e m e n t   s t r a i n   c a l c u l a t i o n s   f o r   t i m e  s t e p      114   ( at time  1.76197E+01 )

 element  strain       eps-xx      eps-yy      eps-zz      eps-xy      eps-yz      eps-zx                            yield
 num/ipt   state
      13-      1
      1            5.7185E-02  5.9769E-02 -1.2091E-01 -1.3080E-03 -1.4501E-03 -7.5052E-04
      14-      1
      1            6.0024E-02  6.0159E-02 -1.1857E-01  4.6872E-04 -8.3740E-03 -1.0589E-02
      15-      1
      1            5.4986E-02  4.8254E-02 -9.2090E-02  3.2572E-03 -1.8876E-02 -3.4670E-02
      21-      1
      1            6.2859E-02  5.8675E-02 -1.2483E-01 -2.7928E-03 -3.3218E-03 -3.3973E-04
      22-      1
      1            5.9145E-02  6.1013E-02 -1.1831E-01 -3.1596E-04 -1.7296E-02 -8.1124E-03
      23-      1
      1            4.4192E-02  4.4742E-02 -8.7237E-02  2.3372E-03 -2.7671E-02 -1.9569E-02
      53-      1
      1            6.3264E-02  6.4913E-02 -1.2822E-01  2.0890E-03  1.3316E-03 -3.1780E-03
      54-      1
      1            5.7894E-02  5.5958E-02 -1.1257E-01  2.4182E-03  8.0125E-04 -1.2001E-02
      55-      1
      1            5.3991E-02  4.4130E-02 -8.7824E-02  1.9446E-03 -4.4684E-03 -3.2275E-02
      93-      1
      1            6.7123E-02  6.0901E-02 -1.3077E-01 -1.3288E-03 -2.6760E-03  2.8777E-04
      94-      1
      1            5.8828E-02  6.1170E-02 -1.1862E-01  7.8687E-04 -1.6590E-02 -2.2814E-03
      95-      1
      1            3.9245E-02  4.5537E-02 -8.4303E-02  1.1572E-03 -2.9683E-02 -5.3891E-03



 e l e m e n t   s t r e s s   c a l c u l a t i o n s   f o r   t i m e  s t e p      122   ( at time 1.88757E+01 )

 element  materl
     ipt  stress       sig-xx      sig-yy      sig-zz      sig-xy      sig-yz      sig-zx                       yield
           state                                                                                  effsg      function
      13-      1
       1          -1.2222E+08 -1.2776E+08 -4.3639E+08 -2.8542E+06 -5.7357E+06  3.0067E+06    3.1168E+08    1.3036E-01
      14-      1
       1          -1.4434E+08 -1.3196E+08 -2.9289E+08  3.0320E+06  1.9277E+07  7.4756E+06    1.5928E+08    8.0103E-02
      15-      1
       1           1.7019E+07 -4.4470E+06 -9.2927E+07 -3.6091E+06 -1.6307E+07 -3.0710E+07    1.1771E+08    6.9987E-02
      21-      1
       1          -7.2762E+07 -8.0777E+07 -3.7804E+08 -6.4110E+06 -6.7523E+06  6.5111E+06    3.0199E+08    1.3570E-01
      22-      1
       1          -2.2442E+08 -2.2264E+08 -3.8340E+08 -1.8843E+06  1.3669E+07  4.7618E+06    1.6186E+08    8.4444E-02
      23-      1
       1          -8.8039E+07 -9.0920E+07 -2.4116E+08 -6.1813E+06 -5.4984E+07 -2.7479E+07    1.8564E+08    8.4992E-02
      53-      1
       1           5.4173E+07  3.7749E+07 -1.5462E+08  2.1006E+06  6.3769E+06 -1.4144E+07    2.0291E+08    1.2309E-01
      54-      1
       1          -1.6359E+08 -1.6248E+08 -3.1828E+08  5.8792E+05  1.2707E+07  2.7015E+06    1.5687E+08    8.9740E-02
      55-      1
       1           1.9981E+07  6.1260E+06 -8.8038E+07 -2.2517E+06  2.6212E+06 -2.7549E+07    1.1259E+08    6.2370E-02
      93-      1
       1          -1.8832E+07 -3.9031E+07 -3.3232E+08 -3.4229E+06 -9.0181E+05  3.1914E+06    3.0401E+08    1.3891E-01
      94-      1
       1          -2.4427E+08 -2.3462E+08 -3.9892E+08 -1.7553E+06  1.7984E+07 -1.5565E+06    1.6276E+08    9.5190E-02
      95-      1
       1          -1.5089E+08 -1.6019E+08 -2.9856E+08 -2.8914E+06 -6.3969E+07 -6.9809E+06    1.8157E+08    8.6713E-02



 e l e m e n t   s t r a i n   c a l c u l a t i o n s   f o r   t i m e  s t e p      122   ( at time  1.88757E+01 )

 element  strain       eps-xx      eps-yy      eps-zz      eps-xy      eps-yz      eps-zx                            yield
 num/ipt   state
      13-      1
      1            6.1619E-02  6.3745E-02 -1.2944E-01 -1.3736E-03 -1.3049E-03 -6.2138E-04
      14-      1
      1            6.4465E-02  6.5160E-02 -1.2798E-01  5.2650E-04 -7.9091E-03 -1.0085E-02
      15-      1
      1            6.0846E-02  5.3075E-02 -1.0090E-01  3.4009E-03 -1.9859E-02 -3.6814E-02
      21-      1
      1            6.7234E-02  6.2669E-02 -1.3331E-01 -2.9774E-03 -3.4566E-03 -4.7509E-06
      22-      1
      1            6.3836E-02  6.6038E-02 -1.2797E-01 -4.5621E-04 -1.8038E-02 -7.5142E-03
      23-      1
      1            4.8670E-02  4.9390E-02 -9.5453E-02  2.1076E-03 -2.9455E-02 -2.0866E-02
      53-      1
      1            7.1617E-02  7.0961E-02 -1.3966E-01  2.4617E-03  1.8585E-03 -3.6762E-03
      54-      1
      1            6.2758E-02  6.0623E-02 -1.2089E-01  2.5220E-03  1.6776E-03 -1.2543E-02
      55-      1
      1            5.9551E-02  4.8337E-02 -9.5693E-02  2.0303E-03 -3.9166E-03 -3.3988E-02
      93-      1
      1            7.2151E-02  6.5026E-02 -1.4002E-01 -1.5140E-03 -2.6041E-03  4.3563E-04
      94-      1
      1            6.3956E-02  6.6424E-02 -1.2879E-01  7.9782E-04 -1.7415E-02 -2.1903E-03
      95-      1
      1            4.3243E-02  4.9468E-02 -9.1893E-02  9.7848E-04 -3.0930E-02 -5.4843E-03



 e l e m e n t   s t r e s s   c a l c u l a t i o n s   f o r   t i m e  s t e p      130   ( at time 2.01316E+01 )

 element  materl
     ipt  stress       sig-xx      sig-yy      sig-zz      sig-xy      sig-yz      sig-zx                       yield
           state                                                                                  effsg      function
      13-      1
       1          -1.9251E+07 -2.5299E+07 -3.4266E+08 -6.9005E+06 -4.5852E+06 -2.3207E+06    3.2077E+08    1.4202E-01
      14-      1
       1          -1.6716E+08 -1.4926E+08 -3.1448E+08  6.2320E+06  1.4846E+07  5.7083E+06    1.5981E+08    8.4641E-02
      15-      1
       1           3.4225E+07  1.5129E+07 -7.5568E+07 -5.6009E+06 -1.3302E+07 -3.0345E+07    1.1709E+08    7.3194E-02
      21-      1
       1          -8.0882E+07 -9.3281E+07 -3.9359E+08 -1.1391E+05 -6.8823E+06  7.2068E+06    3.0718E+08    1.4541E-01
      22-      1
       1          -2.2340E+08 -2.2358E+08 -3.8489E+08 -3.8193E+06  1.2672E+07  5.4534E+06    1.6329E+08    8.9588E-02
      23-      1
       1          -7.4114E+07 -7.6155E+07 -2.3333E+08 -9.0947E+06 -5.1233E+07 -2.9651E+07    1.8918E+08    9.0632E-02
      53-      1
       1           6.6750E+06 -6.6350E+06 -1.6167E+08  2.2740E+06  9.4727E+06 -1.1982E+07    1.6429E+08    1.2917E-01
      54-      1
       1          -1.4256E+08 -1.3925E+08 -2.9926E+08  2.6837E+06  5.8987E+06 -1.8429E+06    1.5881E+08    9.4896E-02
      55-      1
       1           2.1503E+07  1.8696E+07 -8.2443E+07 -6.2818E+06  7.0738E+06 -2.4844E+07    1.1243E+08    6.5534E-02
      93-      1
       1          -2.8210E+07 -3.4972E+07 -3.3436E+08  7.8820E+05 -2.4165E+06  4.1669E+06    3.0294E+08    1.4882E-01
      94-      1
       1          -2.4967E+08 -2.4322E+08 -4.0652E+08 -3.5078E+06  1.9771E+07  6.3225E+05    1.6391E+08    1.0082E-01
      95-      1
       1          -1.5355E+08 -1.6241E+08 -3.0397E+08 -5.8029E+06 -6.4633E+07 -8.7059E+06    1.8502E+08    9.2401E-02



 e l e m e n t   s t r a i n   c a l c u l a t i o n s   f o r   t i m e  s t e p      130   ( at time  2.01316E+01 )

 element  strain       eps-xx      eps-yy      eps-zz      eps-xy      eps-yz      eps-zx                            yield
 num/ipt   state
      13-      1
      1            6.7894E-02  6.9701E-02 -1.4035E-01 -1.7763E-03 -1.1845E-03 -9.2130E-04
      14-      1
      1            6.8580E-02  7.0352E-02 -1.3646E-01  8.7907E-04 -7.4194E-03 -1.0161E-02
      15-      1
      1            6.5419E-02  5.7347E-02 -1.0881E-01  3.6148E-03 -2.0558E-02 -3.8581E-02
      21-      1
      1            7.1983E-02  6.6760E-02 -1.4238E-01 -2.8597E-03 -3.4411E-03  1.5858E-04
      22-      1
      1            6.8726E-02  7.1056E-02 -1.3763E-01 -7.3353E-04 -1.8431E-02 -7.1469E-03
      23-      1
      1            5.3142E-02  5.3946E-02 -1.0357E-01  1.7275E-03 -3.0883E-02 -2.2341E-02
      53-      1
      1            7.9267E-02  7.6441E-02 -1.5159E-01  3.1824E-03  1.9873E-03 -4.1081E-03
      54-      1
      1            6.8310E-02  6.6114E-02 -1.3062E-01  3.0189E-03  2.2252E-03 -1.3407E-02
      55-      1
      1            6.3902E-02  5.2940E-02 -1.0297E-01  1.7581E-03 -3.3096E-03 -3.5247E-02
      93-      1
      1            7.6627E-02  6.9437E-02 -1.4900E-01 -1.4035E-03 -2.6483E-03  5.9101E-04
      94-      1
      1            6.8957E-02  7.1610E-02 -1.3900E-01  7.8453E-04 -1.7934E-02 -1.9079E-03
      95-      1
      1            4.7379E-02  5.3680E-02 -1.0004E-01  5.4479E-04 -3.2303E-02 -5.5949E-03



 e l e m e n t   s t r e s s   c a l c u l a t i o n s   f o r   t i m e  s t e p      139   ( at time 2.13875E+01 )

 element  materl
     ipt  stress       sig-xx      sig-yy      sig-zz      sig-xy      sig-yz      sig-zx                       yield
           state                                                                                  effsg      function
      13-      1
       1          -2.1762E+07 -1.7806E+07 -3.3933E+08 -9.1708E+06 -7.5544E+06 -1.1607E+06    3.2024E+08    1.5304E-01
      14-      1
       1          -1.9331E+08 -1.7120E+08 -3.3842E+08  5.9724E+06  1.5010E+07  5.5263E+06    1.6009E+08    8.9641E-02
      15-      1
       1           7.1009E+07  4.9964E+07 -3.8012E+07 -9.5436E+06 -1.0615E+07 -3.1792E+07    1.1695E+08    7.6593E-02
      21-      1
       1          -8.6460E+07 -1.0414E+08 -3.9454E+08 -8.6380E+05 -8.8605E+06  5.9729E+06    3.0021E+08    1.5615E-01
      22-      1
       1          -2.3979E+08 -2.3657E+08 -3.9809E+08 -4.5988E+06  1.8821E+07  9.6741E+06    1.6427E+08    9.5262E-02
      23-      1
       1          -4.9006E+07 -4.4908E+07 -1.9450E+08 -1.6654E+07 -5.2615E+07 -2.6618E+07    1.8178E+08    9.6757E-02
      53-      1
       1           1.4643E+07  1.2830E+06 -1.5395E+08  2.6325E+06  9.2645E+06 -1.4980E+07    1.6523E+08    1.3522E-01
      54-      1
       1          -1.4908E+08 -1.4407E+08 -3.0607E+08  2.2276E+06  4.9800E+06 -5.4534E+06    1.6011E+08    1.0016E-01
      55-      1
       1           5.9641E+07  5.9979E+07 -4.3450E+07 -8.8900E+06  9.9618E+06 -2.5097E+07    1.1440E+08    6.9053E-02
      93-      1
       1          -4.9239E+07 -5.0803E+07 -3.3726E+08  5.2244E+06 -4.8745E+06  3.3803E+06    2.8757E+08    1.5988E-01
      94-      1
       1          -2.5768E+08 -2.5512E+08 -4.1282E+08 -2.9529E+06  3.0531E+07  9.2309E+05    1.6522E+08    1.0752E-01
      95-      1
       1          -1.7526E+08 -1.9528E+08 -2.7469E+08 -1.8471E+06 -7.4434E+07 -8.8092E+06    1.5862E+08    9.7790E-02



 e l e m e n t   s t r a i n   c a l c u l a t i o n s   f o r   t i m e  s t e p      139   ( at time  2.13875E+01 )

 element  strain       eps-xx      eps-yy      eps-zz      eps-xy      eps-yz      eps-zx                            yield
 num/ipt   state
      13-      1
      1            7.2946E-02  7.5114E-02 -1.5086E-01 -2.2510E-03 -1.1993E-03 -1.0415E-03
      14-      1
      1            7.2652E-02  7.5784E-02 -1.4583E-01  1.0931E-03 -7.0103E-03 -9.8412E-03
      15-      1
      1            7.0281E-02  6.2140E-02 -1.1654E-01  3.5648E-03 -2.1266E-02 -4.0436E-02
      21-      1
      1            7.7154E-02  7.0916E-02 -1.5186E-01 -2.9001E-03 -3.5893E-03  3.1714E-04
      22-      1
      1            7.3667E-02  7.6472E-02 -1.4798E-01 -9.9643E-04 -1.8759E-02 -6.1476E-03
      23-      1
      1            5.7370E-02  5.9058E-02 -1.1165E-01  6.8125E-04 -3.2136E-02 -2.3237E-02
      53-      1
      1            8.6870E-02  8.2031E-02 -1.6331E-01  3.8167E-03  2.1344E-03 -4.6989E-03
      54-      1
      1            7.3376E-02  7.1442E-02 -1.4092E-01  3.3428E-03  2.8655E-03 -1.4365E-02
      55-      1
      1            6.8611E-02  5.8016E-02 -1.1057E-01  1.2047E-03 -2.4358E-03 -3.6725E-02
      93-      1
      1            8.1143E-02  7.3934E-02 -1.5826E-01 -1.0719E-03 -2.8518E-03  6.4070E-04
      94-      1
      1            7.4586E-02  7.7135E-02 -1.5021E-01  9.2978E-04 -1.8364E-02 -1.6872E-03
      95-      1
      1            5.2362E-02  5.7613E-02 -1.0846E-01  1.7075E-04 -3.3238E-02 -5.7506E-03



 e l e m e n t   s t r e s s   c a l c u l a t i o n s   f o r   t i m e  s t e p      147   ( at time 2.26435E+01 )

 element  materl
     ipt  stress       sig-xx      sig-yy      sig-zz      sig-xy      sig-yz      sig-zx                       yield
           state                                                                                  effsg      function
      13-      1
       1           9.1601E+06  1.3776E+06 -3.1844E+08 -4.1800E+06 -8.0744E+06  1.0593E+06    3.2416E+08    1.6229E-01
      14-      1
       1          -1.8588E+08 -1.7346E+08 -3.3991E+08  3.7680E+06  1.0422E+07  7.2228E+06    1.6223E+08    9.4020E-02
      15-      1
       1           3.5169E+07  2.7073E+07 -4.2249E+07 -7.5664E+06 -9.1734E+06 -1.4990E+07    8.0811E+07    7.8834E-02
      21-      1
       1          -7.4377E+07 -8.6452E+07 -3.8494E+08 -3.5643E+06 -9.0644E+06  7.3245E+06    3.0544E+08    1.6557E-01
      22-      1
       1          -2.3263E+08 -2.2964E+08 -3.9545E+08 -2.5969E+06  9.0099E+06  9.4963E+06    1.6595E+08    1.0018E-01
      23-      1
       1          -9.4295E+07 -9.4914E+07 -2.2733E+08 -1.0890E+07 -3.6426E+07 -1.7800E+07    1.5134E+08    1.0117E-01
      53-      1
       1          -1.8149E+07 -3.5694E+07 -1.4842E+08  1.5110E+06  8.1138E+06 -1.3081E+07    1.2534E+08    1.3894E-01
      54-      1
       1          -1.5093E+08 -1.4877E+08 -3.1126E+08  8.8314E+05  4.4603E+06 -3.5209E+06    1.6173E+08    1.0434E-01
      55-      1
       1           7.8086E+07  7.0280E+07 -3.9578E+07 -3.7962E+06  8.9226E+06 -1.5128E+07    1.1814E+08    7.2450E-02
      93-      1
       1          -3.9853E+07 -4.7081E+07 -3.3439E+08  4.6614E+06 -2.8241E+06  2.2895E+06    2.9117E+08    1.6923E-01
      94-      1
       1          -2.1793E+08 -2.0898E+08 -3.7345E+08 -2.9289E+06  2.6038E+07  9.7353E+05    1.6649E+08    1.1366E-01
      95-      1
       1          -1.5590E+08 -1.6456E+08 -2.7018E+08 -2.5995E+06 -6.6964E+07 -6.9642E+06    1.6051E+08    1.0308E-01



 e l e m e n t   s t r a i n   c a l c u l a t i o n s   f o r   t i m e  s t e p      147   ( at time  2.26435E+01 )

 element  strain       eps-xx      eps-yy      eps-zz      eps-xy      eps-yz      eps-zx                            yield
 num/ipt   state
      13-      1
      1            7.7762E-02  7.9399E-02 -1.5968E-01 -2.3032E-03 -1.2863E-03 -1.1722E-03
      14-      1
      1            7.6841E-02  8.0260E-02 -1.5410E-01  1.2551E-03 -7.0207E-03 -9.7634E-03
      15-      1
      1            7.4759E-02  6.6495E-02 -1.2533E-01  3.4025E-03 -2.2323E-02 -4.2352E-02
      21-      1
      1            8.1662E-02  7.5000E-02 -1.6031E-01 -3.0968E-03 -3.8627E-03  4.4740E-04
      22-      1
      1            7.8280E-02  8.1437E-02 -1.5741E-01 -1.2239E-03 -1.9509E-02 -5.5461E-03
      23-      1
      1            6.1599E-02  6.3550E-02 -1.2006E-01  4.5436E-04 -3.3669E-02 -2.4422E-02
      53-      1
      1            9.3066E-02  8.6332E-02 -1.7299E-01  4.3889E-03  2.1415E-03 -5.2574E-03
      54-      1
      1            7.7739E-02  7.5598E-02 -1.4907E-01  3.6142E-03  3.0037E-03 -1.5147E-02
      55-      1
      1            7.2633E-02  6.2292E-02 -1.1894E-01  1.2071E-03 -2.1695E-03 -3.8208E-02
      93-      1
      1            8.5383E-02  7.7738E-02 -1.6628E-01 -8.9156E-04 -2.7595E-03  5.4234E-04
      94-      1
      1            7.9810E-02  8.2482E-02 -1.6062E-01  1.0714E-03 -1.8532E-02 -1.7276E-03
      95-      1
      1            5.7206E-02  6.3553E-02 -1.1788E-01 -1.0082E-04 -3.5374E-02 -5.6327E-03



 e l e m e n t   s t r e s s   c a l c u l a t i o n s   f o r   t i m e  s t e p      155   ( at time 2.38994E+01 )

 element  materl
     ipt  stress       sig-xx      sig-yy      sig-zz      sig-xy      sig-yz      sig-zx                       yield
           state                                                                                  effsg      function
      13-      1
       1          -1.8822E+07 -2.0532E+07 -3.0451E+08 -4.1581E+06 -1.1577E+06 -1.1618E+06    2.8494E+08    1.7062E-01
      14-      1
       1          -1.7712E+08 -1.6683E+08 -3.3513E+08  3.7727E+06  8.6572E+06  3.7586E+06    1.6435E+08    9.8653E-02
      15-      1
       1          -2.9772E+05 -1.0241E+06 -3.7656E+07 -2.2183E+06 -7.7633E+06 -7.5166E+06    4.1642E+07    8.0079E-02
      21-      1
       1          -8.4477E+07 -8.7216E+07 -3.9483E+08 -6.1225E+06 -8.9991E+06  3.3348E+06    3.0962E+08    1.7561E-01
      22-      1
       1          -2.2011E+08 -2.2360E+08 -3.8818E+08 -1.7885E+06  5.7315E+06  8.1530E+06    1.6728E+08    1.0526E-01
      23-      1
       1          -8.9469E+07 -9.2900E+07 -2.2875E+08 -1.2614E+07 -3.5234E+07 -1.3115E+07    1.5379E+08    1.0550E-01
      53-      1
       1          -1.0758E+07 -2.5404E+07 -1.4101E+08  4.1419E+05  8.9695E+06 -1.0020E+07    1.2576E+08    1.4243E-01
      54-      1
       1          -9.7929E+07 -1.0302E+08 -2.6386E+08  4.6165E+06  5.1552E+06 -4.5568E+06    1.6407E+08    1.0957E-01
      55-      1
       1           7.4515E+07  7.1905E+07 -4.2067E+07 -1.2033E+06  4.9556E+06 -1.8978E+07    1.2022E+08    7.5876E-02
      93-      1
       1           3.3158E+07  1.9191E+07 -2.7792E+08  2.6078E+06 -7.5302E+06 -4.9497E+05    3.0465E+08    1.8093E-01
      94-      1
       1          -1.9717E+08 -1.9113E+08 -3.5835E+08 -5.8134E+06  1.9973E+07 -6.5171E+05    1.6819E+08    1.1930E-01
      95-      1
       1          -1.3689E+08 -1.4725E+08 -2.6124E+08 -1.0538E+06 -6.2347E+07 -6.6418E+06    1.6149E+08    1.0748E-01



 e l e m e n t   s t r a i n   c a l c u l a t i o n s   f o r   t i m e  s t e p      155   ( at time  2.38994E+01 )

 element  strain       eps-xx      eps-yy      eps-zz      eps-xy      eps-yz      eps-zx                            yield
 num/ipt   state
      13-      1
      1            8.2604E-02  8.4011E-02 -1.6868E-01 -2.4970E-03 -1.3017E-03 -1.4146E-03
      14-      1
      1            8.1093E-02  8.5076E-02 -1.6303E-01  1.2319E-03 -6.7100E-03 -9.6417E-03
      15-      1
      1            8.0231E-02  7.1281E-02 -1.3452E-01  3.7689E-03 -2.3471E-02 -4.3854E-02
      21-      1
      1            8.6156E-02  7.9515E-02 -1.6948E-01 -3.4017E-03 -3.9694E-03  7.4647E-04
      22-      1
      1            8.3234E-02  8.6367E-02 -1.6723E-01 -1.3487E-03 -1.9776E-02 -4.4064E-03
      23-      1
      1            6.6245E-02  6.8178E-02 -1.2857E-01  1.1583E-04 -3.4967E-02 -2.5144E-02
      53-      1
      1            9.8857E-02  9.0760E-02 -1.8209E-01  4.9075E-03  2.0099E-03 -5.5382E-03
      54-      1
      1            8.3089E-02  8.0428E-02 -1.5902E-01  4.0920E-03  3.4572E-03 -1.5478E-02
      55-      1
      1            7.7606E-02  6.7242E-02 -1.2797E-01  1.5989E-03 -1.8382E-03 -3.9475E-02
      93-      1
      1            9.1362E-02  8.2840E-02 -1.7651E-01 -7.8577E-04 -3.1134E-03  6.3207E-04
      94-      1
      1            8.5399E-02  8.7712E-02 -1.7083E-01  6.5013E-04 -1.8614E-02 -1.5014E-03
      95-      1
      1            6.1676E-02  6.8139E-02 -1.2622E-01 -3.5011E-04 -3.6437E-02 -5.4566E-03



 e l e m e n t   s t r e s s   c a l c u l a t i o n s   f o r   t i m e  s t e p      163   ( at time 2.51554E+01 )

 element  materl
     ipt  stress       sig-xx      sig-yy      sig-zz      sig-xy      sig-yz      sig-zx                       yield
           state                                                                                  effsg      function
      13-      1
       1          -1.1865E+07 -1.6463E+07 -3.0054E+08 -6.5198E+06 -3.2212E+06  1.0715E+06    2.8668E+08    1.7888E-01
      14-      1
       1          -1.7969E+08 -1.6970E+08 -3.3879E+08  2.6560E+06  7.4696E+06  1.6366E+06    1.6492E+08    1.0340E-01
      15-      1
       1           2.5481E+06  2.3410E+06 -3.5287E+07 -2.0391E+06 -7.7404E+06 -6.9073E+06    4.1941E+07    8.1210E-02
      21-      1
       1          -8.3555E+07 -8.9166E+07 -3.9944E+08 -6.2833E+06 -1.0335E+07  5.6765E+06    3.1397E+08    1.8558E-01
      22-      1
       1          -2.1797E+08 -2.2499E+08 -3.8917E+08 -8.5032E+05  5.2460E+06  6.0332E+06    1.6837E+08    1.1021E-01
      23-      1
       1          -7.3898E+07 -7.7300E+07 -2.1706E+08 -1.1637E+07 -3.5418E+07 -1.2539E+07    1.5704E+08    1.0985E-01
      53-      1
       1          -1.5755E+07 -2.5669E+07 -1.4517E+08 -7.3267E+05  8.2693E+06 -1.0141E+07    1.2680E+08    1.4618E-01
      54-      1
       1          -9.6069E+07 -9.8678E+07 -2.6146E+08  6.7191E+06  5.2879E+06 -6.8288E+06    1.6519E+08    1.1455E-01
      55-      1
       1           7.8360E+07  7.6184E+07 -3.8826E+07 -8.0577E+05  5.0190E+06 -2.0564E+07    1.2177E+08    7.9161E-02
      93-      1
       1           3.5175E+07  1.9707E+07 -2.7329E+08  4.4599E+06 -8.1606E+06  1.6613E+04    3.0146E+08    1.9158E-01
      94-      1
       1          -1.7565E+08 -1.6118E+08 -3.3648E+08 -6.8797E+06  9.9831E+06  1.0258E+06    1.6985E+08    1.2550E-01
      95-      1
       1          -1.3691E+08 -1.4775E+08 -2.6470E+08  1.5774E+06 -6.2388E+07 -5.7770E+06    1.6386E+08    1.1155E-01



 e l e m e n t   s t r a i n   c a l c u l a t i o n s   f o r   t i m e  s t e p      163   ( at time  2.51554E+01 )

 element  strain       eps-xx      eps-yy      eps-zz      eps-xy      eps-yz      eps-zx                            yield
 num/ipt   state
      13-      1
      1            8.7419E-02  8.8234E-02 -1.7772E-01 -2.9219E-03 -1.2769E-03 -1.4802E-03
      14-      1
      1            8.5462E-02  8.9956E-02 -1.7226E-01  1.1176E-03 -6.3092E-03 -9.2828E-03
      15-      1
      1            8.5559E-02  7.5799E-02 -1.4326E-01  4.0785E-03 -2.4204E-02 -4.5126E-02
      21-      1
      1            9.0850E-02  8.3879E-02 -1.7863E-01 -3.6649E-03 -4.1426E-03  1.0924E-03
      22-      1
      1            8.8136E-02  9.1036E-02 -1.7686E-01 -1.3420E-03 -2.0013E-02 -3.4119E-03
      23-      1
      1            7.0903E-02  7.2874E-02 -1.3713E-01 -1.3794E-04 -3.5991E-02 -2.5829E-02
      53-      1
      1            1.0454E-01  9.5741E-02 -1.9191E-01  4.9701E-03  2.0304E-03 -5.4170E-03
      54-      1
      1            8.7926E-02  8.5110E-02 -1.6896E-01  4.6061E-03  4.0800E-03 -1.5472E-02
      55-      1
      1            8.2200E-02  7.1850E-02 -1.3666E-01  1.9200E-03 -1.2432E-03 -4.0588E-02
      93-      1
      1            9.6338E-02  8.7056E-02 -1.8573E-01 -5.5086E-04 -3.0698E-03  6.1942E-04
      94-      1
      1            9.0709E-02  9.4420E-02 -1.8254E-01  2.5824E-04 -1.8649E-02 -9.7331E-04
      95-      1
      1            6.5866E-02  7.2865E-02 -1.3407E-01 -4.4154E-04 -3.7648E-02 -5.0649E-03



 e l e m e n t   s t r e s s   c a l c u l a t i o n s   f o r   t i m e  s t e p      171   ( at time 2.64113E+01 )

 element  materl
     ipt  stress       sig-xx      sig-yy      sig-zz      sig-xy      sig-yz      sig-zx                       yield
           state                                                                                  effsg      function
      13-      1
       1          -3.4737E+06 -2.7804E+04 -2.8963E+08 -1.1707E+07  6.7613E+04  4.4644E+06    2.8871E+08    1.8763E-01
      14-      1
       1          -1.7706E+08 -1.7186E+08 -3.3975E+08  3.6197E+06  7.0796E+05 -1.2695E+06    1.6549E+08    1.0803E-01
      15-      1
       1          -3.6987E+05 -1.4747E+06 -3.8709E+07 -2.1431E+06 -7.8966E+06 -7.1235E+06    4.2212E+07    8.2269E-02
      21-      1
       1          -8.4910E+07 -9.3736E+07 -4.0155E+08 -1.0924E+07 -7.5568E+06  6.8296E+06    3.1339E+08    1.9518E-01
      22-      1
       1          -2.1514E+08 -2.1583E+08 -3.8442E+08 -9.2948E+05  7.1290E+06  6.1509E+06    1.6972E+08    1.1527E-01
      23-      1
       1          -4.9545E+07 -4.3246E+07 -1.8810E+08 -6.3876E+06 -4.0651E+07 -1.7817E+07    1.6169E+08    1.1504E-01
      53-      1
       1           4.9227E+06 -6.8410E+06 -1.2591E+08 -3.0979E+05  1.0089E+07 -8.1311E+06    1.2736E+08    1.4999E-01
      54-      1
       1          -5.5780E+07 -6.3273E+07 -2.2536E+08  5.6378E+06  2.0370E+06 -1.1455E+07    1.6746E+08    1.2013E-01
      55-      1
       1           1.9391E+07  2.5324E+07 -5.5007E+07 -4.2888E+05  8.0854E+06 -1.5596E+07    8.3295E+07    8.1308E-02
      93-      1
       1           5.0050E+07  2.5334E+07 -2.5713E+08  1.9981E+06 -7.4217E+06  2.7587E+06    2.9594E+08    2.0144E-01
      94-      1
       1          -1.3034E+08 -1.1442E+08 -2.9295E+08 -4.6492E+06  7.4513E+06  7.1724E+06    1.7225E+08    1.3201E-01
      95-      1
       1          -1.3547E+08 -1.4194E+08 -2.6073E+08  3.0869E+06 -6.3712E+07 -1.0059E+07    1.6562E+08    1.1641E-01



 e l e m e n t   s t r a i n   c a l c u l a t i o n s   f o r   t i m e  s t e p      171   ( at time  2.64113E+01 )

 element  strain       eps-xx      eps-yy      eps-zz      eps-xy      eps-yz      eps-zx                            yield
 num/ipt   state
      13-      1
      1            9.2212E-02  9.3099E-02 -1.8727E-01 -3.6711E-03 -1.1581E-03 -1.3959E-03
      14-      1
      1            8.9983E-02  9.4699E-02 -1.8145E-01  1.0281E-03 -5.8539E-03 -8.9701E-03
      15-      1
      1            9.1280E-02  7.9883E-02 -1.5212E-01  4.6014E-03 -2.4673E-02 -4.6417E-02
      21-      1
      1            9.5382E-02  8.7945E-02 -1.8732E-01 -4.1980E-03 -3.9011E-03  1.2940E-03
      22-      1
      1            9.2828E-02  9.5985E-02 -1.8664E-01 -1.5487E-03 -1.9562E-02 -2.6655E-03
      23-      1
      1            7.5575E-02  7.8547E-02 -1.4682E-01 -6.4129E-05 -3.7488E-02 -2.6730E-02
      53-      1
      1            1.1009E-01  1.0074E-01 -2.0151E-01  5.1714E-03  2.0389E-03 -5.3491E-03
      54-      1
      1            9.4193E-02  9.0329E-02 -1.8002E-01  5.1227E-03  4.8118E-03 -1.5672E-02
      55-      1
      1            8.7606E-02  7.6632E-02 -1.4575E-01  2.3942E-03 -6.6133E-04 -4.1558E-02
      93-      1
      1            1.0113E-01  9.0595E-02 -1.9394E-01 -5.0545E-04 -2.8354E-03  8.0611E-04
      94-      1
      1            9.6272E-02  1.0114E-01 -1.9472E-01 -7.1837E-05 -1.8498E-02  2.0161E-04
      95-      1
      1            7.0665E-02  7.8534E-02 -1.4301E-01 -1.0882E-04 -3.9538E-02 -4.8584E-03



 e l e m e n t   s t r e s s   c a l c u l a t i o n s   f o r   t i m e  s t e p      179   ( at time 2.76673E+01 )

 element  materl
     ipt  stress       sig-xx      sig-yy      sig-zz      sig-xy      sig-yz      sig-zx                       yield
           state                                                                                  effsg      function
      13-      1
       1          -5.2287E+07 -4.7254E+07 -2.9929E+08 -1.8516E+06  4.1117E+06  4.3703E+06    2.4980E+08    1.9560E-01
      14-      1
       1          -1.7584E+08 -1.7030E+08 -3.3967E+08  3.4098E+06 -2.9648E+06 -2.9190E+06    1.6692E+08    1.1254E-01
      15-      1
       1          -2.8483E+06 -3.4674E+06 -4.1465E+07 -2.0664E+06 -7.6669E+06 -6.9790E+06    4.2462E+07    8.3271E-02
      21-      1
       1          -2.3594E+07 -3.0109E+07 -3.4571E+08 -8.4144E+06 -1.4448E+07  5.8424E+06    3.2038E+08    2.0668E-01
      22-      1
       1          -2.2492E+08 -2.2017E+08 -3.9263E+08  1.4749E+06  2.8701E+06  3.7170E+06    1.7035E+08    1.2010E-01
      23-      1
       1          -1.4177E+07 -4.9405E+06 -1.4952E+08 -4.4738E+06 -4.0496E+07 -2.1494E+07    1.6130E+08    1.1976E-01
      53-      1
       1           1.1306E+07 -3.7158E+06 -1.2122E+08  4.2852E+05  1.1859E+07 -8.9710E+06    1.2830E+08    1.5377E-01
      54-      1
       1          -4.2920E+07 -4.9544E+07 -2.1275E+08  5.1944E+06  1.4047E+06 -1.4131E+07    1.6866E+08    1.2555E-01
      55-      1
       1           1.5568E+07  2.1571E+07 -5.9288E+07  4.4240E+05  6.0958E+06 -1.6804E+07    8.3952E+07    8.3488E-02
      93-      1
       1           1.0291E+08  8.5438E+07 -1.9300E+08  2.3419E+06 -4.9291E+06  1.1463E+07    2.8841E+08    2.1155E-01
      94-      1
       1          -3.2176E+07 -1.4086E+07 -1.9387E+08 -2.8464E+06  6.7228E+06  4.6232E+06    1.7211E+08    1.3971E-01
      95-      1
[...]
      54-      1
       1          -2.8383E+07 -3.1867E+07 -1.1348E+08  1.0988E+06 -3.8774E+06 -8.9754E+06    8.5131E+07    2.5545E-01
      55-      1
       1          -7.4038E+07 -8.1799E+07 -2.0138E+08  2.8916E+03 -5.7516E+06 -1.4579E+07    1.2659E+08    1.9775E-01
      93-      1
       1           1.1065E+08  1.1018E+08 -1.5219E+08  6.9600E+05 -1.0486E+06 -9.5404E+05    2.6261E+08    5.7487E-01
      94-      1
       1          -2.2903E+06 -3.0057E+06 -4.8427E+07 -1.9126E+06  5.5824E+06  1.6906E+06    4.7001E+07    1.9546E-01
      95-      1
       1          -1.5164E+08 -1.4868E+08 -2.9003E+08 -4.3106E+06 -1.1870E+07 -3.9003E+06    1.4175E+08    2.7087E-01



 e l e m e n t   s t r a i n   c a l c u l a t i o n s   f o r   t i m e  s t e p      418   ( at time  8.62883E+01 )

 element  strain       eps-xx      eps-yy      eps-zz      eps-xy      eps-yz      eps-zx                            yield
 num/ipt   state
      13-      1
      1            3.2466E-01  3.2236E-01 -6.5181E-01 -6.8644E-03  1.4708E-02 -1.7700E-03
      14-      1
      1            3.1723E-01  3.2430E-01 -6.4491E-01  5.0101E-03  3.3525E-02  2.1260E-04
      15-      1
      1            3.3565E-01  2.8107E-01 -5.9016E-01  5.6333E-03  1.4188E-02 -3.3639E-02
      21-      1
      1            3.2688E-01  3.1595E-01 -6.5059E-01 -1.6219E-02  1.4030E-03  9.7047E-03
      22-      1
      1            3.4081E-01  3.4723E-01 -6.7744E-01 -8.1341E-04  2.8249E-03  2.3734E-02
      23-      1
      1            3.0383E-01  3.3519E-01 -6.0071E-01  1.3423E-02 -2.1997E-02  2.2543E-02
      53-      1
      1            3.7851E-01  3.6045E-01 -7.3063E-01  4.5087E-03  1.6860E-02 -1.3949E-02
      54-      1
      1            3.5363E-01  3.3215E-01 -6.8489E-01  9.1923E-03  3.8690E-02 -3.3117E-02
      55-      1
      1            2.9097E-01  2.7594E-01 -5.5622E-01  5.9449E-03  3.3102E-02 -4.3433E-02
      93-      1
      1            3.6852E-01  3.2339E-01 -6.9479E-01  9.1234E-05  3.1913E-03  1.4603E-02
      94-      1
      1            3.6467E-01  3.8579E-01 -7.2906E-01  8.1900E-04 -1.5590E-02  3.9467E-02
      95-      1
      1            2.9860E-01  3.6346E-01 -6.4766E-01  1.2526E-02 -3.9343E-02  4.8317E-02



 e l e m e n t   s t r e s s   c a l c u l a t i o n s   f o r   t i m e  s t e p      426   ( at time 8.94431E+01 )

 element  materl
     ipt  stress       sig-xx      sig-yy      sig-zz      sig-xy      sig-yz      sig-zx                       yield
           state                                                                                  effsg      function
      13-      1
       1           7.2398E+07  5.8025E+07 -1.9060E+08  1.4626E+06 -1.4265E+06  5.8466E+05    2.5614E+08    5.2446E-01
      14-      1
       1          -4.8622E+07 -5.7557E+07 -2.3967E+08 -2.5561E+06 -9.3539E+06 -6.4522E+06    1.8782E+08    3.3668E-01
      15-      1
       1          -7.2059E+07 -7.3791E+07 -1.6161E+08 -2.3688E+06 -5.5690E+06 -1.0260E+07    9.1061E+07    1.4918E-01
      21-      1
       1          -5.4258E+07 -5.6166E+07 -3.1396E+08  5.5648E+06 -9.7598E+06 -3.8339E+06    2.5957E+08    5.7211E-01
      22-      1
       1          -2.1208E+07 -2.2876E+07 -1.2810E+08  3.3856E+05 -3.4667E+06 -4.9578E+06    1.0659E+08    2.8366E-01
      23-      1
       1          -6.6052E+07 -8.3976E+07 -2.1876E+08  9.3114E+05  9.0672E+06 -1.1619E+07    1.4682E+08    2.5828E-01
      53-      1
       1          -7.4148E+07 -7.7333E+07 -1.2220E+08 -6.3513E+05 -1.7184E+05 -2.4787E+06    4.6755E+07    2.7525E-01
      54-      1
       1          -2.3714E+07 -2.6321E+07 -1.0946E+08  1.2423E+06 -2.3450E+06 -1.1628E+07    8.6967E+07    2.6292E-01
      55-      1
       1          -8.4447E+07 -8.4722E+07 -2.4954E+08 -3.4861E+06 -7.5309E+06 -1.1619E+07    1.6680E+08    2.0908E-01
      93-      1
       1           1.3722E+08  1.3345E+08 -1.2959E+08  1.8412E+06 -4.2172E+06  3.1890E+06    2.6512E+08    5.9328E-01
      94-      1
       1           8.2879E+05  2.6381E+06 -4.2409E+07  4.1068E+05 -4.3660E+06  1.0610E+06    4.4856E+07    1.9866E-01
      95-      1
       1          -1.5078E+08 -1.5079E+08 -2.9202E+08 -5.5440E+06 -1.3698E+07 -3.4554E+06    1.4366E+08    2.8095E-01



 e l e m e n t   s t r a i n   c a l c u l a t i o n s   f o r   t i m e  s t e p      426   ( at time  8.94431E+01 )

 element  strain       eps-xx      eps-yy      eps-zz      eps-xy      eps-yz      eps-zx                            yield
 num/ipt   state
      13-      1
      1            3.3816E-01  3.3382E-01 -6.7672E-01 -6.6673E-03  1.6525E-02 -8.2114E-04
      14-      1
      1            3.3090E-01  3.3516E-01 -6.6870E-01  4.5289E-03  4.1267E-02  4.5775E-03
      15-      1
      1            3.4713E-01  2.9216E-01 -6.1352E-01  5.0185E-03  2.3199E-02 -2.6665E-02
      21-      1
      1            3.4034E-01  3.2834E-01 -6.7715E-01 -1.5165E-02  1.7260E-03  1.0821E-02
      22-      1
      1            3.5319E-01  3.5857E-01 -7.0046E-01 -6.0607E-04  5.2122E-03  2.6484E-02
      23-      1
      1            3.1583E-01  3.4558E-01 -6.2709E-01  1.3677E-02 -1.7578E-02  3.0028E-02
      53-      1
      1            3.9535E-01  3.7529E-01 -7.6157E-01  4.4642E-03  1.9793E-02 -1.0982E-02
      54-      1
      1            3.6847E-01  3.4496E-01 -7.1306E-01  9.2149E-03  4.3483E-02 -2.9111E-02
      55-      1
      1            3.0192E-01  2.8633E-01 -5.7696E-01  5.0324E-03  3.7208E-02 -3.4823E-02
      93-      1
      1            3.8332E-01  3.3761E-01 -7.2370E-01 -6.3713E-05  3.4023E-03  1.5241E-02
      94-      1
      1            3.7911E-01  4.0077E-01 -7.5619E-01  6.0902E-04 -1.4955E-02  4.3138E-02
      95-      1
      1            3.1096E-01  3.7702E-01 -6.7696E-01  1.1226E-02 -3.1840E-02  5.3455E-02



 e l e m e n t   s t r e s s   c a l c u l a t i o n s   f o r   t i m e  s t e p      434   ( at time 9.25979E+01 )

 element  materl
     ipt  stress       sig-xx      sig-yy      sig-zz      sig-xy      sig-yz      sig-zx                       yield
           state                                                                                  effsg      function
      13-      1
       1           8.6177E+07  6.0279E+07 -1.8349E+08  1.4926E+05 -5.0693E+06  2.3705E+06    2.5788E+08    5.3930E-01
      14-      1
       1          -8.2622E+07 -8.5605E+07 -2.3304E+08 -1.9300E+06 -5.5306E+06 -5.0000E+06    1.4955E+08    3.4562E-01
      15-      1
       1          -1.1370E+08 -1.1613E+08 -2.0619E+08 -2.0664E+06 -3.7058E+06 -6.8442E+06    9.2354E+07    1.5628E-01
      21-      1
       1          -4.2985E+07 -4.6119E+07 -3.0635E+08  4.4115E+06 -7.9265E+06 -3.0860E+06    2.6234E+08    5.8883E-01
      22-      1
       1          -1.4756E+07 -1.8858E+07 -1.2322E+08  1.9207E+06 -5.0858E+06 -5.9179E+06    1.0737E+08    2.9022E-01
      23-      1
       1          -2.4817E+06 -2.9615E+07 -2.0344E+08  3.9664E+06  5.4907E+06 -1.3774E+07    1.9073E+08    2.6852E-01
      53-      1
       1          -7.7113E+07 -7.7167E+07 -1.2430E+08 -9.6129E+05 -4.0793E+05 -2.8351E+06    4.7446E+07    2.7942E-01
      54-      1
       1          -2.8126E+07 -2.8749E+07 -7.3408E+07 -5.2378E+05 -1.0490E+06 -7.5243E+06    4.6868E+07    2.6662E-01
      55-      1
       1          -1.1767E+08 -1.2116E+08 -2.4864E+08  1.0479E+06 -5.2317E+06 -1.3549E+07    1.3170E+08    2.1824E-01
      93-      1
       1           9.3664E+07  9.3182E+07 -1.2134E+08 -9.8930E+04  4.0012E+06  1.0378E+06    2.1488E+08    6.0858E-01
      94-      1
       1          -3.2858E+07 -3.2858E+07 -3.2858E+07  0.0000E+00  0.0000E+00  0.0000E+00    0.0000E+00    1.9866E-01
      95-      1
       1          -1.3675E+08 -1.3467E+08 -2.7775E+08 -4.1814E+06 -1.4643E+07 -3.7052E+06    1.4462E+08    2.9087E-01



 e l e m e n t   s t r a i n   c a l c u l a t i o n s   f o r   t i m e  s t e p      434   ( at time  9.25979E+01 )

 element  strain       eps-xx      eps-yy      eps-zz      eps-xy      eps-yz      eps-zx                            yield
 num/ipt   state
      13-      1
      1            3.5161E-01  3.4396E-01 -7.0045E-01 -6.6237E-03  1.9396E-02  3.4621E-05
      14-      1
      1            3.4370E-01  3.4571E-01 -6.9243E-01  3.4759E-03  4.7069E-02  8.6651E-03
      15-      1
      1            3.6042E-01  3.0408E-01 -6.3886E-01  4.1386E-03  2.9795E-02 -1.9742E-02
      21-      1
      1            3.5364E-01  3.4091E-01 -7.0306E-01 -1.4810E-02  1.3061E-03  1.1878E-02
      22-      1
      1            3.6592E-01  3.7014E-01 -7.2590E-01 -7.9651E-04  6.3473E-03  2.9823E-02
      23-      1
      1            3.2825E-01  3.5564E-01 -6.5192E-01  1.4073E-02 -1.1938E-02  3.7517E-02
      53-      1
      1            4.1068E-01  3.9068E-01 -7.9143E-01  3.1275E-03  2.2828E-02 -6.2922E-03
      54-      1
      1            3.8285E-01  3.5789E-01 -7.4034E-01  8.5007E-03  4.9360E-02 -2.2050E-02
      55-      1
      1            3.1407E-01  2.9662E-01 -5.9787E-01  5.1055E-03  4.2151E-02 -2.4390E-02
      93-      1
      1            3.9828E-01  3.5232E-01 -7.5347E-01 -2.6785E-04  4.6304E-03  1.6312E-02
      94-      1
      1            3.9358E-01  4.1577E-01 -7.8487E-01  1.2265E-03 -1.1955E-02  4.7087E-02
      95-      1
      1            3.2308E-01  3.9086E-01 -7.0532E-01  1.0594E-02 -2.3445E-02  5.9576E-02



 e l e m e n t   s t r e s s   c a l c u l a t i o n s   f o r   t i m e  s t e p      442   ( at time 9.57527E+01 )

 element  materl
     ipt  stress       sig-xx      sig-yy      sig-zz      sig-xy      sig-yz      sig-zx                       yield
           state                                                                                  effsg      function
      13-      1
       1           8.2283E+07  6.3518E+07 -1.8591E+08 -8.2922E+05 -1.6942E+06  1.1650E+06    2.5935E+08    5.5408E-01
      14-      1
       1          -4.1490E+07 -4.8137E+07 -2.3503E+08 -5.0378E+06 -5.6250E+06 -7.2283E+06    1.9116E+08    3.5691E-01
      15-      1
       1          -1.0962E+08 -1.1241E+08 -2.0212E+08 -2.1958E+06 -6.1280E+06 -1.0300E+07    9.3545E+07    1.6270E-01
      21-      1
       1          -5.6471E+07 -5.6481E+07 -3.1902E+08  5.3077E+06 -1.0361E+07 -1.6242E+06    2.6333E+08    6.0492E-01
      22-      1
       1          -1.6647E+07 -1.8296E+07 -1.2449E+08  8.8279E+05 -8.2314E+06 -2.7154E+06    1.0808E+08    2.9648E-01
      23-      1
       1          -7.5410E+07 -1.0050E+08 -2.3322E+08 -6.7836E+05  7.8013E+06 -1.2444E+07    1.4907E+08    2.7646E-01
      53-      1
       1          -7.0279E+07 -7.1751E+07 -1.1879E+08 -1.0842E+06 -3.2129E+05 -3.0684E+06    4.8128E+07    2.8373E-01
      54-      1
       1          -3.2219E+07 -3.2993E+07 -7.8564E+07 -9.0236E+04 -8.3185E+05 -6.8874E+06    4.7507E+07    2.7050E-01
      55-      1
       1          -1.1415E+08 -1.1463E+08 -2.8376E+08 -1.4241E+06 -7.8214E+06 -1.3898E+07    1.7163E+08    2.2971E-01
      93-      1
       1           7.7785E+07  7.2436E+07 -1.4165E+08  1.6688E+06  4.7027E+06  2.4263E+06    2.1702E+08    6.2331E-01
      94-      1
       1           1.3320E+06 -1.5037E+05 -4.6154E+07 -6.7844E+04 -4.6363E+06  8.9896E+05    4.7472E+07    2.0153E-01
      95-      1
       1          -1.0836E+08 -1.1287E+08 -2.9692E+08 -4.6209E+06 -2.5546E+07 -3.3251E+06    1.9178E+08    3.0270E-01



 e l e m e n t   s t r a i n   c a l c u l a t i o n s   f o r   t i m e  s t e p      442   ( at time  9.57527E+01 )

 element  strain       eps-xx      eps-yy      eps-zz      eps-xy      eps-yz      eps-zx                            yield
 num/ipt   state
      13-      1
      1            3.6471E-01  3.5443E-01 -7.2412E-01 -6.7615E-03  2.1575E-02  8.1045E-05
      14-      1
      1            3.5707E-01  3.5612E-01 -7.1551E-01  2.5599E-03  5.5700E-02  1.1003E-02
      15-      1
      1            3.7224E-01  3.1555E-01 -6.6247E-01  3.2361E-03  3.9702E-02 -1.4278E-02
      21-      1
      1            3.6592E-01  3.5277E-01 -7.2798E-01 -1.4087E-02  1.4320E-03  1.3686E-02
      22-      1
      1            3.7771E-01  3.8115E-01 -7.4792E-01 -8.0525E-04  8.8160E-03  3.5386E-02
      23-      1
      1            3.4002E-01  3.6497E-01 -6.7680E-01  1.3820E-02 -6.4134E-03  4.6819E-02
      53-      1
      1            4.2690E-01  4.0588E-01 -8.2133E-01  2.1772E-03  2.5919E-02 -1.8774E-03
      54-      1
      1            3.9788E-01  3.7071E-01 -7.6890E-01  7.9877E-03  5.5059E-02 -1.4876E-02
      55-      1
      1            3.2509E-01  3.0675E-01 -6.1862E-01  4.1314E-03  4.6962E-02 -1.3069E-02
      93-      1
      1            4.1317E-01  3.6591E-01 -7.8240E-01 -1.0289E-04  4.5310E-03  1.7415E-02
      94-      1
      1            4.0768E-01  4.2941E-01 -8.1143E-01  1.5313E-03 -1.1295E-02  5.0827E-02
      95-      1
      1            3.3489E-01  4.0288E-01 -7.3112E-01  9.3633E-03 -1.5847E-02  6.5009E-02



 e l e m e n t   s t r e s s   c a l c u l a t i o n s   f o r   t i m e  s t e p      450   ( at time 9.89075E+01 )

 element  materl
     ipt  stress       sig-xx      sig-yy      sig-zz      sig-xy      sig-yz      sig-zx                       yield
           state                                                                                  effsg      function
      13-      1
       1           7.8656E+07  4.7378E+07 -1.9680E+08 -6.4021E+05 -5.4175E+06  3.7441E+06    2.6148E+08    5.6850E-01
      14-      1
       1          -7.7620E+07 -8.1245E+07 -2.3113E+08 -3.9814E+06 -4.5189E+06 -2.6433E+05    1.5209E+08    3.6570E-01
      15-      1
       1          -1.2329E+08 -1.2573E+08 -2.5413E+08 -2.4300E+06 -8.5341E+06 -1.3506E+07    1.3262E+08    1.7240E-01
      21-      1
       1          -4.2273E+07 -5.1674E+07 -3.1249E+08  2.6880E+06 -7.6066E+06 -2.0814E+06    2.6604E+08    6.2097E-01
      22-      1
       1          -2.2626E+07 -2.4604E+07 -1.3185E+08  7.8470E+05 -5.0241E+06 -3.5242E+06    1.0877E+08    3.0346E-01
      23-      1
       1          -4.0104E+06 -2.9469E+07 -2.4417E+08  7.2530E+06 -2.4086E+07 -1.9439E+07    2.3504E+08    2.9110E-01
      53-      1
       1          -7.8711E+07 -8.0250E+07 -1.2771E+08 -9.1321E+05 -3.8992E+05 -4.0148E+06    4.8778E+07    2.8803E-01
      54-      1
       1          -3.7640E+07 -3.8517E+07 -8.5001E+07 -9.5063E+05 -8.6579E+05 -5.9470E+06    4.8098E+07    2.7424E-01
      55-      1
       1          -1.2380E+08 -1.2258E+08 -2.9360E+08  1.1192E+06 -8.0369E+06 -1.7796E+07    1.7375E+08    2.4177E-01
      93-      1
       1           5.3489E+07  5.3879E+07 -1.0964E+08  5.1791E+05  4.0455E+06  1.3785E+06    1.6350E+08    6.3419E-01
      94-      1
       1          -3.7095E+07 -3.7095E+07 -3.7095E+07  0.0000E+00  0.0000E+00  0.0000E+00    0.0000E+00    2.0153E-01
      95-      1
       1          -1.1970E+08 -1.1980E+08 -2.6503E+08 -1.3723E+05 -2.0715E+07 -1.5055E+06    1.4966E+08    3.1252E-01



 e l e m e n t   s t r a i n   c a l c u l a t i o n s   f o r   t i m e  s t e p      450   ( at time  9.89075E+01 )

 element  strain       eps-xx      eps-yy      eps-zz      eps-xy      eps-yz      eps-zx                            yield
 num/ipt   state
      13-      1
      1            3.7807E-01  3.6381E-01 -7.4732E-01 -6.7012E-03  2.4476E-02  1.0535E-04
      14-      1
      1            3.6952E-01  3.6558E-01 -7.3842E-01  1.3818E-03  6.2479E-02  1.3478E-02
      15-      1
      1            3.8534E-01  3.2693E-01 -6.8631E-01  1.9471E-03  4.7501E-02 -7.5325E-03
      21-      1
      1            3.7924E-01  3.6454E-01 -7.5311E-01 -1.4095E-02  4.8399E-04  1.4453E-02
      22-      1
      1            3.9092E-01  3.9242E-01 -7.7415E-01 -1.2197E-03  7.5571E-03  3.8276E-02
      23-      1
      1            3.5299E-01  3.7544E-01 -7.0032E-01  1.4216E-02 -1.7146E-03  5.4882E-02
      53-      1
      1            4.4295E-01  4.2117E-01 -8.5175E-01  7.4536E-04  2.9158E-02  2.3688E-03
      54-      1
      1            4.1153E-01  3.8343E-01 -7.9541E-01  6.4096E-03  6.1341E-02 -7.2634E-03
      55-      1
      1            3.3602E-01  3.1695E-01 -6.3791E-01  3.6065E-03  5.1528E-02 -2.4803E-03
      93-      1
      1            4.2751E-01  3.8033E-01 -8.1077E-01 -1.1315E-04  4.9398E-03  1.8347E-02
      94-      1
      1            4.2166E-01  4.4373E-01 -8.3963E-01  2.0706E-03 -1.1892E-02  5.3210E-02
      95-      1
      1            3.4754E-01  4.1605E-01 -7.5684E-01  9.4181E-03 -9.3840E-03  6.8535E-02



 e l e m e n t   s t r e s s   c a l c u l a t i o n s   f o r   t i m e  s t e p      454   ( at time 1.00000E+02 )

 element  materl
     ipt  stress       sig-xx      sig-yy      sig-zz      sig-xy      sig-yz      sig-zx                       yield
           state                                                                                  effsg      function
      13-      1
       1          -3.9586E+07 -6.1324E+07 -2.5778E+08 -2.6055E+06 -7.5853E+06  3.9787E+06    2.0875E+08    5.7006E-01
      14-      1
       1          -1.3509E+08 -1.4254E+08 -3.5134E+08 -4.6283E+06 -1.1911E+07 -9.7251E+05    2.1378E+08    3.6705E-01
      15-      1
       1          -1.5431E+08 -1.5637E+08 -2.4743E+08 -8.3410E+04 -8.3944E+06 -1.1034E+07    9.5180E+07    1.7333E-01
      21-      1
       1          -1.5671E+08 -1.6041E+08 -4.6117E+08  9.7641E+05 -3.1971E+06 -2.3733E+06    3.0271E+08    6.2304E-01
      22-      1
       1          -3.8569E+07 -3.6998E+07 -1.4569E+08  1.9552E+06 -6.3161E+06 -5.5263E+06    1.0894E+08    3.0431E-01
      23-      1
       1          -1.2466E+08 -1.3310E+08 -2.6261E+08  5.4151E+06 -2.2120E+07 -1.3635E+07    1.4160E+08    2.9239E-01
      53-      1
       1          -8.6772E+07 -8.5624E+07 -1.7352E+08 -2.0249E+06 -3.2773E+05 -5.5223E+06    8.7925E+07    2.8861E-01
      54-      1
       1          -6.7882E+07 -6.7990E+07 -1.1523E+08 -2.9214E+05 -5.9413E+05 -5.2614E+06    4.8176E+07    2.7474E-01
      55-      1
       1          -1.4304E+08 -1.4634E+08 -3.1655E+08 -4.3062E+05 -9.2852E+06 -1.6300E+07    1.7493E+08    2.4339E-01
      93-      1
       1          -7.8233E+06 -1.3325E+07 -1.7434E+08 -5.9134E+05  3.1821E+06  9.2615E+05    1.6394E+08    6.3569E-01
      94-      1
       1          -2.6732E+07 -2.5681E+07 -8.7423E+07  1.5470E+06 -4.3583E+06  1.4085E+06    6.1793E+07    2.0153E-01
      95-      1
       1          -1.6332E+08 -1.6349E+08 -3.3542E+08  9.0753E+05 -2.9405E+07 -3.5005E+06    1.7950E+08    3.1382E-01



 e l e m e n t   s t r a i n   c a l c u l a t i o n s   f o r   t i m e  s t e p      454   ( at time  1.00000E+02 )

 element  strain       eps-xx      eps-yy      eps-zz      eps-xy      eps-yz      eps-zx                            yield
 num/ipt   state
      13-      1
      1            3.7939E-01  3.6463E-01 -7.5104E-01 -6.8836E-03  2.4223E-02 -7.9999E-05
      14-      1
      1            3.7101E-01  3.6668E-01 -7.4204E-01  1.3216E-03  6.2931E-02  1.3495E-02
      15-      1
      1            3.8686E-01  3.2826E-01 -6.8972E-01  1.9449E-03  4.8733E-02 -6.6082E-03
      21-      1
      1            3.8016E-01  3.6544E-01 -7.5729E-01 -1.4089E-02 -6.7194E-05  1.4094E-02
      22-      1
      1            3.9201E-01  3.9369E-01 -7.7743E-01 -1.1269E-03  7.2208E-03  3.8232E-02
      23-      1
      1            3.5408E-01  3.7670E-01 -7.0372E-01  1.4342E-02 -9.4155E-04  5.6096E-02
      53-      1
      1            4.4462E-01  4.2290E-01 -8.5589E-01  4.9674E-04  2.9480E-02  2.6653E-03
      54-      1
      1            4.1332E-01  3.8487E-01 -7.9972E-01  6.2477E-03  6.2060E-02 -6.4207E-03
      55-      1
      1            3.3748E-01  3.1802E-01 -6.4075E-01  3.4153E-03  5.2203E-02 -4.9060E-04
      93-      1
      1            4.2892E-01  3.8134E-01 -8.1547E-01 -1.5339E-04  4.4622E-03  1.8505E-02
      94-      1
      1            4.2298E-01  4.4515E-01 -8.4329E-01  2.1698E-03 -1.2151E-02  5.3845E-02
      95-      1
      1            3.4854E-01  4.1732E-01 -7.6066E-01  9.3461E-03 -8.1468E-03  6.9434E-02
