 LS-DYNA keyword deck by LS-PrePost                                      
                    ls-dyna smp d R14 R14.1.1s_1_ef50e1 date 06/16/2024

{BEGIN LEGEND}
 Entity #        Title
        1     Notched Bar                                                             
{END LEGEND}



 time =   0.0000E+00
 mat.#=    1             inten=  -2.0420E-12     kinen=   0.0000E+00     eroded_ie=   0.0000E+00     eroded_ke=   0.0000E+00
 x-mom=   0.0000E+00     y-mom=   0.0000E+00     z-mom=   0.0000E+00
 x-rbv=   0.0000E+00     y-rbv=   0.0000E+00     z-rbv=   0.0000E+00


 time =   1.2924E+00
 mat.#=    1             inten=   2.7169E-02     kinen=   0.0000E+00     eroded_ie=   0.0000E+00     eroded_ke=   0.0000E+00
 x-mom=   0.0000E+00     y-mom=   0.0000E+00     z-mom=   0.0000E+00
 x-rbv=   0.0000E+00     y-rbv=   0.0000E+00     z-rbv=   0.0000E+00


 time =   2.5484E+00
 mat.#=    1             inten=   1.6230E-01     kinen=   0.0000E+00     eroded_ie=   0.0000E+00     eroded_ke=   0.0000E+00
 x-mom=   0.0000E+00     y-mom=   0.0000E+00     z-mom=   0.0000E+00
 x-rbv=   0.0000E+00     y-rbv=   0.0000E+00     z-rbv=   0.0000E+00


 time =   3.8043E+00
 mat.#=    1             inten=   3.2246E-01     kinen=   0.0000E+00     eroded_ie=   0.0000E+00     eroded_ke=   0.0000E+00
 x-mom=   0.0000E+00     y-mom=   0.0000E+00     z-mom=   0.0000E+00
 x-rbv=   0.0000E+00     y-rbv=   0.0000E+00     z-rbv=   0.0000E+00


 time =   5.0603E+00
 mat.#=    1             inten=   4.9169E-01     kinen=   0.0000E+00     eroded_ie=   0.0000E+00     eroded_ke=   0.0000E+00
 x-mom=   0.0000E+00     y-mom=   0.0000E+00     z-mom=   0.0000E+00
 x-rbv=   0.0000E+00     y-rbv=   0.0000E+00     z-rbv=   0.0000E+00


 time =   6.3162E+00
 mat.#=    1             inten=   6.3952E-01     kinen=   0.0000E+00     eroded_ie=   0.0000E+00     eroded_ke=   0.0000E+00
 x-mom=   0.0000E+00     y-mom=   0.0000E+00     z-mom=   0.0000E+00
 x-rbv=   0.0000E+00     y-rbv=   0.0000E+00     z-rbv=   0.0000E+00


 time =   7.5722E+00
 mat.#=    1             inten=   7.7731E-01     kinen=   0.0000E+00     eroded_ie=   0.0000E+00     eroded_ke=   0.0000E+00
 x-mom=   0.0000E+00     y-mom=   0.0000E+00     z-mom=   0.0000E+00
 x-rbv=   0.0000E+00     y-rbv=   0.0000E+00     z-rbv=   0.0000E+00


 time =   8.8281E+00
 mat.#=    1             inten=   9.0976E-01     kinen=   0.0000E+00     eroded_ie=   0.0000E+00     eroded_ke=   0.0000E+00
 x-mom=   0.0000E+00     y-mom=   0.0000E+00     z-mom=   0.0000E+00
 x-rbv=   0.0000E+00     y-rbv=   0.0000E+00     z-rbv=   0.0000E+00


 time =   1.0084E+01
 mat.#=    1             inten=   1.0333E+00     kinen=   0.0000E+00     eroded_ie=   0.0000E+00     eroded_ke=   0.0000E+00
 x-mom=   0.0000E+00     y-mom=   0.0000E+00     z-mom=   0.0000E+00
 x-rbv=   0.0000E+00     y-rbv=   0.0000E+00     z-rbv=   0.0000E+00


 time =   1.1340E+01
 mat.#=    1             inten=   1.1410E+00     kinen=   0.0000E+00     eroded_ie=   0.0000E+00     eroded_ke=   0.0000E+00
 x-mom=   0.0000E+00     y-mom=   0.0000E+00     z-mom=   0.0000E+00
 x-rbv=   0.0000E+00     y-rbv=   0.0000E+00     z-rbv=   0.0000E+00


 time =   1.2596E+01
 mat.#=    1             inten=   1.2322E+00     kinen=   0.0000E+00     eroded_ie=   0.0000E+00     eroded_ke=   0.0000E+00
 x-mom=   0.0000E+00     y-mom=   0.0000E+00     z-mom=   0.0000E+00
 x-rbv=   0.0000E+00     y-rbv=   0.0000E+00     z-rbv=   0.0000E+00


 time =   1.3852E+01
 mat.#=    1             inten=   1.3112E+00     kinen=   0.0000E+00     eroded_ie=   0.0000E+00     eroded_ke=   0.0000E+00
 x-mom=   0.0000E+00     y-mom=   0.0000E+00     z-mom=   0.0000E+00
 x-rbv=   0.0000E+00     y-rbv=   0.0000E+00     z-rbv=   0.0000E+00


 time =   1.5108E+01
 mat.#=    1             inten=   1.3833E+00     kinen=   0.0000E+00     eroded_ie=   0.0000E+00     eroded_ke=   0.0000E+00
 x-mom=   0.0000E+00     y-mom=   0.0000E+00     z-mom=   0.0000E+00
 x-rbv=   0.0000E+00     y-rbv=   0.0000E+00     z-rbv=   0.0000E+00


 time =   1.6364E+01
 mat.#=    1             inten=   1.4520E+00     kinen=   0.0000E+00     eroded_ie=   0.0000E+00     eroded_ke=   0.0000E+00
 x-mom=   0.0000E+00     y-mom=   0.0000E+00     z-mom=   0.0000E+00
 x-rbv=   0.0000E+00     y-rbv=   0.0000E+00     z-rbv=   0.0000E+00


 time =   1.7620E+01
 mat.#=    1             inten=   1.5161E+00     kinen=   0.0000E+00     eroded_ie=   0.0000E+00     eroded_ke=   0.0000E+00
 x-mom=   0.0000E+00     y-mom=   0.0000E+00     z-mom=   0.0000E+00
 x-rbv=   0.0000E+00     y-rbv=   0.0000E+00     z-rbv=   0.0000E+00


 time =   1.8876E+01
 mat.#=    1             inten=   1.5772E+00     kinen=   0.0000E+00     eroded_ie=   0.0000E+00     eroded_ke=   0.0000E+00
 x-mom=   0.0000E+00     y-mom=   0.0000E+00     z-mom=   0.0000E+00
 x-rbv=   0.0000E+00     y-rbv=   0.0000E+00     z-rbv=   0.0000E+00


 time =   2.0132E+01
 mat.#=    1             inten=   1.6357E+00     kinen=   0.0000E+00     eroded_ie=   0.0000E+00     eroded_ke=   0.0000E+00
 x-mom=   0.0000E+00     y-mom=   0.0000E+00     z-mom=   0.0000E+00
 x-rbv=   0.0000E+00     y-rbv=   0.0000E+00     z-rbv=   0.0000E+00


 time =   2.1388E+01
 mat.#=    1             inten=   1.6851E+00     kinen=   0.0000E+00     eroded_ie=   0.0000E+00     eroded_ke=   0.0000E+00
 x-mom=   0.0000E+00     y-mom=   0.0000E+00     z-mom=   0.0000E+00
 x-rbv=   0.0000E+00     y-rbv=   0.0000E+00     z-rbv=   0.0000E+00


 time =   2.2643E+01
 mat.#=    1             inten=   1.7349E+00     kinen=   0.0000E+00     eroded_ie=   0.0000E+00     eroded_ke=   0.0000E+00
 x-mom=   0.0000E+00     y-mom=   0.0000E+00     z-mom=   0.0000E+00
 x-rbv=   0.0000E+00     y-rbv=   0.0000E+00     z-rbv=   0.0000E+00


 time =   2.3899E+01
 mat.#=    1             inten=   1.7935E+00     kinen=   0.0000E+00     eroded_ie=   0.0000E+00     eroded_ke=   0.0000E+00
 x-mom=   0.0000E+00     y-mom=   0.0000E+00     z-mom=   0.0000E+00
 x-rbv=   0.0000E+00     y-rbv=   0.0000E+00     z-rbv=   0.0000E+00


 time =   2.5155E+01
 mat.#=    1             inten=   1.8498E+00     kinen=   0.0000E+00     eroded_ie=   0.0000E+00     eroded_ke=   0.0000E+00
 x-mom=   0.0000E+00     y-mom=   0.0000E+00     z-mom=   0.0000E+00
 x-rbv=   0.0000E+00     y-rbv=   0.0000E+00     z-rbv=   0.0000E+00


 time =   2.6411E+01
 mat.#=    1             inten=   1.9071E+00     kinen=   0.0000E+00     eroded_ie=   0.0000E+00     eroded_ke=   0.0000E+00
 x-mom=   0.0000E+00     y-mom=   0.0000E+00     z-mom=   0.0000E+00
 x-rbv=   0.0000E+00     y-rbv=   0.0000E+00     z-rbv=   0.0000E+00


 time =   2.7667E+01
 mat.#=    1             inten=   1.9639E+00     kinen=   0.0000E+00     eroded_ie=   0.0000E+00     eroded_ke=   0.0000E+00
 x-mom=   0.0000E+00     y-mom=   0.0000E+00     z-mom=   0.0000E+00
 x-rbv=   0.0000E+00     y-rbv=   0.0000E+00     z-rbv=   0.0000E+00


 time =   2.8923E+01
 mat.#=    1             inten=   2.0161E+00     kinen=   0.0000E+00     eroded_ie=   0.0000E+00     eroded_ke=   0.0000E+00
 x-mom=   0.0000E+00     y-mom=   0.0000E+00     z-mom=   0.0000E+00
 x-rbv=   0.0000E+00     y-rbv=   0.0000E+00     z-rbv=   0.0000E+00


 time =   3.0179E+01
 mat.#=    1             inten=   2.0675E+00     kinen=   0.0000E+00     eroded_ie=   0.0000E+00     eroded_ke=   0.0000E+00
 x-mom=   0.0000E+00     y-mom=   0.0000E+00     z-mom=   0.0000E+00
 x-rbv=   0.0000E+00     y-rbv=   0.0000E+00     z-rbv=   0.0000E+00


 time =   3.1435E+01
 mat.#=    1             inten=   2.1285E+00     kinen=   0.0000E+00     eroded_ie=   0.0000E+00     eroded_ke=   0.0000E+00
 x-mom=   0.0000E+00     y-mom=   0.0000E+00     z-mom=   0.0000E+00
 x-rbv=   0.0000E+00     y-rbv=   0.0000E+00     z-rbv=   0.0000E+00


 time =   3.2691E+01
 mat.#=    1             inten=   2.1859E+00     kinen=   0.0000E+00     eroded_ie=   0.0000E+00     eroded_ke=   0.0000E+00
 x-mom=   0.0000E+00     y-mom=   0.0000E+00     z-mom=   0.0000E+00
 x-rbv=   0.0000E+00     y-rbv=   0.0000E+00     z-rbv=   0.0000E+00


 time =   3.3947E+01
 mat.#=    1             inten=   2.2427E+00     kinen=   0.0000E+00     eroded_ie=   0.0000E+00     eroded_ke=   0.0000E+00
 x-mom=   0.0000E+00     y-mom=   0.0000E+00     z-mom=   0.0000E+00
 x-rbv=   0.0000E+00     y-rbv=   0.0000E+00     z-rbv=   0.0000E+00


 time =   3.5203E+01
 mat.#=    1             inten=   2.2995E+00     kinen=   0.0000E+00     eroded_ie=   0.0000E+00     eroded_ke=   0.0000E+00
 x-mom=   0.0000E+00     y-mom=   0.0000E+00     z-mom=   0.0000E+00
 x-rbv=   0.0000E+00     y-rbv=   0.0000E+00     z-rbv=   0.0000E+00


 time =   3.6459E+01
 mat.#=    1             inten=   2.3560E+00     kinen=   0.0000E+00     eroded_ie=   0.0000E+00     eroded_ke=   0.0000E+00
 x-mom=   0.0000E+00     y-mom=   0.0000E+00     z-mom=   0.0000E+00
 x-rbv=   0.0000E+00     y-rbv=   0.0000E+00     z-rbv=   0.0000E+00


 time =   3.7715E+01
 mat.#=    1             inten=   2.4134E+00     kinen=   0.0000E+00     eroded_ie=   0.0000E+00     eroded_ke=   0.0000E+00
 x-mom=   0.0000E+00     y-mom=   0.0000E+00     z-mom=   0.0000E+00
 x-rbv=   0.0000E+00     y-rbv=   0.0000E+00     z-rbv=   0.0000E+00


 time =   3.8971E+01
 mat.#=    1             inten=   2.4701E+00     kinen=   0.0000E+00     eroded_ie=   0.0000E+00     eroded_ke=   0.0000E+00
 x-mom=   0.0000E+00     y-mom=   0.0000E+00     z-mom=   0.0000E+00
 x-rbv=   0.0000E+00     y-rbv=   0.0000E+00     z-rbv=   0.0000E+00


 time =   4.0227E+01
 mat.#=    1             inten=   2.5274E+00     kinen=   0.0000E+00     eroded_ie=   0.0000E+00     eroded_ke=   0.0000E+00
 x-mom=   0.0000E+00     y-mom=   0.0000E+00     z-mom=   0.0000E+00
 x-rbv=   0.0000E+00     y-rbv=   0.0000E+00     z-rbv=   0.0000E+00


 time =   4.1483E+01
 mat.#=    1             inten=   2.5862E+00     kinen=   0.0000E+00     eroded_ie=   0.0000E+00     eroded_ke=   0.0000E+00
 x-mom=   0.0000E+00     y-mom=   0.0000E+00     z-mom=   0.0000E+00
 x-rbv=   0.0000E+00     y-rbv=   0.0000E+00     z-rbv=   0.0000E+00


 time =   4.3473E+01
 mat.#=    1             inten=   2.7081E+00     kinen=   0.0000E+00     eroded_ie=   0.0000E+00     eroded_ke=   0.0000E+00
 x-mom=   0.0000E+00     y-mom=   0.0000E+00     z-mom=   0.0000E+00
 x-rbv=   0.0000E+00     y-rbv=   0.0000E+00     z-rbv=   0.0000E+00


 time =   4.5464E+01
 mat.#=    1             inten=   2.8097E+00     kinen=   0.0000E+00     eroded_ie=   0.0000E+00     eroded_ke=   0.0000E+00
 x-mom=   0.0000E+00     y-mom=   0.0000E+00     z-mom=   0.0000E+00
 x-rbv=   0.0000E+00     y-rbv=   0.0000E+00     z-rbv=   0.0000E+00


 time =   4.7454E+01
 mat.#=    1             inten=   2.9058E+00     kinen=   0.0000E+00     eroded_ie=   0.0000E+00     eroded_ke=   0.0000E+00
 x-mom=   0.0000E+00     y-mom=   0.0000E+00     z-mom=   0.0000E+00
 x-rbv=   0.0000E+00     y-rbv=   0.0000E+00     z-rbv=   0.0000E+00


 time =   4.9445E+01
 mat.#=    1             inten=   3.0005E+00     kinen=   0.0000E+00     eroded_ie=   0.0000E+00     eroded_ke=   0.0000E+00
 x-mom=   0.0000E+00     y-mom=   0.0000E+00     z-mom=   0.0000E+00
 x-rbv=   0.0000E+00     y-rbv=   0.0000E+00     z-rbv=   0.0000E+00


 time =   5.1435E+01
 mat.#=    1             inten=   3.0917E+00     kinen=   0.0000E+00     eroded_ie=   0.0000E+00     eroded_ke=   0.0000E+00
 x-mom=   0.0000E+00     y-mom=   0.0000E+00     z-mom=   0.0000E+00
 x-rbv=   0.0000E+00     y-rbv=   0.0000E+00     z-rbv=   0.0000E+00


 time =   5.3426E+01
 mat.#=    1             inten=   3.1816E+00     kinen=   0.0000E+00     eroded_ie=   0.0000E+00     eroded_ke=   0.0000E+00
 x-mom=   0.0000E+00     y-mom=   0.0000E+00     z-mom=   0.0000E+00
 x-rbv=   0.0000E+00     y-rbv=   0.0000E+00     z-rbv=   0.0000E+00


 time =   5.5416E+01
 mat.#=    1             inten=   3.2720E+00     kinen=   0.0000E+00     eroded_ie=   0.0000E+00     eroded_ke=   0.0000E+00
 x-mom=   0.0000E+00     y-mom=   0.0000E+00     z-mom=   0.0000E+00
 x-rbv=   0.0000E+00     y-rbv=   0.0000E+00     z-rbv=   0.0000E+00


 time =   5.7407E+01
 mat.#=    1             inten=   3.3643E+00     kinen=   0.0000E+00     eroded_ie=   0.0000E+00     eroded_ke=   0.0000E+00
 x-mom=   0.0000E+00     y-mom=   0.0000E+00     z-mom=   0.0000E+00
 x-rbv=   0.0000E+00     y-rbv=   0.0000E+00     z-rbv=   0.0000E+00


 time =   5.9397E+01
 mat.#=    1             inten=   3.4577E+00     kinen=   0.0000E+00     eroded_ie=   0.0000E+00     eroded_ke=   0.0000E+00
 x-mom=   0.0000E+00     y-mom=   0.0000E+00     z-mom=   0.0000E+00
 x-rbv=   0.0000E+00     y-rbv=   0.0000E+00     z-rbv=   0.0000E+00


 time =   6.1388E+01
 mat.#=    1             inten=   3.5537E+00     kinen=   0.0000E+00     eroded_ie=   0.0000E+00     eroded_ke=   0.0000E+00
 x-mom=   0.0000E+00     y-mom=   0.0000E+00     z-mom=   0.0000E+00
 x-rbv=   0.0000E+00     y-rbv=   0.0000E+00     z-rbv=   0.0000E+00


 time =   6.3379E+01
 mat.#=    1             inten=   3.6483E+00     kinen=   0.0000E+00     eroded_ie=   0.0000E+00     eroded_ke=   0.0000E+00
 x-mom=   0.0000E+00     y-mom=   0.0000E+00     z-mom=   0.0000E+00
 x-rbv=   0.0000E+00     y-rbv=   0.0000E+00     z-rbv=   0.0000E+00


 time =   6.5369E+01
 mat.#=    1             inten=   3.7463E+00     kinen=   0.0000E+00     eroded_ie=   0.0000E+00     eroded_ke=   0.0000E+00
 x-mom=   0.0000E+00     y-mom=   0.0000E+00     z-mom=   0.0000E+00
 x-rbv=   0.0000E+00     y-rbv=   0.0000E+00     z-rbv=   0.0000E+00


 time =   6.7360E+01
 mat.#=    1             inten=   3.8530E+00     kinen=   0.0000E+00     eroded_ie=   0.0000E+00     eroded_ke=   0.0000E+00
 x-mom=   0.0000E+00     y-mom=   0.0000E+00     z-mom=   0.0000E+00
 x-rbv=   0.0000E+00     y-rbv=   0.0000E+00     z-rbv=   0.0000E+00


 time =   7.0514E+01
 mat.#=    1             inten=   4.1191E+00     kinen=   0.0000E+00     eroded_ie=   0.0000E+00     eroded_ke=   0.0000E+00
 x-mom=   0.0000E+00     y-mom=   0.0000E+00     z-mom=   0.0000E+00
 x-rbv=   0.0000E+00     y-rbv=   0.0000E+00     z-rbv=   0.0000E+00


 time =   7.3669E+01
 mat.#=    1             inten=   4.3527E+00     kinen=   0.0000E+00     eroded_ie=   0.0000E+00     eroded_ke=   0.0000E+00
 x-mom=   0.0000E+00     y-mom=   0.0000E+00     z-mom=   0.0000E+00
 x-rbv=   0.0000E+00     y-rbv=   0.0000E+00     z-rbv=   0.0000E+00


 time =   7.6824E+01
 mat.#=    1             inten=   4.5816E+00     kinen=   0.0000E+00     eroded_ie=   0.0000E+00     eroded_ke=   0.0000E+00
 x-mom=   0.0000E+00     y-mom=   0.0000E+00     z-mom=   0.0000E+00
 x-rbv=   0.0000E+00     y-rbv=   0.0000E+00     z-rbv=   0.0000E+00


 time =   7.9979E+01
 mat.#=    1             inten=   4.8026E+00     kinen=   0.0000E+00     eroded_ie=   0.0000E+00     eroded_ke=   0.0000E+00
 x-mom=   0.0000E+00     y-mom=   0.0000E+00     z-mom=   0.0000E+00
 x-rbv=   0.0000E+00     y-rbv=   0.0000E+00     z-rbv=   0.0000E+00


 time =   8.3134E+01
 mat.#=    1             inten=   4.9817E+00     kinen=   0.0000E+00     eroded_ie=   0.0000E+00     eroded_ke=   0.0000E+00
 x-mom=   0.0000E+00     y-mom=   0.0000E+00     z-mom=   0.0000E+00
 x-rbv=   0.0000E+00     y-rbv=   0.0000E+00     z-rbv=   0.0000E+00


 time =   8.6288E+01
 mat.#=    1             inten=   5.2130E+00     kinen=   0.0000E+00     eroded_ie=   0.0000E+00     eroded_ke=   0.0000E+00
 x-mom=   0.0000E+00     y-mom=   0.0000E+00     z-mom=   0.0000E+00
 x-rbv=   0.0000E+00     y-rbv=   0.0000E+00     z-rbv=   0.0000E+00


 time =   8.9443E+01
 mat.#=    1             inten=   5.4190E+00     kinen=   0.0000E+00     eroded_ie=   0.0000E+00     eroded_ke=   0.0000E+00
 x-mom=   0.0000E+00     y-mom=   0.0000E+00     z-mom=   0.0000E+00
 x-rbv=   0.0000E+00     y-rbv=   0.0000E+00     z-rbv=   0.0000E+00


 time =   9.2598E+01
 mat.#=    1             inten=   5.6277E+00     kinen=   0.0000E+00     eroded_ie=   0.0000E+00     eroded_ke=   0.0000E+00
 x-mom=   0.0000E+00     y-mom=   0.0000E+00     z-mom=   0.0000E+00
 x-rbv=   0.0000E+00     y-rbv=   0.0000E+00     z-rbv=   0.0000E+00


 time =   9.5753E+01
 mat.#=    1             inten=   5.8493E+00     kinen=   0.0000E+00     eroded_ie=   0.0000E+00     eroded_ke=   0.0000E+00
 x-mom=   0.0000E+00     y-mom=   0.0000E+00     z-mom=   0.0000E+00
 x-rbv=   0.0000E+00     y-rbv=   0.0000E+00     z-rbv=   0.0000E+00


 time =   9.8907E+01
 mat.#=    1             inten=   6.0906E+00     kinen=   0.0000E+00     eroded_ie=   0.0000E+00     eroded_ke=   0.0000E+00
 x-mom=   0.0000E+00     y-mom=   0.0000E+00     z-mom=   0.0000E+00
 x-rbv=   0.0000E+00     y-rbv=   0.0000E+00     z-rbv=   0.0000E+00


 time =   1.0000E+02
 mat.#=    1             inten=   6.1723E+00     kinen=   0.0000E+00     eroded_ie=   0.0000E+00     eroded_ke=   0.0000E+00
 x-mom=   0.0000E+00     y-mom=   0.0000E+00     z-mom=   0.0000E+00
 x-rbv=   0.0000E+00     y-rbv=   0.0000E+00     z-rbv=   0.0000E+00
