 LS-DYNA keyword deck by LS-PrePost                                      
                    ls-dyna smp d R14 R14.1.1s_1_ef50e1 date 06/16/2024

{BEGIN LEGEND}
 Entity #        Title
        1                                                                                     
        2                                                                                     
        3                                                                                     
        4                                                                                     
        5                                                                                     
        6                                                                                     
        7                                                                                     
        8                                                                                     
        9                                                                                     
       10                                                                                     
       11                                                                                     
       12                                                                                     
       13                                                                                     
       14                                                                                     
       15                                                                                     
       16                                                                                     
       17                                                                                     
       18                                                                                     
       19                                                                                     
       69                                                                                     
       70                                                                                     
       71                                                                                     
       73                                                                                     
       74                                                                                     
       75                                                                                     
       77                                                                                     
       78                                                                                     
       79                                                                                     
       81                                                                                     
       82                                                                                     
       83                                                                                     
       85                                                                                     
       86                                                                                     
       87                                                                                     
       89                                                                                     
       90                                                                                     
       91                                                                                     
       93                                                                                     
       94                                                                                     
       95                                                                                     
       97                                                                                     
       98                                                                                     
       99                                                                                     
      124                                                                                     
      125                                                                                     
      126                                                                                     
      127                                                                                     
      128                                                                                     
      129                                                                                     
      130                                                                                     
      131                                                                                     
      132                                                                                     
      133                                                                                     
      134                                                                                     
      135                                                                                     
      136                                                                                     
      137                                                                                     
      138                                                                                     
      139                                                                                     
      140                                                                                     
      141                                                                                     
      142                                                                                     
      143                                                                                     
      144                                                                                     
      145                                                                                     
      146                                                                                     
      147                                                                                     
      148                                                                                     
      149                                                                                     
      150                                                                                     
      151                                                                                     
      152                                                                                     
      153                                                                                     
      154                                                                                     
      155                                                                                     
      156                                                                                     
      157                                                                                     
      158                                                                                     
      159                                                                                     
      160                                                                                     
      161                                                                                     
      162                                                                                     
      163                                                                                     
      164                                                                                     
      165                                                                                     
      166                                                                                     
      167                                                                                     
      168                                                                                     
      169                                                                                     
      170                                                                                     
      171                                                                                     
      172                                                                                     
      175                                                                                     
      176                                                                                     
      179                                                                                     
      180                                                                                     
      183                                                                                     
      184                                                                                     
      187                                                                                     
      188                                                                                     
      191                                                                                     
      192                                                                                     
      195                                                                                     
      196                                                                                     
      199                                                                                     
      200                                                                                     
      203                                                                                     
      204                                                                                     
      207                                                                                     
      208                                                                                     
      211                                                                                     
      212                                                                                     
      215                                                                                     
      216                                                                                     
      219                                                                                     
      220                                                                                     
      221                                                                                     
      222                                                                                     
      223                                                                                     
      225                                                                                     
      227                                                                                     
      229                                                                                     
      231                                                                                     
      233                                                                                     
      235                                                                                     
      237                                                                                     
      239                                                                                     
      241                                                                                     
      243                                                                                     
      245                                                                                     
      247                                                                                     
      248                                                                                     
      249                                                                                     
      286                                                                                     
      287                                                                                     
      288                                                                                     
      301                                                                                     
      314                                                                                     
      317                                                                                     
      318                                                                                     
      321                                                                                     
      322                                                                                     
      325                                                                                     
      326                                                                                     
      329                                                                                     
      330                                                                                     
      333                                                                                     
      334                                                                                     
      337                                                                                     
      338                                                                                     
      341                                                                                     
      342                                                                                     
      345                                                                                     
      346                                                                                     
      349                                                                                     
      350                                                                                     
      353                                                                                     
      354                                                                                     
      357                                                                                     
      358                                                                                     
      361                                                                                     
      362                                                                                     
      363                                                                                     
      364                                                                                     
      365                                                                                     
      366                                                                                     
      367                                                                                     
      368                                                                                     
      369                                                                                     
      370                                                                                     
      371                                                                                     
      372                                                                                     
      373                                                                                     
      374                                                                                     
      375                                                                                     
      376                                                                                     
      377                                                                                     
      378                                                                                     
      379                                                                                     
      380                                                                                     
      381                                                                                     
      382                                                                                     
      383                                                                                     
      384                                                                                     
      385                                                                                     
      386                                                                                     
      387                                                                                     
      388                                                                                     
      389                                                                                     
      390                                                                                     
      391                                                                                     
      392                                                                                     
      393                                                                                     
      394                                                                                     
      395                                                                                     
      396                                                                                     
      397                                                                                     
      398                                                                                     
      399                                                                                     
      400                                                                                     
      401                                                                                     
      402                                                                                     
      403                                                                                     
      404                                                                                     
      405                                                                                     
      406                                                                                     
      407                                                                                     
      408                                                                                     
      409                                                                                     
      410                                                                                     
      411                                                                                     
      412                                                                                     
      413                                                                                     
      414                                                                                     
      415                                                                                     
      416                                                                                     
      417                                                                                     
      418                                                                                     
      419                                                                                     
      420                                                                                     
      421                                                                                     
      422                                                                                     
      423                                                                                     
      424                                                                                     
      425                                                                                     
      426                                                                                     
      427                                                                                     
      428                                                                                     
      429                                                                                     
      430                                                                                     
      431                                                                                     
      432                                                                                     
      433                                                                                     
      434                                                                                     
      435                                                                                     
      436                                                                                     
      437                                                                                     
      438                                                                                     
      439                                                                                     
      440                                                                                     
      441                                                                                     
      442                                                                                     
      443                                                                                     
      444                                                                                     
      445                                                                                     
      446                                                                                     
      447                                                                                     
      448                                                                                     
      449                                                                                     
      450                                                                                     
      451                                                                                     
      452                                                                                     
      453                                                                                     
      454                                                                                     
      455                                                                                     
      456                                                                                     
      457                                                                                     
      458                                                                                     
      459                                                                                     
      460                                                                                     
      461                                                                                     
      462                                                                                     
      463                                                                                     
      464                                                                                     
      465                                                                                     
      466                                                                                     
      467                                                                                     
      468                                                                                     
      469                                                                                     
      470                                                                                     
      471                                                                                     
      472                                                                                     
      473                                                                                     
      474                                                                                     
      475                                                                                     
      476                                                                                     
      477                                                                                     
      478                                                                                     
      479                                                                                     
      480                                                                                     
      481                                                                                     
      482                                                                                     
      483                                                                                     
      484                                                                                     
      485                                                                                     
      486                                                                                     
      487                                                                                     
      488                                                                                     
      489                                                                                     
      490                                                                                     
      491                                                                                     
      492                                                                                     
      493                                                                                     
      494                                                                                     
      495                                                                                     
      496                                                                                     
      497                                                                                     
      498                                                                                     
      499                                                                                     
      500                                                                                     
      501                                                                                     
      502                                                                                     
      503                                                                                     
      504                                                                                     
      505                                                                                     
      506                                                                                     
      507                                                                                     
      508                                                                                     
      509                                                                                     
      510                                                                                     
      511                                                                                     
      512                                                                                     
      513                                                                                     
      514                                                                                     
      515                                                                                     
      516                                                                                     
      529                                                                                     
      530                                                                                     
      531                                                                                     
      532                                                                                     
      545                                                                                     
      546                                                                                     
      547                                                                                     
      548                                                                                     
      561                                                                                     
      562                                                                                     
      563                                                                                     
      564                                                                                     
      571                                                                                     
      572                                                                                     
      585                                                                                     
      586                                                                                     
      587                                                                                     
      588                                                                                     
      591                                                                                     
      592                                                                                     
      595                                                                                     
      596                                                                                     
      599                                                                                     
      600                                                                                     
      601                                                                                     
      602                                                                                     
      603                                                                                     
      604                                                                                     
      617                                                                                     
      618                                                                                     
      619                                                                                     
      620                                                                                     
      633                                                                                     
      634                                                                                     
      635                                                                                     
      636                                                                                     
      638                                                                                     
      639                                                                                     
      641                                                                                     
      642                                                                                     
      644                                                                                     
      645                                                                                     
      646                                                                                     
      647                                                                                     
      648                                                                                     
      658                                                                                     
      659                                                                                     
      660                                                                                     
      670                                                                                     
      671                                                                                     
      672                                                                                     
      674                                                                                     
      676                                                                                     
      678                                                                                     
      679                                                                                     
      680                                                                                     
      693                                                                                     
      694                                                                                     
      695                                                                                     
      696                                                                                     
      700                                                                                     
      707                                                                                     
      708                                                                                     
      712                                                                                     
      716                                                                                     
      723                                                                                     
      724                                                                                     
      731                                                                                     
      732                                                                                     
      739                                                                                     
      740                                                                                     
      750                                                                                     
      751                                                                                     
      752                                                                                     
      756                                                                                     
      763                                                                                     
      764                                                                                     
      771                                                                                     
      772                                                                                     
      776                                                                                     
      780                                                                                     
      790                                                                                     
      791                                                                                     
      792                                                                                     
      799                                                                                     
      800                                                                                     
      804                                                                                     
      811                                                                                     
      812                                                                                     
      819                                                                                     
      820                                                                                     
      821                                                                                     
      822                                                                                     
      823                                                                                     
      824                                                                                     
      828                                                                                     
      841                                                                                     
      842                                                                                     
      843                                                                                     
      844                                                                                     
      848                                                                                     
      850                                                                                     
      852                                                                                     
      854                                                                                     
      855                                                                                     
      856                                                                                     
      860                                                                                     
      864                                                                                     
      868                                                                                     
      875                                                                                     
      876                                                                                     
      880                                                                                     
      884                                                                                     
      894                                                                                     
      895                                                                                     
      896                                                                                     
      900                                                                                     
      904                                                                                     
      908                                                                                     
{END LEGEND}




 n o d a l   p r i n t   o u t   f o r   t i m e  s t e p       1                              ( at time 0.0000000E+00 )

 nodal point  x-disp     y-disp      z-disp      x-vel       y-vel       z-vel      x-accl      y-accl      z-accl      x-coor      y-coor      z-coor
        1  0.00000E+00 0.00000E+00 0.00000E+00 0.00000E+00 0.00000E+00 0.00000E+00 0.00000E+00 0.00000E+00 0.00000E+00 3.17500E-03 0.00000E+00-1.78000E-18
        2  0.00000E+00 0.00000E+00 0.00000E+00 0.00000E+00 0.00000E+00 0.00000E+00 0.00000E+00 0.00000E+00 0.00000E+00 2.38130E-03 0.00000E+00 0.00000E+00
        3  0.00000E+00 0.00000E+00 0.00000E+00 0.00000E+00 0.00000E+00 0.00000E+00 0.00000E+00 0.00000E+00 0.00000E+00 1.58750E-03 0.00000E+00 0.00000E+00
        4  0.00000E+00 0.00000E+00 0.00000E+00 0.00000E+00 0.00000E+00 0.00000E+00 0.00000E+00 0.00000E+00 0.00000E+00 7.93750E-04 0.00000E+00 0.00000E+00
        5  0.00000E+00 0.00000E+00 0.00000E+00 0.00000E+00 0.00000E+00 0.00000E+00 0.00000E+00 0.00000E+00 0.00000E+00 0.00000E+00 0.00000E+00 0.00000E+00
        6  0.00000E+00 0.00000E+00 0.00000E+00 0.00000E+00 0.00000E+00 0.00000E+00 0.00000E+00 0.00000E+00 0.00000E+00 4.86000E-20 7.93750E-04 0.00000E+00
        7  0.00000E+00 0.00000E+00 0.00000E+00 0.00000E+00 0.00000E+00 0.00000E+00 0.00000E+00 0.00000E+00 0.00000E+00 9.72100E-20 1.58750E-03 0.00000E+00
        8  0.00000E+00 0.00000E+00 0.00000E+00 0.00000E+00 0.00000E+00 0.00000E+00 0.00000E+00 0.00000E+00 0.00000E+00 1.45800E-19 2.38130E-03 0.00000E+00
        9  0.00000E+00 0.00000E+00 0.00000E+00 0.00000E+00 0.00000E+00 0.00000E+00 0.00000E+00 0.00000E+00 0.00000E+00 1.94400E-19 3.17500E-03 0.00000E+00
       10  0.00000E+00 0.00000E+00 0.00000E+00 0.00000E+00 0.00000E+00 0.00000E+00 0.00000E+00 0.00000E+00 0.00000E+00 1.21500E-03 2.93330E-03 0.00000E+00
       11  0.00000E+00 0.00000E+00 0.00000E+00 0.00000E+00 0.00000E+00 0.00000E+00 0.00000E+00 0.00000E+00 0.00000E+00 2.24510E-03 2.24510E-03 0.00000E+00
       12  0.00000E+00 0.00000E+00 0.00000E+00 0.00000E+00 0.00000E+00 0.00000E+00 0.00000E+00 0.00000E+00 0.00000E+00 2.93330E-03 1.21500E-03 0.00000E+00
       13  0.00000E+00 0.00000E+00 0.00000E+00 0.00000E+00 0.00000E+00 0.00000E+00 0.00000E+00 0.00000E+00 0.00000E+00 1.30830E-03 1.35190E-03 0.00000E+00
       14  0.00000E+00 0.00000E+00 0.00000E+00 0.00000E+00 0.00000E+00 0.00000E+00 0.00000E+00 0.00000E+00 0.00000E+00 1.48830E-03 7.06977E-04 0.00000E+00
       15  0.00000E+00 0.00000E+00 0.00000E+00 0.00000E+00 0.00000E+00 0.00000E+00 0.00000E+00 0.00000E+00 0.00000E+00 6.69510E-04 1.50700E-03 0.00000E+00
       16  0.00000E+00 0.00000E+00 0.00000E+00 0.00000E+00 0.00000E+00 0.00000E+00 0.00000E+00 0.00000E+00 0.00000E+00 7.53638E-04 7.82337E-04 0.00000E+00
       17  0.00000E+00 0.00000E+00 0.00000E+00 0.00000E+00 0.00000E+00 0.00000E+00 0.00000E+00 0.00000E+00 0.00000E+00 1.73630E-03 1.76750E-03 0.00000E+00
       18  0.00000E+00 0.00000E+00 0.00000E+00 0.00000E+00 0.00000E+00 0.00000E+00 0.00000E+00 0.00000E+00 0.00000E+00 9.20131E-04 2.19110E-03 0.00000E+00
       19  0.00000E+00 0.00000E+00 0.00000E+00 0.00000E+00 0.00000E+00 0.00000E+00 0.00000E+00 0.00000E+00 0.00000E+00 2.16330E-03 9.50859E-04 0.00000E+00
       69  0.00000E+00 0.00000E+00 0.00000E+00 0.00000E+00 0.00000E+00 0.00000E+00 0.00000E+00 0.00000E+00 0.00000E+00 4.94400E-20 8.06795E-04 9.77227E-04
       70  0.00000E+00 0.00000E+00 0.00000E+00 0.00000E+00 0.00000E+00 0.00000E+00 0.00000E+00 0.00000E+00 0.00000E+00 0.00000E+00 0.00000E+00 1.00550E-03
       71  0.00000E+00 0.00000E+00 0.00000E+00 0.00000E+00 0.00000E+00 0.00000E+00 0.00000E+00 0.00000E+00 0.00000E+00 8.06783E-04 1.08400E-22 9.77129E-04
       73  0.00000E+00 0.00000E+00 0.00000E+00 0.00000E+00 0.00000E+00 0.00000E+00 0.00000E+00 0.00000E+00 0.00000E+00 5.20400E-20 8.46686E-04 1.95420E-03
       74  0.00000E+00 0.00000E+00 0.00000E+00 0.00000E+00 0.00000E+00 0.00000E+00 0.00000E+00 0.00000E+00 0.00000E+00 0.00000E+00 0.00000E+00 2.01100E-03
       75  0.00000E+00 0.00000E+00 0.00000E+00 0.00000E+00 0.00000E+00 0.00000E+00 0.00000E+00 0.00000E+00 0.00000E+00 8.46638E-04 4.33700E-22 1.95400E-03
       77  0.00000E+00 0.00000E+00 0.00000E+00 0.00000E+00 0.00000E+00 0.00000E+00 0.00000E+00 0.00000E+00 0.00000E+00 5.59400E-20 9.11776E-04 2.91390E-03
       78  0.00000E+00 0.00000E+00 0.00000E+00 0.00000E+00 0.00000E+00 0.00000E+00 0.00000E+00 0.00000E+00 0.00000E+00 0.00000E+00 0.00000E+00 3.00480E-03
       79  0.00000E+00 0.00000E+00 0.00000E+00 0.00000E+00 0.00000E+00 0.00000E+00 0.00000E+00 0.00000E+00 0.00000E+00 9.11791E-04 8.67400E-22 2.91390E-03
       81  0.00000E+00 0.00000E+00 0.00000E+00 0.00000E+00 0.00000E+00 0.00000E+00 0.00000E+00 0.00000E+00 0.00000E+00 6.15800E-20 1.00750E-03 3.75960E-03
       82  0.00000E+00 0.00000E+00 0.00000E+00 0.00000E+00 0.00000E+00 0.00000E+00 0.00000E+00 0.00000E+00 0.00000E+00 0.00000E+00 0.00000E+00 3.84380E-03
       83  0.00000E+00 0.00000E+00 0.00000E+00 0.00000E+00 0.00000E+00 0.00000E+00 0.00000E+00 0.00000E+00 0.00000E+00 1.00980E-03 8.67400E-22 3.76410E-03
       85  0.00000E+00 0.00000E+00 0.00000E+00 0.00000E+00 0.00000E+00 0.00000E+00 0.00000E+00 0.00000E+00 0.00000E+00 6.93900E-20 1.13030E-03 4.59340E-03
       86  0.00000E+00 0.00000E+00 0.00000E+00 0.00000E+00 0.00000E+00 0.00000E+00 0.00000E+00 0.00000E+00 0.00000E+00 0.00000E+00 0.00000E+00 4.68290E-03
       87  0.00000E+00 0.00000E+00 0.00000E+00 0.00000E+00 0.00000E+00 0.00000E+00 0.00000E+00 0.00000E+00 0.00000E+00 1.13610E-03 1.73500E-21 4.60180E-03
       89  0.00000E+00 0.00000E+00 0.00000E+00 0.00000E+00 0.00000E+00 0.00000E+00 0.00000E+00 0.00000E+00 0.00000E+00 7.90400E-20 1.29020E-03 5.34770E-03
       90  0.00000E+00 0.00000E+00 0.00000E+00 0.00000E+00 0.00000E+00 0.00000E+00 0.00000E+00 0.00000E+00 0.00000E+00 0.00000E+00 0.00000E+00 5.42010E-03
       91  0.00000E+00 0.00000E+00 0.00000E+00 0.00000E+00 0.00000E+00 0.00000E+00 0.00000E+00 0.00000E+00 0.00000E+00 1.29770E-03 1.00300E-21 5.35590E-03
       93  0.00000E+00 0.00000E+00 0.00000E+00 0.00000E+00 0.00000E+00 0.00000E+00 0.00000E+00 0.00000E+00 0.00000E+00 9.19400E-20 1.50510E-03 5.99200E-03
       94  0.00000E+00 0.00000E+00 0.00000E+00 0.00000E+00 0.00000E+00 0.00000E+00 0.00000E+00 0.00000E+00 0.00000E+00 0.00000E+00 0.00000E+00 6.00960E-03
       95  0.00000E+00 0.00000E+00 0.00000E+00 0.00000E+00 0.00000E+00 0.00000E+00 0.00000E+00 0.00000E+00 0.00000E+00 1.50930E-03 0.00000E+00 5.99540E-03
       97  0.00000E+00 0.00000E+00 0.00000E+00 0.00000E+00 0.00000E+00 0.00000E+00 0.00000E+00 0.00000E+00 0.00000E+00 1.06900E-19 1.74630E-03 6.59910E-03
       98  0.00000E+00 0.00000E+00 0.00000E+00 0.00000E+00 0.00000E+00 0.00000E+00 0.00000E+00 0.00000E+00 0.00000E+00 0.00000E+00 0.00000E+00 6.59910E-03
       99  0.00000E+00 0.00000E+00 0.00000E+00 0.00000E+00 0.00000E+00 0.00000E+00 0.00000E+00 0.00000E+00 0.00000E+00 1.74630E-03 0.00000E+00 6.59910E-03
      124  0.00000E+00 0.00000E+00 0.00000E+00 0.00000E+00 0.00000E+00 0.00000E+00 0.00000E+00 0.00000E+00 0.00000E+00 2.42030E-03 0.00000E+00 9.20400E-04
      125  0.00000E+00 0.00000E+00 0.00000E+00 0.00000E+00 0.00000E+00 0.00000E+00 0.00000E+00 0.00000E+00 0.00000E+00 3.22710E-03 0.00000E+00 8.92035E-04
      126  0.00000E+00 0.00000E+00 0.00000E+00 0.00000E+00 0.00000E+00 0.00000E+00 0.00000E+00 0.00000E+00 0.00000E+00 2.53990E-03 0.00000E+00 1.84010E-03
      127  0.00000E+00 0.00000E+00 0.00000E+00 0.00000E+00 0.00000E+00 0.00000E+00 0.00000E+00 0.00000E+00 0.00000E+00 3.38660E-03 0.00000E+00 1.78320E-03
      128  0.00000E+00 0.00000E+00 0.00000E+00 0.00000E+00 0.00000E+00 0.00000E+00 0.00000E+00 0.00000E+00 0.00000E+00 2.73540E-03 0.00000E+00 2.73220E-03
      129  0.00000E+00 0.00000E+00 0.00000E+00 0.00000E+00 0.00000E+00 0.00000E+00 0.00000E+00 0.00000E+00 0.00000E+00 3.64720E-03 0.00000E+00 2.64130E-03
      130  0.00000E+00 0.00000E+00 0.00000E+00 0.00000E+00 0.00000E+00 0.00000E+00 0.00000E+00 0.00000E+00 0.00000E+00 3.02950E-03 0.00000E+00 3.60470E-03
      131  0.00000E+00 0.00000E+00 0.00000E+00 0.00000E+00 0.00000E+00 0.00000E+00 0.00000E+00 0.00000E+00 0.00000E+00 4.03930E-03 0.00000E+00 3.52500E-03
      132  0.00000E+00 0.00000E+00 0.00000E+00 0.00000E+00 0.00000E+00 0.00000E+00 0.00000E+00 0.00000E+00 0.00000E+00 3.40840E-03 0.00000E+00 4.43980E-03
      133  0.00000E+00 0.00000E+00 0.00000E+00 0.00000E+00 0.00000E+00 0.00000E+00 0.00000E+00 0.00000E+00 0.00000E+00 4.54450E-03 0.00000E+00 4.35880E-03
      134  0.00000E+00 0.00000E+00 0.00000E+00 0.00000E+00 0.00000E+00 0.00000E+00 0.00000E+00 0.00000E+00 0.00000E+00 3.89300E-03 0.00000E+00 5.22730E-03
      135  0.00000E+00 0.00000E+00 0.00000E+00 0.00000E+00 0.00000E+00 0.00000E+00 0.00000E+00 0.00000E+00 0.00000E+00 5.19060E-03 0.00000E+00 5.16300E-03
      136  0.00000E+00 0.00000E+00 0.00000E+00 0.00000E+00 0.00000E+00 0.00000E+00 0.00000E+00 0.00000E+00 0.00000E+00 4.52800E-03 0.00000E+00 5.96690E-03
      137  0.00000E+00 0.00000E+00 0.00000E+00 0.00000E+00 0.00000E+00 0.00000E+00 0.00000E+00 0.00000E+00 0.00000E+00 6.03740E-03 0.00000E+00 5.95260E-03
      138  0.00000E+00 0.00000E+00 0.00000E+00 0.00000E+00 0.00000E+00 0.00000E+00 0.00000E+00 0.00000E+00 0.00000E+00 5.23880E-03 0.00000E+00 6.59910E-03
      139  0.00000E+00 0.00000E+00 0.00000E+00 0.00000E+00 0.00000E+00 0.00000E+00 0.00000E+00 0.00000E+00 0.00000E+00 6.98500E-03 0.00000E+00 6.59910E-03
      140  0.00000E+00 0.00000E+00 0.00000E+00 0.00000E+00 0.00000E+00 0.00000E+00 0.00000E+00 0.00000E+00 0.00000E+00 9.80500E-20 1.61360E-03 9.48961E-04
      141  0.00000E+00 0.00000E+00 0.00000E+00 0.00000E+00 0.00000E+00 0.00000E+00 0.00000E+00 0.00000E+00 0.00000E+00 1.00800E-19 1.69340E-03 1.89750E-03
      142  0.00000E+00 0.00000E+00 0.00000E+00 0.00000E+00 0.00000E+00 0.00000E+00 0.00000E+00 0.00000E+00 0.00000E+00 1.06300E-19 1.82360E-03 2.82300E-03
      143  0.00000E+00 0.00000E+00 0.00000E+00 0.00000E+00 0.00000E+00 0.00000E+00 0.00000E+00 0.00000E+00 0.00000E+00 1.16000E-19 2.01490E-03 3.67540E-03
      144  0.00000E+00 0.00000E+00 0.00000E+00 0.00000E+00 0.00000E+00 0.00000E+00 0.00000E+00 0.00000E+00 0.00000E+00 1.29900E-19 2.26050E-03 4.50390E-03
      145  0.00000E+00 0.00000E+00 0.00000E+00 0.00000E+00 0.00000E+00 0.00000E+00 0.00000E+00 0.00000E+00 0.00000E+00 1.51800E-19 2.58030E-03 5.27520E-03
      146  0.00000E+00 0.00000E+00 0.00000E+00 0.00000E+00 0.00000E+00 0.00000E+00 0.00000E+00 0.00000E+00 0.00000E+00 1.82600E-19 3.01020E-03 5.97430E-03
      147  0.00000E+00 0.00000E+00 0.00000E+00 0.00000E+00 0.00000E+00 0.00000E+00 0.00000E+00 0.00000E+00 0.00000E+00 2.13900E-19 3.49250E-03 6.59910E-03
      148  0.00000E+00 0.00000E+00 0.00000E+00 0.00000E+00 0.00000E+00 0.00000E+00 0.00000E+00 0.00000E+00 0.00000E+00 1.65700E-19 2.42040E-03 9.20695E-04
      149  0.00000E+00 0.00000E+00 0.00000E+00 0.00000E+00 0.00000E+00 0.00000E+00 0.00000E+00 0.00000E+00 0.00000E+00 1.87400E-19 2.54010E-03 1.84070E-03
      150  0.00000E+00 0.00000E+00 0.00000E+00 0.00000E+00 0.00000E+00 0.00000E+00 0.00000E+00 0.00000E+00 0.00000E+00 2.15100E-19 2.73530E-03 2.73210E-03
      151  0.00000E+00 0.00000E+00 0.00000E+00 0.00000E+00 0.00000E+00 0.00000E+00 0.00000E+00 0.00000E+00 0.00000E+00 2.03000E-19 3.02240E-03 3.59110E-03
      152  0.00000E+00 0.00000E+00 0.00000E+00 0.00000E+00 0.00000E+00 0.00000E+00 0.00000E+00 0.00000E+00 0.00000E+00 2.15100E-19 3.39080E-03 4.41440E-03
      153  0.00000E+00 0.00000E+00 0.00000E+00 0.00000E+00 0.00000E+00 0.00000E+00 0.00000E+00 0.00000E+00 0.00000E+00 2.39700E-19 3.87050E-03 5.20280E-03
      154  0.00000E+00 0.00000E+00 0.00000E+00 0.00000E+00 0.00000E+00 0.00000E+00 0.00000E+00 0.00000E+00 0.00000E+00 2.74100E-19 4.51520E-03 5.95660E-03
      155  0.00000E+00 0.00000E+00 0.00000E+00 0.00000E+00 0.00000E+00 0.00000E+00 0.00000E+00 0.00000E+00 0.00000E+00 3.20800E-19 5.23880E-03 6.59910E-03
      156  0.00000E+00 0.00000E+00 0.00000E+00 0.00000E+00 0.00000E+00 0.00000E+00 0.00000E+00 0.00000E+00 0.00000E+00 1.61360E-03-5.96000E-22 9.48764E-04
      157  0.00000E+00 0.00000E+00 0.00000E+00 0.00000E+00 0.00000E+00 0.00000E+00 0.00000E+00 0.00000E+00 0.00000E+00 1.69330E-03-1.73000E-21 1.89710E-03
      158  0.00000E+00 0.00000E+00 0.00000E+00 0.00000E+00 0.00000E+00 0.00000E+00 0.00000E+00 0.00000E+00 0.00000E+00 1.82360E-03-2.93000E-21 2.82310E-03
      159  0.00000E+00 0.00000E+00 0.00000E+00 0.00000E+00 0.00000E+00 0.00000E+00 0.00000E+00 0.00000E+00 0.00000E+00 2.01960E-03-4.34000E-21 3.68440E-03
      160  0.00000E+00 0.00000E+00 0.00000E+00 0.00000E+00 0.00000E+00 0.00000E+00 0.00000E+00 0.00000E+00 0.00000E+00 2.27220E-03-5.31000E-21 4.52080E-03
      161  0.00000E+00 0.00000E+00 0.00000E+00 0.00000E+00 0.00000E+00 0.00000E+00 0.00000E+00 0.00000E+00 0.00000E+00 2.59530E-03-3.96000E-21 5.29160E-03
      162  0.00000E+00 0.00000E+00 0.00000E+00 0.00000E+00 0.00000E+00 0.00000E+00 0.00000E+00 0.00000E+00 0.00000E+00 3.01870E-03-1.08000E-21 5.98110E-03
      163  0.00000E+00 0.00000E+00 0.00000E+00 0.00000E+00 0.00000E+00 0.00000E+00 0.00000E+00 0.00000E+00 0.00000E+00 3.49250E-03 0.00000E+00 6.59910E-03
      164  0.00000E+00 0.00000E+00 0.00000E+00 0.00000E+00 0.00000E+00 0.00000E+00 0.00000E+00 0.00000E+00 0.00000E+00 2.15100E-19 3.22720E-03 8.92429E-04
      165  0.00000E+00 0.00000E+00 0.00000E+00 0.00000E+00 0.00000E+00 0.00000E+00 0.00000E+00 0.00000E+00 0.00000E+00 2.39400E-19 3.38670E-03 1.78390E-03
      166  0.00000E+00 0.00000E+00 0.00000E+00 0.00000E+00 0.00000E+00 0.00000E+00 0.00000E+00 0.00000E+00 0.00000E+00 2.70600E-19 3.64710E-03 2.64120E-03
      167  0.00000E+00 0.00000E+00 0.00000E+00 0.00000E+00 0.00000E+00 0.00000E+00 0.00000E+00 0.00000E+00 0.00000E+00 2.65400E-19 4.02980E-03 3.50690E-03
      168  0.00000E+00 0.00000E+00 0.00000E+00 0.00000E+00 0.00000E+00 0.00000E+00 0.00000E+00 0.00000E+00 0.00000E+00 2.84500E-19 4.52100E-03 4.32490E-03
      169  0.00000E+00 0.00000E+00 0.00000E+00 0.00000E+00 0.00000E+00 0.00000E+00 0.00000E+00 0.00000E+00 0.00000E+00 3.18800E-19 5.16070E-03 5.13030E-03
      170  0.00000E+00 0.00000E+00 0.00000E+00 0.00000E+00 0.00000E+00 0.00000E+00 0.00000E+00 0.00000E+00 0.00000E+00 3.67800E-19 6.02030E-03 5.93900E-03
      171  0.00000E+00 0.00000E+00 0.00000E+00 0.00000E+00 0.00000E+00 0.00000E+00 0.00000E+00 0.00000E+00 0.00000E+00 4.27700E-19 6.98500E-03 6.59910E-03
      172  0.00000E+00 0.00000E+00 0.00000E+00 0.00000E+00 0.00000E+00 0.00000E+00 0.00000E+00 0.00000E+00 0.00000E+00 2.13900E-19 3.49250E-03 8.04530E-03
      175  0.00000E+00 0.00000E+00 0.00000E+00 0.00000E+00 0.00000E+00 0.00000E+00 0.00000E+00 0.00000E+00 0.00000E+00 3.20800E-19 5.23880E-03 8.04530E-03
      176  0.00000E+00 0.00000E+00 0.00000E+00 0.00000E+00 0.00000E+00 0.00000E+00 0.00000E+00 0.00000E+00 0.00000E+00 2.13900E-19 3.49250E-03 9.49160E-03
      179  0.00000E+00 0.00000E+00 0.00000E+00 0.00000E+00 0.00000E+00 0.00000E+00 0.00000E+00 0.00000E+00 0.00000E+00 3.20800E-19 5.23880E-03 9.49160E-03
      180  0.00000E+00 0.00000E+00 0.00000E+00 0.00000E+00 0.00000E+00 0.00000E+00 0.00000E+00 0.00000E+00 0.00000E+00 2.13900E-19 3.49250E-03 1.09378E-02
      183  0.00000E+00 0.00000E+00 0.00000E+00 0.00000E+00 0.00000E+00 0.00000E+00 0.00000E+00 0.00000E+00 0.00000E+00 3.20800E-19 5.23880E-03 1.09378E-02
      184  0.00000E+00 0.00000E+00 0.00000E+00 0.00000E+00 0.00000E+00 0.00000E+00 0.00000E+00 0.00000E+00 0.00000E+00 2.13900E-19 3.49250E-03 1.23840E-02
      187  0.00000E+00 0.00000E+00 0.00000E+00 0.00000E+00 0.00000E+00 0.00000E+00 0.00000E+00 0.00000E+00 0.00000E+00 3.20800E-19 5.23880E-03 1.23840E-02
      188  0.00000E+00 0.00000E+00 0.00000E+00 0.00000E+00 0.00000E+00 0.00000E+00 0.00000E+00 0.00000E+00 0.00000E+00 2.13900E-19 3.49250E-03 1.38302E-02
      191  0.00000E+00 0.00000E+00 0.00000E+00 0.00000E+00 0.00000E+00 0.00000E+00 0.00000E+00 0.00000E+00 0.00000E+00 3.20800E-19 5.23880E-03 1.38302E-02
      192  0.00000E+00 0.00000E+00 0.00000E+00 0.00000E+00 0.00000E+00 0.00000E+00 0.00000E+00 0.00000E+00 0.00000E+00 2.13900E-19 3.49250E-03 1.52765E-02
      195  0.00000E+00 0.00000E+00 0.00000E+00 0.00000E+00 0.00000E+00 0.00000E+00 0.00000E+00 0.00000E+00 0.00000E+00 3.20800E-19 5.23880E-03 1.52765E-02
      196  0.00000E+00 0.00000E+00 0.00000E+00 0.00000E+00 0.00000E+00 0.00000E+00 0.00000E+00 0.00000E+00 0.00000E+00 2.13900E-19 3.49250E-03 1.67227E-02
      199  0.00000E+00 0.00000E+00 0.00000E+00 0.00000E+00 0.00000E+00 0.00000E+00 0.00000E+00 0.00000E+00 0.00000E+00 3.20800E-19 5.23880E-03 1.67227E-02
      200  0.00000E+00 0.00000E+00 0.00000E+00 0.00000E+00 0.00000E+00 0.00000E+00 0.00000E+00 0.00000E+00 0.00000E+00 2.13900E-19 3.49250E-03 1.81689E-02
      203  0.00000E+00 0.00000E+00 0.00000E+00 0.00000E+00 0.00000E+00 0.00000E+00 0.00000E+00 0.00000E+00 0.00000E+00 3.20800E-19 5.23880E-03 1.81689E-02
      204  0.00000E+00 0.00000E+00 0.00000E+00 0.00000E+00 0.00000E+00 0.00000E+00 0.00000E+00 0.00000E+00 0.00000E+00 2.13900E-19 3.49250E-03 1.96151E-02
      207  0.00000E+00 0.00000E+00 0.00000E+00 0.00000E+00 0.00000E+00 0.00000E+00 0.00000E+00 0.00000E+00 0.00000E+00 3.20800E-19 5.23880E-03 1.96151E-02
      208  0.00000E+00 0.00000E+00 0.00000E+00 0.00000E+00 0.00000E+00 0.00000E+00 0.00000E+00 0.00000E+00 0.00000E+00 2.13900E-19 3.49250E-03 2.10613E-02
      211  0.00000E+00 0.00000E+00 0.00000E+00 0.00000E+00 0.00000E+00 0.00000E+00 0.00000E+00 0.00000E+00 0.00000E+00 3.20800E-19 5.23880E-03 2.10613E-02
      212  0.00000E+00 0.00000E+00 0.00000E+00 0.00000E+00 0.00000E+00 0.00000E+00 0.00000E+00 0.00000E+00 0.00000E+00 2.13900E-19 3.49250E-03 2.25076E-02
      215  0.00000E+00 0.00000E+00 0.00000E+00 0.00000E+00 0.00000E+00 0.00000E+00 0.00000E+00 0.00000E+00 0.00000E+00 3.20800E-19 5.23880E-03 2.25076E-02
      216  0.00000E+00 0.00000E+00 0.00000E+00 0.00000E+00 0.00000E+00 0.00000E+00 0.00000E+00 0.00000E+00 0.00000E+00 2.13900E-19 3.49250E-03 2.39538E-02
      219  0.00000E+00 0.00000E+00 0.00000E+00 0.00000E+00 0.00000E+00 0.00000E+00 0.00000E+00 0.00000E+00 0.00000E+00 3.20800E-19 5.23880E-03 2.39538E-02
      220  0.00000E+00 0.00000E+00 0.00000E+00 0.00000E+00 0.00000E+00 0.00000E+00 0.00000E+00 0.00000E+00 0.00000E+00 2.13900E-19 3.49250E-03 2.54000E-02
      221  0.00000E+00 0.00000E+00 0.00000E+00 0.00000E+00 0.00000E+00 0.00000E+00 0.00000E+00 0.00000E+00 0.00000E+00 1.47250E-03 3.31440E-03 2.54000E-02
      222  0.00000E+00 0.00000E+00 0.00000E+00 0.00000E+00 0.00000E+00 0.00000E+00 0.00000E+00 0.00000E+00 0.00000E+00 2.02380E-03 4.81920E-03 2.54000E-02
      223  0.00000E+00 0.00000E+00 0.00000E+00 0.00000E+00 0.00000E+00 0.00000E+00 0.00000E+00 0.00000E+00 0.00000E+00 3.20800E-19 5.23880E-03 2.54000E-02
      225  0.00000E+00 0.00000E+00 0.00000E+00 0.00000E+00 0.00000E+00 0.00000E+00 0.00000E+00 0.00000E+00 0.00000E+00 4.27700E-19 6.98500E-03 8.04530E-03
      227  0.00000E+00 0.00000E+00 0.00000E+00 0.00000E+00 0.00000E+00 0.00000E+00 0.00000E+00 0.00000E+00 0.00000E+00 4.27700E-19 6.98500E-03 9.49160E-03
      229  0.00000E+00 0.00000E+00 0.00000E+00 0.00000E+00 0.00000E+00 0.00000E+00 0.00000E+00 0.00000E+00 0.00000E+00 4.27700E-19 6.98500E-03 1.09378E-02
      231  0.00000E+00 0.00000E+00 0.00000E+00 0.00000E+00 0.00000E+00 0.00000E+00 0.00000E+00 0.00000E+00 0.00000E+00 4.27700E-19 6.98500E-03 1.23840E-02
      233  0.00000E+00 0.00000E+00 0.00000E+00 0.00000E+00 0.00000E+00 0.00000E+00 0.00000E+00 0.00000E+00 0.00000E+00 4.27700E-19 6.98500E-03 1.38302E-02
      235  0.00000E+00 0.00000E+00 0.00000E+00 0.00000E+00 0.00000E+00 0.00000E+00 0.00000E+00 0.00000E+00 0.00000E+00 4.27700E-19 6.98500E-03 1.52765E-02
      237  0.00000E+00 0.00000E+00 0.00000E+00 0.00000E+00 0.00000E+00 0.00000E+00 0.00000E+00 0.00000E+00 0.00000E+00 4.27700E-19 6.98500E-03 1.67227E-02
      239  0.00000E+00 0.00000E+00 0.00000E+00 0.00000E+00 0.00000E+00 0.00000E+00 0.00000E+00 0.00000E+00 0.00000E+00 4.27700E-19 6.98500E-03 1.81689E-02
      241  0.00000E+00 0.00000E+00 0.00000E+00 0.00000E+00 0.00000E+00 0.00000E+00 0.00000E+00 0.00000E+00 0.00000E+00 4.27700E-19 6.98500E-03 1.96151E-02
      243  0.00000E+00 0.00000E+00 0.00000E+00 0.00000E+00 0.00000E+00 0.00000E+00 0.00000E+00 0.00000E+00 0.00000E+00 4.27700E-19 6.98500E-03 2.10613E-02
      245  0.00000E+00 0.00000E+00 0.00000E+00 0.00000E+00 0.00000E+00 0.00000E+00 0.00000E+00 0.00000E+00 0.00000E+00 4.27700E-19 6.98500E-03 2.25076E-02
      247  0.00000E+00 0.00000E+00 0.00000E+00 0.00000E+00 0.00000E+00 0.00000E+00 0.00000E+00 0.00000E+00 0.00000E+00 4.27700E-19 6.98500E-03 2.39538E-02
      248  0.00000E+00 0.00000E+00 0.00000E+00 0.00000E+00 0.00000E+00 0.00000E+00 0.00000E+00 0.00000E+00 0.00000E+00 2.67340E-03 6.45320E-03 2.54000E-02
      249  0.00000E+00 0.00000E+00 0.00000E+00 0.00000E+00 0.00000E+00 0.00000E+00 0.00000E+00 0.00000E+00 0.00000E+00 4.27700E-19 6.98500E-03 2.54000E-02
      286  0.00000E+00 0.00000E+00 0.00000E+00 0.00000E+00 0.00000E+00 0.00000E+00 0.00000E+00 0.00000E+00 0.00000E+00 3.27330E-03 1.55480E-03 2.54000E-02
      287  0.00000E+00 0.00000E+00 0.00000E+00 0.00000E+00 0.00000E+00 0.00000E+00 0.00000E+00 0.00000E+00 0.00000E+00 2.87770E-03 2.97340E-03 2.54000E-02
      288  0.00000E+00 0.00000E+00 0.00000E+00 0.00000E+00 0.00000E+00 0.00000E+00 0.00000E+00 0.00000E+00 0.00000E+00 1.65770E-03 1.72080E-03 2.54000E-02
      301  0.00000E+00 0.00000E+00 0.00000E+00 0.00000E+00 0.00000E+00 0.00000E+00 0.00000E+00 0.00000E+00 0.00000E+00 3.81930E-03 3.88770E-03 2.54000E-02
      314  0.00000E+00 0.00000E+00 0.00000E+00 0.00000E+00 0.00000E+00 0.00000E+00 0.00000E+00 0.00000E+00 0.00000E+00 4.93910E-03 4.93910E-03 2.54000E-02
      317  0.00000E+00 0.00000E+00 0.00000E+00 0.00000E+00 0.00000E+00 0.00000E+00 0.00000E+00 0.00000E+00 0.00000E+00 5.23880E-03 0.00000E+00 8.04530E-03
      318  0.00000E+00 0.00000E+00 0.00000E+00 0.00000E+00 0.00000E+00 0.00000E+00 0.00000E+00 0.00000E+00 0.00000E+00 6.98500E-03 8.27200E-28 8.04530E-03
      321  0.00000E+00 0.00000E+00 0.00000E+00 0.00000E+00 0.00000E+00 0.00000E+00 0.00000E+00 0.00000E+00 0.00000E+00 5.23880E-03 0.00000E+00 9.49160E-03
      322  0.00000E+00 0.00000E+00 0.00000E+00 0.00000E+00 0.00000E+00 0.00000E+00 0.00000E+00 0.00000E+00 0.00000E+00 6.98500E-03 1.34400E-27 9.49160E-03
      325  0.00000E+00 0.00000E+00 0.00000E+00 0.00000E+00 0.00000E+00 0.00000E+00 0.00000E+00 0.00000E+00 0.00000E+00 5.23880E-03 0.00000E+00 1.09378E-02
      326  0.00000E+00 0.00000E+00 0.00000E+00 0.00000E+00 0.00000E+00 0.00000E+00 0.00000E+00 0.00000E+00 0.00000E+00 6.98500E-03 1.44800E-27 1.09378E-02
      329  0.00000E+00 0.00000E+00 0.00000E+00 0.00000E+00 0.00000E+00 0.00000E+00 0.00000E+00 0.00000E+00 0.00000E+00 5.23880E-03 0.00000E+00 1.23840E-02
      330  0.00000E+00 0.00000E+00 0.00000E+00 0.00000E+00 0.00000E+00 0.00000E+00 0.00000E+00 0.00000E+00 0.00000E+00 6.98500E-03 1.55100E-27 1.23840E-02
      333  0.00000E+00 0.00000E+00 0.00000E+00 0.00000E+00 0.00000E+00 0.00000E+00 0.00000E+00 0.00000E+00 0.00000E+00 5.23880E-03 0.00000E+00 1.38302E-02
      334  0.00000E+00 0.00000E+00 0.00000E+00 0.00000E+00 0.00000E+00 0.00000E+00 0.00000E+00 0.00000E+00 0.00000E+00 6.98500E-03 1.55100E-27 1.38302E-02
      337  0.00000E+00 0.00000E+00 0.00000E+00 0.00000E+00 0.00000E+00 0.00000E+00 0.00000E+00 0.00000E+00 0.00000E+00 5.23880E-03 0.00000E+00 1.52765E-02
      338  0.00000E+00 0.00000E+00 0.00000E+00 0.00000E+00 0.00000E+00 0.00000E+00 0.00000E+00 0.00000E+00 0.00000E+00 6.98500E-03 1.55100E-27 1.52765E-02
      341  0.00000E+00 0.00000E+00 0.00000E+00 0.00000E+00 0.00000E+00 0.00000E+00 0.00000E+00 0.00000E+00 0.00000E+00 5.23880E-03 0.00000E+00 1.67227E-02
      342  0.00000E+00 0.00000E+00 0.00000E+00 0.00000E+00 0.00000E+00 0.00000E+00 0.00000E+00 0.00000E+00 0.00000E+00 6.98500E-03 1.44800E-27 1.67227E-02
      345  0.00000E+00 0.00000E+00 0.00000E+00 0.00000E+00 0.00000E+00 0.00000E+00 0.00000E+00 0.00000E+00 0.00000E+00 5.23880E-03 0.00000E+00 1.81689E-02
      346  0.00000E+00 0.00000E+00 0.00000E+00 0.00000E+00 0.00000E+00 0.00000E+00 0.00000E+00 0.00000E+00 0.00000E+00 6.98500E-03 1.34400E-27 1.81689E-02
      349  0.00000E+00 0.00000E+00 0.00000E+00 0.00000E+00 0.00000E+00 0.00000E+00 0.00000E+00 0.00000E+00 0.00000E+00 5.23880E-03 0.00000E+00 1.96151E-02
      350  0.00000E+00 0.00000E+00 0.00000E+00 0.00000E+00 0.00000E+00 0.00000E+00 0.00000E+00 0.00000E+00 0.00000E+00 6.98500E-03 1.13700E-27 1.96151E-02
      353  0.00000E+00 0.00000E+00 0.00000E+00 0.00000E+00 0.00000E+00 0.00000E+00 0.00000E+00 0.00000E+00 0.00000E+00 5.23880E-03 0.00000E+00 2.10613E-02
      354  0.00000E+00 0.00000E+00 0.00000E+00 0.00000E+00 0.00000E+00 0.00000E+00 0.00000E+00 0.00000E+00 0.00000E+00 6.98500E-03 9.30600E-28 2.10613E-02
      357  0.00000E+00 0.00000E+00 0.00000E+00 0.00000E+00 0.00000E+00 0.00000E+00 0.00000E+00 0.00000E+00 0.00000E+00 5.23880E-03 0.00000E+00 2.25076E-02
      358  0.00000E+00 0.00000E+00 0.00000E+00 0.00000E+00 0.00000E+00 0.00000E+00 0.00000E+00 0.00000E+00 0.00000E+00 6.98500E-03 6.20400E-28 2.25076E-02
      361  0.00000E+00 0.00000E+00 0.00000E+00 0.00000E+00 0.00000E+00 0.00000E+00 0.00000E+00 0.00000E+00 0.00000E+00 5.23880E-03 0.00000E+00 2.39538E-02
      362  0.00000E+00 0.00000E+00 0.00000E+00 0.00000E+00 0.00000E+00 0.00000E+00 0.00000E+00 0.00000E+00 0.00000E+00 6.98500E-03 3.10200E-28 2.39538E-02
      363  0.00000E+00 0.00000E+00 0.00000E+00 0.00000E+00 0.00000E+00 0.00000E+00 0.00000E+00 0.00000E+00 0.00000E+00 6.45340E-03 2.67290E-03 2.54000E-02
      364  0.00000E+00 0.00000E+00 0.00000E+00 0.00000E+00 0.00000E+00 0.00000E+00 0.00000E+00 0.00000E+00 0.00000E+00 4.75810E-03 2.09120E-03 2.54000E-02
      365  0.00000E+00 0.00000E+00 0.00000E+00 0.00000E+00 0.00000E+00 0.00000E+00 0.00000E+00 0.00000E+00 0.00000E+00 5.23880E-03 0.00000E+00 2.54000E-02
      366  0.00000E+00 0.00000E+00 0.00000E+00 0.00000E+00 0.00000E+00 0.00000E+00 0.00000E+00 0.00000E+00 0.00000E+00 6.98500E-03 0.00000E+00 2.54000E-02
      367  0.00000E+00 0.00000E+00 0.00000E+00 0.00000E+00 0.00000E+00 0.00000E+00 0.00000E+00 0.00000E+00 0.00000E+00 1.06900E-19 1.74630E-03 8.04530E-03
      368  0.00000E+00 0.00000E+00 0.00000E+00 0.00000E+00 0.00000E+00 0.00000E+00 0.00000E+00 0.00000E+00 0.00000E+00 1.06900E-19 1.74630E-03 9.49160E-03
      369  0.00000E+00 0.00000E+00 0.00000E+00 0.00000E+00 0.00000E+00 0.00000E+00 0.00000E+00 0.00000E+00 0.00000E+00 1.06900E-19 1.74630E-03 1.09378E-02
      370  0.00000E+00 0.00000E+00 0.00000E+00 0.00000E+00 0.00000E+00 0.00000E+00 0.00000E+00 0.00000E+00 0.00000E+00 1.06900E-19 1.74630E-03 1.23840E-02
      371  0.00000E+00 0.00000E+00 0.00000E+00 0.00000E+00 0.00000E+00 0.00000E+00 0.00000E+00 0.00000E+00 0.00000E+00 1.06900E-19 1.74630E-03 1.38302E-02
      372  0.00000E+00 0.00000E+00 0.00000E+00 0.00000E+00 0.00000E+00 0.00000E+00 0.00000E+00 0.00000E+00 0.00000E+00 1.06900E-19 1.74630E-03 1.52765E-02
      373  0.00000E+00 0.00000E+00 0.00000E+00 0.00000E+00 0.00000E+00 0.00000E+00 0.00000E+00 0.00000E+00 0.00000E+00 1.06900E-19 1.74630E-03 1.67227E-02
      374  0.00000E+00 0.00000E+00 0.00000E+00 0.00000E+00 0.00000E+00 0.00000E+00 0.00000E+00 0.00000E+00 0.00000E+00 1.06900E-19 1.74630E-03 1.81689E-02
      375  0.00000E+00 0.00000E+00 0.00000E+00 0.00000E+00 0.00000E+00 0.00000E+00 0.00000E+00 0.00000E+00 0.00000E+00 1.06900E-19 1.74630E-03 1.96151E-02
      376  0.00000E+00 0.00000E+00 0.00000E+00 0.00000E+00 0.00000E+00 0.00000E+00 0.00000E+00 0.00000E+00 0.00000E+00 1.06900E-19 1.74630E-03 2.10613E-02
      377  0.00000E+00 0.00000E+00 0.00000E+00 0.00000E+00 0.00000E+00 0.00000E+00 0.00000E+00 0.00000E+00 0.00000E+00 1.06900E-19 1.74630E-03 2.25076E-02
      378  0.00000E+00 0.00000E+00 0.00000E+00 0.00000E+00 0.00000E+00 0.00000E+00 0.00000E+00 0.00000E+00 0.00000E+00 1.06900E-19 1.74630E-03 2.39538E-02
      379  0.00000E+00 0.00000E+00 0.00000E+00 0.00000E+00 0.00000E+00 0.00000E+00 0.00000E+00 0.00000E+00 0.00000E+00 1.06900E-19 1.74630E-03 2.54000E-02
      380  0.00000E+00 0.00000E+00 0.00000E+00 0.00000E+00 0.00000E+00 0.00000E+00 0.00000E+00 0.00000E+00 0.00000E+00 1.74630E-03 1.03400E-28 8.04530E-03
      381  0.00000E+00 0.00000E+00 0.00000E+00 0.00000E+00 0.00000E+00 0.00000E+00 0.00000E+00 0.00000E+00 0.00000E+00 0.00000E+00 0.00000E+00 8.04530E-03
      382  0.00000E+00 0.00000E+00 0.00000E+00 0.00000E+00 0.00000E+00 0.00000E+00 0.00000E+00 0.00000E+00 0.00000E+00 1.74630E-03 1.55100E-28 9.49160E-03
      383  0.00000E+00 0.00000E+00 0.00000E+00 0.00000E+00 0.00000E+00 0.00000E+00 0.00000E+00 0.00000E+00 0.00000E+00 0.00000E+00 0.00000E+00 9.49160E-03
      384  0.00000E+00 0.00000E+00 0.00000E+00 0.00000E+00 0.00000E+00 0.00000E+00 0.00000E+00 0.00000E+00 0.00000E+00 1.74630E-03 1.80900E-28 1.09378E-02
      385  0.00000E+00 0.00000E+00 0.00000E+00 0.00000E+00 0.00000E+00 0.00000E+00 0.00000E+00 0.00000E+00 0.00000E+00 0.00000E+00 0.00000E+00 1.09378E-02
      386  0.00000E+00 0.00000E+00 0.00000E+00 0.00000E+00 0.00000E+00 0.00000E+00 0.00000E+00 0.00000E+00 0.00000E+00 1.74630E-03 1.80900E-28 1.23840E-02
      387  0.00000E+00 0.00000E+00 0.00000E+00 0.00000E+00 0.00000E+00 0.00000E+00 0.00000E+00 0.00000E+00 0.00000E+00 0.00000E+00 0.00000E+00 1.23840E-02
      388  0.00000E+00 0.00000E+00 0.00000E+00 0.00000E+00 0.00000E+00 0.00000E+00 0.00000E+00 0.00000E+00 0.00000E+00 1.74630E-03 1.80900E-28 1.38302E-02
      389  0.00000E+00 0.00000E+00 0.00000E+00 0.00000E+00 0.00000E+00 0.00000E+00 0.00000E+00 0.00000E+00 0.00000E+00 0.00000E+00 0.00000E+00 1.38302E-02
      390  0.00000E+00 0.00000E+00 0.00000E+00 0.00000E+00 0.00000E+00 0.00000E+00 0.00000E+00 0.00000E+00 0.00000E+00 1.74630E-03 1.80900E-28 1.52765E-02
      391  0.00000E+00 0.00000E+00 0.00000E+00 0.00000E+00 0.00000E+00 0.00000E+00 0.00000E+00 0.00000E+00 0.00000E+00 0.00000E+00 0.00000E+00 1.52765E-02
      392  0.00000E+00 0.00000E+00 0.00000E+00 0.00000E+00 0.00000E+00 0.00000E+00 0.00000E+00 0.00000E+00 0.00000E+00 1.74630E-03 1.80900E-28 1.67227E-02
      393  0.00000E+00 0.00000E+00 0.00000E+00 0.00000E+00 0.00000E+00 0.00000E+00 0.00000E+00 0.00000E+00 0.00000E+00 0.00000E+00 0.00000E+00 1.67227E-02
      394  0.00000E+00 0.00000E+00 0.00000E+00 0.00000E+00 0.00000E+00 0.00000E+00 0.00000E+00 0.00000E+00 0.00000E+00 1.74630E-03 1.55100E-28 1.81689E-02
      395  0.00000E+00 0.00000E+00 0.00000E+00 0.00000E+00 0.00000E+00 0.00000E+00 0.00000E+00 0.00000E+00 0.00000E+00 0.00000E+00 0.00000E+00 1.81689E-02
      396  0.00000E+00 0.00000E+00 0.00000E+00 0.00000E+00 0.00000E+00 0.00000E+00 0.00000E+00 0.00000E+00 0.00000E+00 1.74630E-03 1.55100E-28 1.96151E-02
      397  0.00000E+00 0.00000E+00 0.00000E+00 0.00000E+00 0.00000E+00 0.00000E+00 0.00000E+00 0.00000E+00 0.00000E+00 0.00000E+00 0.00000E+00 1.96151E-02
      398  0.00000E+00 0.00000E+00 0.00000E+00 0.00000E+00 0.00000E+00 0.00000E+00 0.00000E+00 0.00000E+00 0.00000E+00 1.74630E-03 1.29200E-28 2.10613E-02
      399  0.00000E+00 0.00000E+00 0.00000E+00 0.00000E+00 0.00000E+00 0.00000E+00 0.00000E+00 0.00000E+00 0.00000E+00 0.00000E+00 0.00000E+00 2.10613E-02
      400  0.00000E+00 0.00000E+00 0.00000E+00 0.00000E+00 0.00000E+00 0.00000E+00 0.00000E+00 0.00000E+00 0.00000E+00 1.74630E-03 0.00000E+00 2.25076E-02
      401  0.00000E+00 0.00000E+00 0.00000E+00 0.00000E+00 0.00000E+00 0.00000E+00 0.00000E+00 0.00000E+00 0.00000E+00 0.00000E+00 0.00000E+00 2.25076E-02
      402  0.00000E+00 0.00000E+00 0.00000E+00 0.00000E+00 0.00000E+00 0.00000E+00 0.00000E+00 0.00000E+00 0.00000E+00 1.74630E-03 0.00000E+00 2.39538E-02
      403  0.00000E+00 0.00000E+00 0.00000E+00 0.00000E+00 0.00000E+00 0.00000E+00 0.00000E+00 0.00000E+00 0.00000E+00 0.00000E+00 0.00000E+00 2.39538E-02
      404  0.00000E+00 0.00000E+00 0.00000E+00 0.00000E+00 0.00000E+00 0.00000E+00 0.00000E+00 0.00000E+00 0.00000E+00 1.74630E-03 0.00000E+00 2.54000E-02
      405  0.00000E+00 0.00000E+00 0.00000E+00 0.00000E+00 0.00000E+00 0.00000E+00 0.00000E+00 0.00000E+00 0.00000E+00 0.00000E+00 0.00000E+00 2.54000E-02
      406  0.00000E+00 0.00000E+00 0.00000E+00 0.00000E+00 0.00000E+00 0.00000E+00 0.00000E+00 0.00000E+00 0.00000E+00 3.49250E-03 0.00000E+00 8.04530E-03
      407  0.00000E+00 0.00000E+00 0.00000E+00 0.00000E+00 0.00000E+00 0.00000E+00 0.00000E+00 0.00000E+00 0.00000E+00 3.49250E-03 0.00000E+00 9.49160E-03
      408  0.00000E+00 0.00000E+00 0.00000E+00 0.00000E+00 0.00000E+00 0.00000E+00 0.00000E+00 0.00000E+00 0.00000E+00 3.49250E-03 0.00000E+00 1.09378E-02
      409  0.00000E+00 0.00000E+00 0.00000E+00 0.00000E+00 0.00000E+00 0.00000E+00 0.00000E+00 0.00000E+00 0.00000E+00 3.49250E-03 0.00000E+00 1.23840E-02
      410  0.00000E+00 0.00000E+00 0.00000E+00 0.00000E+00 0.00000E+00 0.00000E+00 0.00000E+00 0.00000E+00 0.00000E+00 3.49250E-03 0.00000E+00 1.38302E-02
      411  0.00000E+00 0.00000E+00 0.00000E+00 0.00000E+00 0.00000E+00 0.00000E+00 0.00000E+00 0.00000E+00 0.00000E+00 3.49250E-03 0.00000E+00 1.52765E-02
      412  0.00000E+00 0.00000E+00 0.00000E+00 0.00000E+00 0.00000E+00 0.00000E+00 0.00000E+00 0.00000E+00 0.00000E+00 3.49250E-03 0.00000E+00 1.67227E-02
      413  0.00000E+00 0.00000E+00 0.00000E+00 0.00000E+00 0.00000E+00 0.00000E+00 0.00000E+00 0.00000E+00 0.00000E+00 3.49250E-03 0.00000E+00 1.81689E-02
      414  0.00000E+00 0.00000E+00 0.00000E+00 0.00000E+00 0.00000E+00 0.00000E+00 0.00000E+00 0.00000E+00 0.00000E+00 3.49250E-03 0.00000E+00 1.96151E-02
      415  0.00000E+00 0.00000E+00 0.00000E+00 0.00000E+00 0.00000E+00 0.00000E+00 0.00000E+00 0.00000E+00 0.00000E+00 3.49250E-03 0.00000E+00 2.10613E-02
      416  0.00000E+00 0.00000E+00 0.00000E+00 0.00000E+00 0.00000E+00 0.00000E+00 0.00000E+00 0.00000E+00 0.00000E+00 3.49250E-03 0.00000E+00 2.25076E-02
      417  0.00000E+00 0.00000E+00 0.00000E+00 0.00000E+00 0.00000E+00 0.00000E+00 0.00000E+00 0.00000E+00 0.00000E+00 3.49250E-03 0.00000E+00 2.39538E-02
      418  0.00000E+00 0.00000E+00 0.00000E+00 0.00000E+00 0.00000E+00 0.00000E+00 0.00000E+00 0.00000E+00 0.00000E+00 3.49250E-03 0.00000E+00 2.54000E-02
      419  0.00000E+00 0.00000E+00 0.00000E+00 0.00000E+00 0.00000E+00 0.00000E+00 0.00000E+00 0.00000E+00 0.00000E+00 7.80140E-03 0.00000E+00 7.07050E-03
      420  0.00000E+00 0.00000E+00 0.00000E+00 0.00000E+00 0.00000E+00 0.00000E+00 0.00000E+00 0.00000E+00 0.00000E+00 8.61790E-03 0.00000E+00 7.54180E-03
      421  0.00000E+00 0.00000E+00 0.00000E+00 0.00000E+00 0.00000E+00 0.00000E+00 0.00000E+00 0.00000E+00 0.00000E+00 9.43430E-03 0.00000E+00 8.01320E-03
      422  0.00000E+00 0.00000E+00 0.00000E+00 0.00000E+00 0.00000E+00 0.00000E+00 0.00000E+00 0.00000E+00 0.00000E+00 1.02507E-02 0.00000E+00 8.48460E-03
      423  0.00000E+00 0.00000E+00 0.00000E+00 0.00000E+00 0.00000E+00 0.00000E+00 0.00000E+00 0.00000E+00 0.00000E+00 1.10671E-02 0.00000E+00 8.95590E-03
      424  0.00000E+00 0.00000E+00 0.00000E+00 0.00000E+00 0.00000E+00 0.00000E+00 0.00000E+00 0.00000E+00 0.00000E+00 1.18836E-02 0.00000E+00 9.42730E-03
      425  0.00000E+00 0.00000E+00 0.00000E+00 0.00000E+00 0.00000E+00 0.00000E+00 0.00000E+00 0.00000E+00 0.00000E+00 1.27000E-02 0.00000E+00 9.89870E-03
      426  0.00000E+00 0.00000E+00 0.00000E+00 0.00000E+00 0.00000E+00 0.00000E+00 0.00000E+00 0.00000E+00 0.00000E+00 1.27000E-02 0.00000E+00 1.10911E-02
      427  0.00000E+00 0.00000E+00 0.00000E+00 0.00000E+00 0.00000E+00 0.00000E+00 0.00000E+00 0.00000E+00 0.00000E+00 1.27000E-02 0.00000E+00 1.22835E-02
      428  0.00000E+00 0.00000E+00 0.00000E+00 0.00000E+00 0.00000E+00 0.00000E+00 0.00000E+00 0.00000E+00 0.00000E+00 1.27000E-02 0.00000E+00 1.34759E-02
      429  0.00000E+00 0.00000E+00 0.00000E+00 0.00000E+00 0.00000E+00 0.00000E+00 0.00000E+00 0.00000E+00 0.00000E+00 1.27000E-02 0.00000E+00 1.46683E-02
      430  0.00000E+00 0.00000E+00 0.00000E+00 0.00000E+00 0.00000E+00 0.00000E+00 0.00000E+00 0.00000E+00 0.00000E+00 1.27000E-02 0.00000E+00 1.58607E-02
      431  0.00000E+00 0.00000E+00 0.00000E+00 0.00000E+00 0.00000E+00 0.00000E+00 0.00000E+00 0.00000E+00 0.00000E+00 1.27000E-02 0.00000E+00 1.70531E-02
      432  0.00000E+00 0.00000E+00 0.00000E+00 0.00000E+00 0.00000E+00 0.00000E+00 0.00000E+00 0.00000E+00 0.00000E+00 1.27000E-02 0.00000E+00 1.82455E-02
      433  0.00000E+00 0.00000E+00 0.00000E+00 0.00000E+00 0.00000E+00 0.00000E+00 0.00000E+00 0.00000E+00 0.00000E+00 1.27000E-02 0.00000E+00 1.94380E-02
      434  0.00000E+00 0.00000E+00 0.00000E+00 0.00000E+00 0.00000E+00 0.00000E+00 0.00000E+00 0.00000E+00 0.00000E+00 1.27000E-02 0.00000E+00 2.06304E-02
      435  0.00000E+00 0.00000E+00 0.00000E+00 0.00000E+00 0.00000E+00 0.00000E+00 0.00000E+00 0.00000E+00 0.00000E+00 1.27000E-02 0.00000E+00 2.18228E-02
      436  0.00000E+00 0.00000E+00 0.00000E+00 0.00000E+00 0.00000E+00 0.00000E+00 0.00000E+00 0.00000E+00 0.00000E+00 1.27000E-02 0.00000E+00 2.30152E-02
      437  0.00000E+00 0.00000E+00 0.00000E+00 0.00000E+00 0.00000E+00 0.00000E+00 0.00000E+00 0.00000E+00 0.00000E+00 1.27000E-02 0.00000E+00 2.42076E-02
      438  0.00000E+00 0.00000E+00 0.00000E+00 0.00000E+00 0.00000E+00 0.00000E+00 0.00000E+00 0.00000E+00 0.00000E+00 1.27000E-02 0.00000E+00 2.54000E-02
      439  0.00000E+00 0.00000E+00 0.00000E+00 0.00000E+00 0.00000E+00 0.00000E+00 0.00000E+00 0.00000E+00 0.00000E+00 1.18836E-02 0.00000E+00 2.54000E-02
      440  0.00000E+00 0.00000E+00 0.00000E+00 0.00000E+00 0.00000E+00 0.00000E+00 0.00000E+00 0.00000E+00 0.00000E+00 1.10671E-02 0.00000E+00 2.54000E-02
      441  0.00000E+00 0.00000E+00 0.00000E+00 0.00000E+00 0.00000E+00 0.00000E+00 0.00000E+00 0.00000E+00 0.00000E+00 1.02507E-02 0.00000E+00 2.54000E-02
      442  0.00000E+00 0.00000E+00 0.00000E+00 0.00000E+00 0.00000E+00 0.00000E+00 0.00000E+00 0.00000E+00 0.00000E+00 9.43430E-03 0.00000E+00 2.54000E-02
      443  0.00000E+00 0.00000E+00 0.00000E+00 0.00000E+00 0.00000E+00 0.00000E+00 0.00000E+00 0.00000E+00 0.00000E+00 8.61790E-03 0.00000E+00 2.54000E-02
      444  0.00000E+00 0.00000E+00 0.00000E+00 0.00000E+00 0.00000E+00 0.00000E+00 0.00000E+00 0.00000E+00 0.00000E+00 7.80140E-03 0.00000E+00 2.54000E-02
      445  0.00000E+00 0.00000E+00 0.00000E+00 0.00000E+00 0.00000E+00 0.00000E+00 0.00000E+00 0.00000E+00 0.00000E+00 1.18780E-02 0.00000E+00 1.67976E-02
      446  0.00000E+00 0.00000E+00 0.00000E+00 0.00000E+00 0.00000E+00 0.00000E+00 0.00000E+00 0.00000E+00 0.00000E+00 1.10601E-02 0.00000E+00 1.65433E-02
[...]
      507  6.61424E-06 0.00000E+00-1.99666E-03 0.00000E+00 0.00000E+00 0.00000E+00 0.00000E+00 0.00000E+00 0.00000E+00 1.18846E-02 0.00000E+00 1.97165E-02
      508  9.43023E-06 0.00000E+00-1.99148E-03 0.00000E+00 0.00000E+00 0.00000E+00 0.00000E+00 0.00000E+00 0.00000E+00 7.80593E-03 0.00000E+00 2.05881E-02
      509  9.79283E-06 0.00000E+00-1.99249E-03 0.00000E+00 0.00000E+00 0.00000E+00 0.00000E+00 0.00000E+00 0.00000E+00 8.62119E-03 0.00000E+00 2.06595E-02
      510  1.00545E-05 0.00000E+00-1.99355E-03 0.00000E+00 0.00000E+00 0.00000E+00 0.00000E+00 0.00000E+00 0.00000E+00 9.43765E-03 0.00000E+00 2.07309E-02
      511  1.89029E-05 0.00000E+00-1.99645E-03 0.00000E+00 0.00000E+00 0.00000E+00 0.00000E+00 0.00000E+00 0.00000E+00 8.63080E-03 0.00000E+00 2.20295E-02
      512  1.71761E-05 0.00000E+00-1.99599E-03 0.00000E+00 0.00000E+00 0.00000E+00 0.00000E+00 0.00000E+00 0.00000E+00 7.81388E-03 0.00000E+00 2.19940E-02
      513  1.99705E-05 0.00000E+00-1.99708E-03 0.00000E+00 0.00000E+00 0.00000E+00 0.00000E+00 0.00000E+00 0.00000E+00 9.44807E-03 0.00000E+00 2.20651E-02
      514  6.02893E-06 0.00000E+00-1.99005E-03 0.00000E+00 0.00000E+00 0.00000E+00 0.00000E+00 0.00000E+00 0.00000E+00 8.61743E-03 0.00000E+00 1.92879E-02
      515  6.24239E-06 0.00000E+00-1.98896E-03 0.00000E+00 0.00000E+00 0.00000E+00 0.00000E+00 0.00000E+00 0.00000E+00 7.80274E-03 0.00000E+00 1.91805E-02
      516  5.88155E-06 0.00000E+00-1.99123E-03 0.00000E+00 0.00000E+00 0.00000E+00 0.00000E+00 0.00000E+00 0.00000E+00 9.43348E-03 0.00000E+00 1.93956E-02
      529  0.00000E+00 4.08348E-06-1.99022E-03 0.00000E+00 0.00000E+00 0.00000E+00 0.00000E+00 0.00000E+00 0.00000E+00-4.46100E-12 8.61508E-03 1.79138E-02
      530  0.00000E+00 3.99131E-06-1.98995E-03 0.00000E+00 0.00000E+00 0.00000E+00 0.00000E+00 0.00000E+00 0.00000E+00-1.36400E-11 7.79999E-03 1.77694E-02
      531  0.00000E+00 4.95886E-06-1.99069E-03 0.00000E+00 0.00000E+00 0.00000E+00 0.00000E+00 0.00000E+00 0.00000E+00-1.34500E-11 7.80096E-03 1.91788E-02
      532  0.00000E+00 4.94139E-06-1.99088E-03 0.00000E+00 0.00000E+00 0.00000E+00 0.00000E+00 0.00000E+00 0.00000E+00-4.56200E-12 8.61594E-03 1.92871E-02
      545  0.00000E+00 6.87481E-06-1.99270E-03 0.00000E+00 0.00000E+00 0.00000E+00 0.00000E+00 0.00000E+00 0.00000E+00-3.91900E-12 1.10667E-02 2.08768E-02
      546  0.00000E+00 7.01324E-06-1.99230E-03 0.00000E+00 0.00000E+00 0.00000E+00 0.00000E+00 0.00000E+00 0.00000E+00-1.59000E-12 1.02505E-02 2.08047E-02
      547  0.00000E+00 9.90572E-06-1.99442E-03 0.00000E+00 0.00000E+00 0.00000E+00 0.00000E+00 0.00000E+00 0.00000E+00-1.34800E-11 1.02539E-02 2.21041E-02
      548  0.00000E+00 9.91934E-06-1.99506E-03 0.00000E+00 0.00000E+00 0.00000E+00 0.00000E+00 0.00000E+00 0.00000E+00-1.31700E-11 1.10702E-02 2.21396E-02
      561  0.00000E+00 3.91330E-06-1.98715E-03 0.00000E+00 0.00000E+00 0.00000E+00 0.00000E+00 0.00000E+00 0.00000E+00-6.22400E-12 1.18817E-02 1.11237E-02
      562  0.00000E+00 3.93095E-06-1.98679E-03 0.00000E+00 0.00000E+00 0.00000E+00 0.00000E+00 0.00000E+00 0.00000E+00-3.27900E-12 1.10636E-02 1.07608E-02
      563  0.00000E+00 3.83053E-06-1.98741E-03 0.00000E+00 0.00000E+00 0.00000E+00 0.00000E+00 0.00000E+00 0.00000E+00-3.25900E-12 1.10635E-02 1.20254E-02
      564  0.00000E+00 3.86155E-06-1.98771E-03 0.00000E+00 0.00000E+00 0.00000E+00 0.00000E+00 0.00000E+00 0.00000E+00-6.44300E-12 1.18816E-02 1.23521E-02
      571  0.00000E+00 3.52010E-06-1.98492E-03 0.00000E+00 0.00000E+00 0.00000E+00 0.00000E+00 0.00000E+00 0.00000E+00-1.27700E-11 7.79962E-03 1.07235E-02
      572  0.00000E+00 3.31480E-06-1.98603E-03 0.00000E+00 0.00000E+00 0.00000E+00 0.00000E+00 0.00000E+00 0.00000E+00-1.31300E-11 7.79941E-03 1.21326E-02
      585  0.00000E+00 4.19985E-06-1.99044E-03 0.00000E+00 0.00000E+00 0.00000E+00 0.00000E+00 0.00000E+00 0.00000E+00-1.96000E-13 9.43140E-03 1.80586E-02
      586  0.00000E+00 4.29450E-06-1.99067E-03 0.00000E+00 0.00000E+00 0.00000E+00 0.00000E+00 0.00000E+00 0.00000E+00 1.46500E-14 1.02477E-02 1.82033E-02
      587  0.00000E+00 3.89977E-06-1.99001E-03 0.00000E+00 0.00000E+00 0.00000E+00 0.00000E+00 0.00000E+00 0.00000E+00 2.34800E-14 1.02474E-02 1.69025E-02
      588  0.00000E+00 3.78960E-06-1.98974E-03 0.00000E+00 0.00000E+00 0.00000E+00 0.00000E+00 0.00000E+00 0.00000E+00 1.27300E-14 9.43109E-03 1.67216E-02
      591 -4.28371E-06-6.60159E-07-2.00000E-03 0.00000E+00 0.00000E+00 0.00000E+00 0.00000E+00 0.00000E+00 0.00000E+00 7.96842E-03 3.27084E-03 2.34000E-02
      592 -4.35418E-06-1.26467E-06-2.00000E-03 0.00000E+00 0.00000E+00 0.00000E+00 0.00000E+00 0.00000E+00 0.00000E+00 8.72795E-03 3.56954E-03 2.34000E-02
      595  1.40760E-06 2.62382E-06-2.00000E-03 0.00000E+00 0.00000E+00 0.00000E+00 0.00000E+00 0.00000E+00 0.00000E+00 6.09741E-03 6.09412E-03 2.34000E-02
      596  1.50489E-06 2.27456E-06-2.00000E-03 0.00000E+00 0.00000E+00 0.00000E+00 0.00000E+00 0.00000E+00 0.00000E+00 6.67600E-03 6.66987E-03 2.34000E-02
      599  4.63840E-07 3.16703E-06-2.00000E-03 0.00000E+00 0.00000E+00 0.00000E+00 0.00000E+00 0.00000E+00 0.00000E+00 3.27676E-03 7.97387E-03 2.34000E-02
      600  4.01591E-07 2.78096E-06-2.00000E-03 0.00000E+00 0.00000E+00 0.00000E+00 0.00000E+00 0.00000E+00 0.00000E+00 3.57820E-03 8.73228E-03 2.34000E-02
      601  0.00000E+00 9.99212E-06-1.99388E-03 0.00000E+00 0.00000E+00 0.00000E+00 0.00000E+00 0.00000E+00 0.00000E+00-1.56400E-11 9.43769E-03 2.20683E-02
      602  0.00000E+00 1.00556E-05-1.99353E-03 0.00000E+00 0.00000E+00 0.00000E+00 0.00000E+00 0.00000E+00 0.00000E+00-2.12500E-11 8.62136E-03 2.20325E-02
      603  0.00000E+00 1.07386E-05-1.99698E-03 0.00000E+00 0.00000E+00 0.00000E+00 0.00000E+00 0.00000E+00 0.00000E+00 5.27700E-19 8.62864E-03 2.34030E-02
      604  0.00000E+00 1.11740E-05-1.99803E-03 0.00000E+00 0.00000E+00 0.00000E+00 0.00000E+00 0.00000E+00 0.00000E+00 5.77700E-19 9.44547E-03 2.34020E-02
      617  0.00000E+00 4.04834E-06-1.98515E-03 0.00000E+00 0.00000E+00 0.00000E+00 0.00000E+00 0.00000E+00 0.00000E+00-1.19400E-11 1.02481E-02 7.79725E-03
      618  0.00000E+00 4.24629E-06-1.98411E-03 0.00000E+00 0.00000E+00 0.00000E+00 0.00000E+00 0.00000E+00 0.00000E+00-1.44800E-11 9.43195E-03 7.36329E-03
      619  0.00000E+00 4.16534E-06-1.98477E-03 0.00000E+00 0.00000E+00 0.00000E+00 0.00000E+00 0.00000E+00 0.00000E+00-1.32800E-12 9.43137E-03 8.70003E-03
      620  0.00000E+00 4.07779E-06-1.98563E-03 0.00000E+00 0.00000E+00 0.00000E+00 0.00000E+00 0.00000E+00 0.00000E+00-1.33700E-12 1.02477E-02 9.09797E-03
      633  0.00000E+00 3.43911E-06-1.98859E-03 0.00000E+00 0.00000E+00 0.00000E+00 0.00000E+00 0.00000E+00 0.00000E+00-4.41600E-12 8.61444E-03 1.51674E-02
      634  0.00000E+00 3.27040E-06-1.98811E-03 0.00000E+00 0.00000E+00 0.00000E+00 0.00000E+00 0.00000E+00 0.00000E+00-1.35100E-11 7.79927E-03 1.49508E-02
      635  0.00000E+00 3.49818E-06-1.98907E-03 0.00000E+00 0.00000E+00 0.00000E+00 0.00000E+00 0.00000E+00 0.00000E+00-1.36000E-11 7.79940E-03 1.63600E-02
      636  0.00000E+00 3.65174E-06-1.98945E-03 0.00000E+00 0.00000E+00 0.00000E+00 0.00000E+00 0.00000E+00 0.00000E+00-4.64000E-12 8.61455E-03 1.65405E-02
      638 -4.34843E-06-2.51317E-06-2.00000E-03 0.00000E+00 0.00000E+00 0.00000E+00 0.00000E+00 0.00000E+00 0.00000E+00 1.02474E-02 4.16689E-03 2.34000E-02
      639 -4.37146E-06-3.13888E-06-2.00000E-03 0.00000E+00 0.00000E+00 0.00000E+00 0.00000E+00 0.00000E+00 0.00000E+00 1.10069E-02 4.46556E-03 2.34000E-02
      641  1.87328E-06 2.14027E-06-2.00000E-03 0.00000E+00 0.00000E+00 0.00000E+00 0.00000E+00 0.00000E+00 0.00000E+00 7.83327E-03 7.82204E-03 2.34000E-02
      642  2.13337E-06 2.34007E-06-2.00000E-03 0.00000E+00 0.00000E+00 0.00000E+00 0.00000E+00 0.00000E+00 0.00000E+00 8.41203E-03 8.39834E-03 2.34000E-02
      644 -1.01947E-07 1.43272E-06-2.00000E-03 0.00000E+00 0.00000E+00 0.00000E+00 0.00000E+00 0.00000E+00 0.00000E+00 4.18060E-03 1.02485E-02 2.34000E-02
      645 -7.50344E-07 2.59120E-07-2.00000E-03 0.00000E+00 0.00000E+00 0.00000E+00 0.00000E+00 0.00000E+00 0.00000E+00 4.48145E-03 1.10061E-02 2.34000E-02
      646  0.00000E+00 1.03104E-05-1.99612E-03 0.00000E+00 0.00000E+00 0.00000E+00 0.00000E+00 0.00000E+00 0.00000E+00-1.30800E-11 1.18882E-02 2.21748E-02
      647  0.00000E+00 1.26925E-05-2.00065E-03 0.00000E+00 0.00000E+00 0.00000E+00 0.00000E+00 0.00000E+00 0.00000E+00 6.77700E-19 1.10798E-02 2.33994E-02
      648  0.00000E+00 1.45675E-05-2.00279E-03 0.00000E+00 0.00000E+00 0.00000E+00 0.00000E+00 0.00000E+00 0.00000E+00 7.27700E-19 1.18982E-02 2.33972E-02
      658  0.00000E+00 5.04510E-06-1.99133E-03 0.00000E+00 0.00000E+00 0.00000E+00 0.00000E+00 0.00000E+00 0.00000E+00-1.32000E-14 1.02485E-02 1.95042E-02
      659  0.00000E+00 4.97968E-06-1.99109E-03 0.00000E+00 0.00000E+00 0.00000E+00 0.00000E+00 0.00000E+00 0.00000E+00-2.38000E-13 9.43198E-03 1.93957E-02
      660  0.00000E+00 7.13465E-06-1.99197E-03 0.00000E+00 0.00000E+00 0.00000E+00 0.00000E+00 0.00000E+00 0.00000E+00-1.73400E-12 9.43423E-03 2.07325E-02
      670  0.00000E+00 3.90214E-06-1.98788E-03 0.00000E+00 0.00000E+00 0.00000E+00 0.00000E+00 0.00000E+00 0.00000E+00 7.77700E-19 1.27039E-02 1.26804E-02
      671  0.00000E+00 3.82108E-06-1.98836E-03 0.00000E+00 0.00000E+00 0.00000E+00 0.00000E+00 0.00000E+00 0.00000E+00-6.51000E-12 1.18815E-02 1.35803E-02
      672  0.00000E+00 3.88868E-06-1.98849E-03 0.00000E+00 0.00000E+00 0.00000E+00 0.00000E+00 0.00000E+00 0.00000E+00 7.77700E-19 1.27039E-02 1.38722E-02
      674 -4.10758E-06-1.58457E-07-2.00000E-03 0.00000E+00 0.00000E+00 0.00000E+00 0.00000E+00 0.00000E+00 0.00000E+00 7.20889E-03 2.97204E-03 2.34000E-02
      676  1.28805E-06 3.08106E-06-2.00000E-03 0.00000E+00 0.00000E+00 0.00000E+00 0.00000E+00 0.00000E+00 0.00000E+00 5.51889E-03 5.51838E-03 2.34000E-02
      678  4.99476E-07 3.53958E-06-2.00000E-03 0.00000E+00 0.00000E+00 0.00000E+00 0.00000E+00 0.00000E+00 0.00000E+00 2.97530E-03 7.21554E-03 2.34000E-02
      679  0.00000E+00 9.91109E-06-1.99347E-03 0.00000E+00 0.00000E+00 0.00000E+00 0.00000E+00 0.00000E+00 0.00000E+00-2.74900E-11 7.80611E-03 2.19965E-02
      680  0.00000E+00 1.01905E-05-1.99621E-03 0.00000E+00 0.00000E+00 0.00000E+00 0.00000E+00 0.00000E+00 0.00000E+00 4.77700E-19 7.81159E-03 2.34038E-02
      693  0.00000E+00 3.72775E-06-1.98619E-03 0.00000E+00 0.00000E+00 0.00000E+00 0.00000E+00 0.00000E+00 0.00000E+00 7.27700E-19 1.18873E-02 7.44111E-03
      694  0.00000E+00 3.68878E-06-1.98567E-03 0.00000E+00 0.00000E+00 0.00000E+00 0.00000E+00 0.00000E+00 0.00000E+00 6.77700E-19 1.10708E-02 6.97023E-03
      695  0.00000E+00 3.94508E-06-1.98590E-03 0.00000E+00 0.00000E+00 0.00000E+00 0.00000E+00 0.00000E+00 0.00000E+00-1.30600E-11 1.10641E-02 8.23150E-03
      696  0.00000E+00 3.87857E-06-1.98639E-03 0.00000E+00 0.00000E+00 0.00000E+00 0.00000E+00 0.00000E+00 0.00000E+00-1.14800E-11 1.18819E-02 8.66701E-03
      700  0.00000E+00 7.21036E-06-1.99176E-03 0.00000E+00 0.00000E+00 0.00000E+00 0.00000E+00 0.00000E+00 0.00000E+00-6.44700E-12 8.61801E-03 2.06602E-02
      707  0.00000E+00 4.33418E-06-1.99094E-03 0.00000E+00 0.00000E+00 0.00000E+00 0.00000E+00 0.00000E+00 0.00000E+00-3.08000E-12 1.10640E-02 1.83481E-02
      708  0.00000E+00 5.05832E-06-1.99163E-03 0.00000E+00 0.00000E+00 0.00000E+00 0.00000E+00 0.00000E+00 0.00000E+00-3.24400E-12 1.10648E-02 1.96127E-02
      712  0.00000E+00 6.72202E-06-1.99318E-03 0.00000E+00 0.00000E+00 0.00000E+00 0.00000E+00 0.00000E+00 0.00000E+00-7.50200E-12 1.18843E-02 2.09490E-02
      716  0.00000E+00 7.17187E-06-1.99164E-03 0.00000E+00 0.00000E+00 0.00000E+00 0.00000E+00 0.00000E+00 0.00000E+00-1.53100E-11 7.80307E-03 2.05880E-02
      723  0.00000E+00 3.64784E-06-1.98576E-03 0.00000E+00 0.00000E+00 0.00000E+00 0.00000E+00 0.00000E+00 0.00000E+00-4.94100E-12 8.61455E-03 1.10483E-02
      724  0.00000E+00 3.46838E-06-1.98674E-03 0.00000E+00 0.00000E+00 0.00000E+00 0.00000E+00 0.00000E+00 0.00000E+00-5.07600E-12 8.61437E-03 1.24214E-02
      731  0.00000E+00 3.81705E-06-1.98906E-03 0.00000E+00 0.00000E+00 0.00000E+00 0.00000E+00 0.00000E+00 0.00000E+00-6.56400E-12 1.18815E-02 1.48085E-02
      732  0.00000E+00 3.89556E-06-1.98916E-03 0.00000E+00 0.00000E+00 0.00000E+00 0.00000E+00 0.00000E+00 0.00000E+00 7.77700E-19 1.27039E-02 1.50639E-02
      739  0.00000E+00 3.94964E-06-1.98627E-03 0.00000E+00 0.00000E+00 0.00000E+00 0.00000E+00 0.00000E+00 0.00000E+00-1.54000E-13 1.02473E-02 1.03988E-02
      740  0.00000E+00 3.79490E-06-1.98699E-03 0.00000E+00 0.00000E+00 0.00000E+00 0.00000E+00 0.00000E+00 0.00000E+00-1.28000E-13 1.02473E-02 1.16996E-02
      750  0.00000E+00 3.72666E-06-1.98384E-03 0.00000E+00 0.00000E+00 0.00000E+00 0.00000E+00 0.00000E+00 0.00000E+00 5.77700E-19 9.43803E-03 6.02936E-03
      751  0.00000E+00 4.08044E-06-1.98229E-03 0.00000E+00 0.00000E+00 0.00000E+00 0.00000E+00 0.00000E+00 0.00000E+00 5.27700E-19 8.62198E-03 5.55951E-03
      752  0.00000E+00 4.56092E-06-1.98271E-03 0.00000E+00 0.00000E+00 0.00000E+00 0.00000E+00 0.00000E+00 0.00000E+00-1.97300E-11 8.61596E-03 6.92969E-03
      756  0.00000E+00 4.88712E-06-1.99194E-03 0.00000E+00 0.00000E+00 0.00000E+00 0.00000E+00 0.00000E+00 0.00000E+00-6.89000E-12 1.18825E-02 1.97213E-02
      763  0.00000E+00 5.40661E-06-1.98021E-03 0.00000E+00 0.00000E+00 0.00000E+00 0.00000E+00 0.00000E+00 0.00000E+00 4.77700E-19 7.80681E-03 5.09029E-03
      764  0.00000E+00 4.96661E-06-1.98095E-03 0.00000E+00 0.00000E+00 0.00000E+00 0.00000E+00 0.00000E+00 0.00000E+00-2.55700E-11 7.80117E-03 6.49685E-03
      771  0.00000E+00 3.39323E-06-1.98768E-03 0.00000E+00 0.00000E+00 0.00000E+00 0.00000E+00 0.00000E+00 0.00000E+00-4.62000E-12 8.61439E-03 1.37944E-02
      772  0.00000E+00 3.22674E-06-1.98710E-03 0.00000E+00 0.00000E+00 0.00000E+00 0.00000E+00 0.00000E+00 0.00000E+00-1.37100E-11 7.79913E-03 1.35416E-02
      776  0.00000E+00 4.30520E-06-1.99116E-03 0.00000E+00 0.00000E+00 0.00000E+00 0.00000E+00 0.00000E+00 0.00000E+00-6.83800E-12 1.18819E-02 1.84931E-02
      780  0.00000E+00 3.58764E-06-1.98897E-03 0.00000E+00 0.00000E+00 0.00000E+00 0.00000E+00 0.00000E+00 0.00000E+00-1.95000E-13 9.43079E-03 1.53846E-02
      790  0.00000E+00 3.73275E-06-1.98883E-03 0.00000E+00 0.00000E+00 0.00000E+00 0.00000E+00 0.00000E+00 0.00000E+00-3.40600E-12 1.10634E-02 1.45545E-02
      791  0.00000E+00 3.79672E-06-1.98956E-03 0.00000E+00 0.00000E+00 0.00000E+00 0.00000E+00 0.00000E+00 0.00000E+00-3.35200E-12 1.10635E-02 1.58190E-02
      792  0.00000E+00 3.87110E-06-1.98977E-03 0.00000E+00 0.00000E+00 0.00000E+00 0.00000E+00 0.00000E+00 0.00000E+00-6.61100E-12 1.18816E-02 1.60367E-02
      799  0.00000E+00 3.67979E-06-1.98775E-03 0.00000E+00 0.00000E+00 0.00000E+00 0.00000E+00 0.00000E+00 0.00000E+00-1.45000E-13 1.02471E-02 1.30004E-02
      800  0.00000E+00 3.75316E-06-1.98810E-03 0.00000E+00 0.00000E+00 0.00000E+00 0.00000E+00 0.00000E+00 0.00000E+00-3.45400E-12 1.10635E-02 1.32900E-02
      804  0.00000E+00 3.97606E-06-1.99027E-03 0.00000E+00 0.00000E+00 0.00000E+00 0.00000E+00 0.00000E+00 0.00000E+00-3.22500E-12 1.10637E-02 1.70835E-02
      811  0.00000E+00 3.74973E-06-1.98647E-03 0.00000E+00 0.00000E+00 0.00000E+00 0.00000E+00 0.00000E+00 0.00000E+00 7.77700E-19 1.27037E-02 7.91223E-03
      812  0.00000E+00 3.80689E-06-1.98664E-03 0.00000E+00 0.00000E+00 0.00000E+00 0.00000E+00 0.00000E+00 0.00000E+00 7.77700E-19 1.27038E-02 9.10446E-03
      819  0.00000E+00 3.94900E-06-1.98559E-03 0.00000E+00 0.00000E+00 0.00000E+00 0.00000E+00 0.00000E+00 0.00000E+00-3.71000E-14 9.43105E-03 1.00370E-02
      820  0.00000E+00 3.73831E-06-1.98644E-03 0.00000E+00 0.00000E+00 0.00000E+00 0.00000E+00 0.00000E+00 0.00000E+00-2.18000E-13 9.43074E-03 1.13739E-02
      821 -4.35050E-06-1.89275E-06-2.00000E-03 0.00000E+00 0.00000E+00 0.00000E+00 0.00000E+00 0.00000E+00 0.00000E+00 9.48765E-03 3.86821E-03 2.34000E-02
      822  1.63687E-06 2.12185E-06-2.00000E-03 0.00000E+00 0.00000E+00 0.00000E+00 0.00000E+00 0.00000E+00 0.00000E+00 7.25454E-03 7.24592E-03 2.34000E-02
      823  2.41165E-07 2.23878E-06-2.00000E-03 0.00000E+00 0.00000E+00 0.00000E+00 0.00000E+00 0.00000E+00 0.00000E+00 3.87954E-03 9.49054E-03 2.34000E-02
      824  0.00000E+00 1.17015E-05-1.99934E-03 0.00000E+00 0.00000E+00 0.00000E+00 0.00000E+00 0.00000E+00 0.00000E+00 6.27700E-19 1.02624E-02 2.34007E-02
      828  0.00000E+00 3.91797E-06-1.98735E-03 0.00000E+00 0.00000E+00 0.00000E+00 0.00000E+00 0.00000E+00 0.00000E+00 7.77700E-19 1.27039E-02 1.14886E-02
      841  0.00000E+00 3.83220E-06-1.98370E-03 0.00000E+00 0.00000E+00 0.00000E+00 0.00000E+00 0.00000E+00 0.00000E+00-1.29300E-11 7.79993E-03 9.31450E-03
      842  0.00000E+00 3.91185E-06-1.98473E-03 0.00000E+00 0.00000E+00 0.00000E+00 0.00000E+00 0.00000E+00 0.00000E+00-5.16800E-12 8.61461E-03 9.67537E-03
      843  0.00000E+00 4.23391E-06-1.98367E-03 0.00000E+00 0.00000E+00 0.00000E+00 0.00000E+00 0.00000E+00 0.00000E+00-6.72500E-12 8.61493E-03 8.30243E-03
      844  0.00000E+00 4.26365E-06-1.98236E-03 0.00000E+00 0.00000E+00 0.00000E+00 0.00000E+00 0.00000E+00 0.00000E+00-1.43400E-11 7.80036E-03 7.90564E-03
      848  0.00000E+00 3.99552E-06-1.98628E-03 0.00000E+00 0.00000E+00 0.00000E+00 0.00000E+00 0.00000E+00 0.00000E+00-4.18400E-12 1.10637E-02 9.49612E-03
      850 -3.80131E-06-4.29675E-06-2.00000E-03 0.00000E+00 0.00000E+00 0.00000E+00 0.00000E+00 0.00000E+00 0.00000E+00 1.17672E-02 4.76380E-03 2.34000E-02
      852  1.58414E-06 2.30576E-06-2.00000E-03 0.00000E+00 0.00000E+00 0.00000E+00 0.00000E+00 0.00000E+00 0.00000E+00 8.98988E-03 8.97451E-03 2.34000E-02
      854 -2.11857E-06-1.13877E-06-2.00000E-03 0.00000E+00 0.00000E+00 0.00000E+00 0.00000E+00 0.00000E+00 0.00000E+00 4.78158E-03 1.17635E-02 2.34000E-02
      855  0.00000E+00 1.20879E-05-1.99850E-03 0.00000E+00 0.00000E+00 0.00000E+00 0.00000E+00 0.00000E+00 0.00000E+00 7.77700E-19 1.27121E-02 2.22091E-02
      856  0.00000E+00 1.87157E-05-2.00922E-03 0.00000E+00 0.00000E+00 0.00000E+00 0.00000E+00 0.00000E+00 0.00000E+00 7.77700E-19 1.27187E-02 2.33908E-02
      860  0.00000E+00 3.93015E-06-1.98670E-03 0.00000E+00 0.00000E+00 0.00000E+00 0.00000E+00 0.00000E+00 0.00000E+00-7.18500E-12 1.18815E-02 9.89520E-03
      864  0.00000E+00 3.90211E-06-1.98692E-03 0.00000E+00 0.00000E+00 0.00000E+00 0.00000E+00 0.00000E+00 0.00000E+00 7.77700E-19 1.27039E-02 1.02966E-02
      868  0.00000E+00 3.67094E-06-1.98491E-03 0.00000E+00 0.00000E+00 0.00000E+00 0.00000E+00 0.00000E+00 0.00000E+00 6.27700E-19 1.02544E-02 6.49969E-03
      875  0.00000E+00 4.09517E-06-1.99104E-03 0.00000E+00 0.00000E+00 0.00000E+00 0.00000E+00 0.00000E+00 0.00000E+00 7.77700E-19 1.27041E-02 1.86394E-02
      876  0.00000E+00 4.37516E-06-1.99178E-03 0.00000E+00 0.00000E+00 0.00000E+00 0.00000E+00 0.00000E+00 0.00000E+00 7.77700E-19 1.27044E-02 1.98310E-02
      880  0.00000E+00 6.32797E-06-1.99384E-03 0.00000E+00 0.00000E+00 0.00000E+00 0.00000E+00 0.00000E+00 0.00000E+00 7.77700E-19 1.27063E-02 2.10214E-02
      884  0.00000E+00 3.92554E-06-1.98984E-03 0.00000E+00 0.00000E+00 0.00000E+00 0.00000E+00 0.00000E+00 0.00000E+00 7.77700E-19 1.27039E-02 1.62557E-02
      894  0.00000E+00 3.53157E-06-1.98815E-03 0.00000E+00 0.00000E+00 0.00000E+00 0.00000E+00 0.00000E+00 0.00000E+00-2.07000E-13 9.43063E-03 1.40477E-02
      895  0.00000E+00 3.64125E-06-1.98852E-03 0.00000E+00 0.00000E+00 0.00000E+00 0.00000E+00 0.00000E+00 0.00000E+00-1.55000E-13 1.02469E-02 1.43011E-02
      896  0.00000E+00 3.58896E-06-1.98730E-03 0.00000E+00 0.00000E+00 0.00000E+00 0.00000E+00 0.00000E+00 0.00000E+00-2.38000E-13 9.43059E-03 1.27108E-02
      900  0.00000E+00 4.01822E-06-1.99047E-03 0.00000E+00 0.00000E+00 0.00000E+00 0.00000E+00 0.00000E+00 0.00000E+00-6.96000E-12 1.18816E-02 1.72649E-02
      904  0.00000E+00 3.70497E-06-1.98929E-03 0.00000E+00 0.00000E+00 0.00000E+00 0.00000E+00 0.00000E+00 0.00000E+00-1.52000E-13 1.02470E-02 1.56017E-02
      908  0.00000E+00 3.98260E-06-1.99048E-03 0.00000E+00 0.00000E+00 0.00000E+00 0.00000E+00 0.00000E+00 0.00000E+00 7.77700E-19 1.27040E-02 1.74475E-02
