 LS-DYNA keyword deck by LS-PrePost                                      
                    ls-dyna smp d R14 R14.1.1s_1_ef50e1 date 06/16/2024



 e l e m e n t   s t r e s s   c a l c u l a t i o n s   f o r   t i m e  s t e p        1   ( at time 0.00000E+00 )

 element  materl
     ipt  stress       sig-xx      sig-yy      sig-zz      sig-xy      sig-yz      sig-zx                       yield
           state                                                                                  effsg      function
      13-      1
       1          -1.9509E-06 -1.9509E-06 -1.9509E-06  0.0000E+00  0.0000E+00  0.0000E+00    0.0000E+00    0.0000E+00
      14-      1
       1          -5.8528E-06 -5.8528E-06 -5.8528E-06  0.0000E+00  0.0000E+00  0.0000E+00    0.0000E+00    0.0000E+00
      15-      1
       1          -1.9509E-06 -1.9509E-06 -1.9509E-06  0.0000E+00  0.0000E+00  0.0000E+00    0.0000E+00    0.0000E+00
      21-      1
       1           0.0000E+00  0.0000E+00  0.0000E+00  0.0000E+00  0.0000E+00  0.0000E+00    0.0000E+00    0.0000E+00
      22-      1
       1           0.0000E+00  0.0000E+00  0.0000E+00  0.0000E+00  0.0000E+00  0.0000E+00    0.0000E+00    0.0000E+00
      23-      1
       1          -1.9509E-06 -1.9509E-06 -1.9509E-06  0.0000E+00  0.0000E+00  0.0000E+00    0.0000E+00    0.0000E+00
      53-      1
       1          -1.9509E-06 -1.9509E-06 -1.9509E-06  0.0000E+00  0.0000E+00  0.0000E+00    0.0000E+00    0.0000E+00
      54-      1
       1           0.0000E+00  0.0000E+00  0.0000E+00  0.0000E+00  0.0000E+00  0.0000E+00    0.0000E+00    0.0000E+00
      55-      1
       1          -1.9509E-06 -1.9509E-06 -1.9509E-06  0.0000E+00  0.0000E+00  0.0000E+00    0.0000E+00    0.0000E+00
      93-      1
       1          -3.9019E-06 -3.9019E-06 -3.9019E-06  0.0000E+00  0.0000E+00  0.0000E+00    0.0000E+00    0.0000E+00
      94-      1
       1          -3.9019E-06 -3.9019E-06 -3.9019E-06  0.0000E+00  0.0000E+00  0.0000E+00    0.0000E+00    0.0000E+00
      95-      1
       1          -1.9509E-06 -1.9509E-06 -1.9509E-06  0.0000E+00  0.0000E+00  0.0000E+00    0.0000E+00    0.0000E+00



 e l e m e n t   s t r a i n   c a l c u l a t i o n s   f o r   t i m e  s t e p        1   ( at time  0.00000E+00 )

 element  strain       eps-xx      eps-yy      eps-zz      eps-xy      eps-yz      eps-zx                            yield
 num/ipt   state
      13-      1
      1            0.0000E+00  0.0000E+00  0.0000E+00  0.0000E+00  0.0000E+00  0.0000E+00
      14-      1
      1            0.0000E+00  0.0000E+00  0.0000E+00  0.0000E+00  0.0000E+00  0.0000E+00
      15-      1
      1            0.0000E+00  0.0000E+00  0.0000E+00  0.0000E+00  0.0000E+00  0.0000E+00
      21-      1
      1            0.0000E+00  0.0000E+00  0.0000E+00  0.0000E+00  0.0000E+00  0.0000E+00
      22-      1
      1            0.0000E+00  0.0000E+00  0.0000E+00  0.0000E+00  0.0000E+00  0.0000E+00
      23-      1
      1            0.0000E+00  0.0000E+00  0.0000E+00  0.0000E+00  0.0000E+00  0.0000E+00
      53-      1
      1            0.0000E+00  0.0000E+00  0.0000E+00  0.0000E+00  0.0000E+00  0.0000E+00
      54-      1
      1            0.0000E+00  0.0000E+00  0.0000E+00  0.0000E+00  0.0000E+00  0.0000E+00
      55-      1
      1            0.0000E+00  0.0000E+00  0.0000E+00  0.0000E+00  0.0000E+00  0.0000E+00
      93-      1
      1            0.0000E+00  0.0000E+00  0.0000E+00  0.0000E+00  0.0000E+00  0.0000E+00
      94-      1
      1            0.0000E+00  0.0000E+00  0.0000E+00  0.0000E+00  0.0000E+00  0.0000E+00
      95-      1
      1            0.0000E+00  0.0000E+00  0.0000E+00  0.0000E+00  0.0000E+00  0.0000E+00



 e l e m e n t   s t r e s s   c a l c u l a t i o n s   f o r   t i m e  s t e p       10   ( at time 1.29245E+00 )

 element  materl
     ipt  stress       sig-xx      sig-yy      sig-zz      sig-xy      sig-yz      sig-zx                       yield
           state                                                                                  effsg      function
      13-      1
       1          -2.6308E+07 -2.9067E+07 -2.7455E+08  1.1731E+07 -8.0767E+06 -1.1587E+07    2.4891E+08    1.1619E-04
      14-      1
       1          -2.3025E+07 -2.4897E+07 -2.5502E+08  7.9526E+06 -2.2737E+07 -3.3008E+07    2.4166E+08    3.9854E-05
      15-      1
       1          -2.4111E+07 -2.5597E+07 -2.1720E+08  2.2946E+06 -3.2059E+07 -4.7877E+07    2.1674E+08    0.0000E+00
      21-      1
       1          -3.0266E+07 -2.0293E+07 -2.7362E+08  9.9160E+06 -1.1105E+07 -7.8539E+06    2.5020E+08    1.0992E-04
      22-      1
       1          -2.6924E+07 -2.0629E+07 -2.5638E+08  6.9626E+06 -3.1628E+07 -2.2410E+07    2.4246E+08    3.3572E-05
      23-      1
       1          -2.7720E+07 -2.6889E+07 -2.2069E+08  2.7420E+06 -4.5784E+07 -3.2337E+07    2.1644E+08    0.0000E+00
      53-      1
       1          -1.7425E+07 -3.6635E+07 -2.7558E+08  6.2083E+06 -2.6656E+06 -1.3753E+07    2.5051E+08    9.9551E-05
      54-      1
       1          -1.7128E+07 -3.0837E+07 -2.5235E+08  4.0520E+06 -7.1429E+06 -3.8287E+07    2.3852E+08    4.9351E-05
      55-      1
       1          -1.9331E+07 -2.5815E+07 -2.1528E+08  9.6194E+05 -1.0121E+07 -5.5660E+07    2.1627E+08    0.0000E+00
      93-      1
       1          -3.4170E+07 -1.2999E+07 -2.7381E+08  3.3040E+06 -1.2295E+07 -2.2942E+06    2.5190E+08    8.9746E-05
      94-      1
       1          -3.0990E+07 -1.6313E+07 -2.5765E+08  2.5473E+06 -3.4879E+07 -6.6180E+06    2.4232E+08    2.6295E-05
      95-      1
       1          -3.0528E+07 -2.4877E+07 -2.2449E+08  1.5219E+06 -5.0867E+07 -1.0027E+07    2.1638E+08    0.0000E+00



 e l e m e n t   s t r a i n   c a l c u l a t i o n s   f o r   t i m e  s t e p       10   ( at time  1.29245E+00 )

 element  strain       eps-xx      eps-yy      eps-zz      eps-xy      eps-yz      eps-zx                            yield
 num/ipt   state
      13-      1
      1            1.2224E-03  1.1690E-03 -3.9595E-03  2.4405E-04 -1.7677E-04 -2.4753E-04
      14-      1
      1            1.0534E-03  1.0190E-03 -3.5121E-03  1.5723E-04 -4.5593E-04 -6.5653E-04
      15-      1
      1            8.1523E-04  7.8678E-04 -2.8700E-03  4.3777E-05 -6.1180E-04 -9.1367E-04
      21-      1
      1            1.1034E-03  1.3096E-03 -3.9540E-03  2.0562E-04 -2.4031E-04 -1.6732E-04
      22-      1
      1            9.7457E-04  1.0988E-03 -3.5176E-03  1.3722E-04 -6.3101E-04 -4.4236E-04
      23-      1
      1            7.8642E-04  8.0230E-04 -2.8965E-03  5.2375E-05 -8.7371E-04 -6.1710E-04
      53-      1
      1            1.3825E-03  9.9193E-04 -3.9413E-03  1.2708E-04 -5.3296E-05 -2.8501E-04
      54-      1
      1            1.1702E-03  9.0061E-04 -3.4980E-03  8.0072E-05 -1.4008E-04 -7.6206E-04
      55-      1
      1            8.7538E-04  7.5204E-04 -2.8647E-03  1.8253E-05 -1.9311E-04 -1.0622E-03
      93-      1
      1            9.8273E-04  1.4138E-03 -3.9223E-03  6.6980E-05 -2.5738E-04 -4.7512E-05
      94-      1
      1            8.9316E-04  1.1788E-03 -3.5211E-03  4.9641E-05 -6.8594E-04 -1.2965E-04
      95-      1
      1            7.5479E-04  8.6271E-04 -2.9470E-03  2.9085E-05 -9.7073E-04 -1.9136E-04



 e l e m e n t   s t r e s s   c a l c u l a t i o n s   f o r   t i m e  s t e p      655   ( at time 2.30425E+00 )

 element  materl
     ipt  stress       sig-xx      sig-yy      sig-zz      sig-xy      sig-yz      sig-zx                       yield
           state                                                                                  effsg      function
      13-      1
       1          -6.9478E+07 -6.7194E+07 -2.7463E+08  4.1605E+06 -6.6673E+06 -8.8679E+06    2.0732E+08    8.8055E-03
      14-      1
       1          -3.3003E+07 -3.5916E+07 -2.6412E+08  3.7569E+06 -2.6857E+07 -3.5915E+07    2.4255E+08    5.2405E-03
      15-      1
       1          -2.5854E+07 -3.5465E+07 -2.4353E+08  1.1725E+06 -4.2333E+07 -6.3739E+07    2.5090E+08    2.5685E-03
      21-      1
       1          -4.4345E+07 -5.1482E+07 -2.8379E+08  4.2757E+06 -1.2110E+07 -8.7392E+06    2.3748E+08    8.0839E-03
      22-      1
       1          -2.4135E+07 -2.8686E+07 -2.6766E+08  6.8783E+06 -4.0288E+07 -2.9144E+07    2.5647E+08    4.9131E-03
      23-      1
       1          -3.8613E+07 -4.1018E+07 -2.5324E+08  6.9016E+06 -5.8861E+07 -4.5644E+07    2.4968E+08    2.4172E-03
      53-      1
       1          -5.2514E+07 -5.6342E+07 -2.7250E+08  1.3443E+07 -3.8085E+06 -6.5760E+06    2.1973E+08    7.4924E-03
      54-      1
       1          -2.8926E+07 -3.5957E+07 -2.3298E+08  8.8480E+06 -1.1487E+07 -2.8430E+07    2.0810E+08    6.1127E-03
      55-      1
       1          -7.1948E+06 -1.9170E+07 -1.7788E+08  3.1457E+06 -1.3880E+07 -5.2158E+07    1.8974E+08    3.8955E-03
      93-      1
       1          -2.7259E+07 -2.2426E+07 -2.9130E+08  2.7156E+06 -1.5695E+07 -3.5114E+06    2.6798E+08    6.9603E-03
      94-      1
       1          -3.5410E+07 -2.6134E+07 -2.6733E+08  5.2776E+06 -4.2402E+07 -1.0057E+07    2.4860E+08    5.0359E-03
      95-      1
       1          -5.1304E+07 -4.0245E+07 -2.5561E+08  4.7156E+06 -6.1755E+07 -1.6087E+07    2.3750E+08    2.5711E-03



 e l e m e n t   s t r a i n   c a l c u l a t i o n s   f o r   t i m e  s t e p      655   ( at time  2.30425E+00 )

 element  strain       eps-xx      eps-yy      eps-zz      eps-xy      eps-yz      eps-zx                            yield
 num/ipt   state
      13-      1
      1            4.6768E-03  4.8782E-03 -1.1530E-02  3.7470E-04 -7.5627E-04 -8.9580E-04
      14-      1
      1            3.9654E-03  3.8408E-03 -9.3967E-03  3.9134E-04 -1.7276E-03 -2.2885E-03
      15-      1
      1            2.5478E-03  2.2028E-03 -6.1998E-03  1.4895E-04 -1.7346E-03 -2.6814E-03
      21-      1
      1            5.0300E-03  4.8033E-03 -1.1658E-02  3.1802E-04 -9.8728E-04 -6.7583E-04
      22-      1
      1            3.9686E-03  3.9551E-03 -9.4556E-03  4.6282E-04 -2.3365E-03 -1.6524E-03
      23-      1
      1            2.2798E-03  2.2608E-03 -6.1225E-03  2.9985E-04 -2.3724E-03 -1.8037E-03
      53-      1
      1            4.7820E-03  4.3335E-03 -1.0945E-02  6.8301E-04 -2.1579E-04 -8.7391E-04
      54-      1
      1            4.2236E-03  3.4540E-03 -9.1050E-03  4.7593E-04 -4.9258E-04 -2.4272E-03
      55-      1
      1            2.7758E-03  2.0703E-03 -5.8215E-03  1.5463E-04 -4.5825E-04 -2.8658E-03
      93-      1
      1            4.7514E-03  5.2102E-03 -1.1604E-02  1.3761E-04 -9.9824E-04 -2.0295E-04
      94-      1
      1            3.6082E-03  4.3348E-03 -9.5163E-03  2.7771E-04 -2.5060E-03 -5.4746E-04
      95-      1
      1            2.0208E-03  2.5038E-03 -6.1746E-03  1.8651E-04 -2.5774E-03 -6.3210E-04



 e l e m e n t   s t r e s s   c a l c u l a t i o n s   f o r   t i m e  s t e p      690   ( at time 3.16195E+00 )

 element  materl
     ipt  stress       sig-xx      sig-yy      sig-zz      sig-xy      sig-yz      sig-zx                       yield
           state                                                                                  effsg      function
      13-      1
       1          -6.7076E+07 -6.3965E+07 -3.1335E+08  2.3575E+06 -7.8466E+06 -9.8829E+06    2.4884E+08    1.5261E-02
      14-      1
       1          -2.6513E+07 -2.5535E+07 -2.8208E+08  2.9251E+06 -2.7738E+07 -3.7580E+07    2.6858E+08    1.0727E-02
      15-      1
       1          -1.3942E+07 -2.0417E+07 -2.4510E+08  2.1361E+06 -4.3968E+07 -6.3370E+07    2.6427E+08    6.4969E-03
      21-      1
       1          -4.4594E+07 -4.8272E+07 -3.0584E+08  6.4867E+05 -1.2254E+07 -7.7580E+06    2.6064E+08    1.4709E-02
      22-      1
       1          -2.0243E+07 -2.2365E+07 -2.7950E+08  3.4851E+06 -4.0962E+07 -2.6261E+07    2.7168E+08    1.0345E-02
      23-      1
       1          -3.0832E+07 -3.2190E+07 -2.5932E+08  6.4869E+06 -6.2899E+07 -4.2734E+07    2.6338E+08    6.1410E-03
      53-      1
       1          -4.9922E+07 -5.3106E+07 -3.0762E+08  6.7258E+06 -2.0681E+06 -8.4951E+06    2.5683E+08    1.3625E-02
      54-      1
       1          -1.9927E+07 -2.8088E+07 -2.6423E+08  4.2597E+06 -6.6632E+06 -3.5568E+07    2.4848E+08    1.1688E-02
      55-      1
       1           8.7629E+06 -5.7087E+06 -2.0012E+08  5.0701E+05 -1.1079E+07 -6.1906E+07    2.2953E+08    8.1485E-03
      93-      1
       1          -2.2523E+07 -2.4172E+07 -2.9828E+08  6.9278E+05 -1.3939E+07 -2.9233E+06    2.7604E+08    1.3635E-02
      94-      1
       1          -2.5932E+07 -2.3899E+07 -2.8241E+08  2.6464E+06 -4.4060E+07 -9.0014E+06    2.6907E+08    1.0457E-02
      95-      1
       1          -4.2322E+07 -3.4819E+07 -2.6762E+08  4.1742E+06 -6.9610E+07 -1.4744E+07    2.6029E+08    6.1307E-03



 e l e m e n t   s t r a i n   c a l c u l a t i o n s   f o r   t i m e  s t e p      690   ( at time  3.16195E+00 )

 element  strain       eps-xx      eps-yy      eps-zz      eps-xy      eps-yz      eps-zx                            yield
 num/ipt   state
      13-      1
      1            7.6581E-03  7.9057E-03 -1.7709E-02  4.5191E-04 -1.1052E-03 -1.2995E-03
      14-      1
      1            6.6472E-03  6.5940E-03 -1.4846E-02  4.5652E-04 -2.5891E-03 -3.4865E-03
      15-      1
      1            4.4059E-03  3.9901E-03 -9.7284E-03  1.8741E-04 -2.6828E-03 -4.0507E-03
      21-      1
      1            8.2539E-03  7.9624E-03 -1.8147E-02  3.3800E-04 -1.4720E-03 -9.6747E-04
      22-      1
      1            6.6356E-03  6.6110E-03 -1.4795E-02  5.3412E-04 -3.5455E-03 -2.4142E-03
      23-      1
      1            3.9895E-03  3.9696E-03 -9.4939E-03  4.1623E-04 -3.7050E-03 -2.6277E-03
      53-      1
      1            7.7966E-03  7.1826E-03 -1.6960E-02  8.4503E-04 -2.5781E-04 -1.1967E-03
      54-      1
      1            6.9584E-03  5.9175E-03 -1.4381E-02  5.3490E-04 -6.1640E-04 -3.5561E-03
      55-      1
      1            4.7541E-03  3.7080E-03 -9.4079E-03  9.7898E-05 -6.5590E-04 -4.3675E-03
      93-      1
      1            8.1179E-03  8.5509E-03 -1.8347E-02  1.5617E-04 -1.4871E-03 -3.0753E-04
      94-      1
      1            6.2504E-03  7.0230E-03 -1.4872E-02  3.1639E-04 -3.7783E-03 -8.0476E-04
      95-      1
      1            3.6660E-03  4.2045E-03 -9.5123E-03  2.5421E-04 -4.0688E-03 -8.9342E-04



 e l e m e n t   s t r e s s   c a l c u l a t i o n s   f o r   t i m e  s t e p      703   ( at time 4.91884E+00 )

 element  materl
     ipt  stress       sig-xx      sig-yy      sig-zz      sig-xy      sig-yz      sig-zx                       yield
           state                                                                                  effsg      function
      13-      1
       1          -9.9062E+07 -9.6690E+07 -3.6137E+08  2.6962E+05 -8.3923E+06 -1.0761E+07    2.6457E+08    2.9937E-02
      14-      1
       1          -2.7274E+07 -2.5751E+07 -2.9599E+08  2.3066E+06 -2.5101E+07 -3.4100E+07    2.7931E+08    2.2155E-02
      15-      1
       1          -8.7935E+06 -1.3281E+07 -2.4704E+08  5.6415E+06 -4.2850E+07 -6.2843E+07    2.7049E+08    1.5893E-02
      21-      1
       1          -6.6111E+07 -6.9623E+07 -3.3690E+08 -8.1728E+05 -1.1765E+07 -5.9564E+06    2.7002E+08    2.9021E-02
      22-      1
       1          -1.4505E+07 -1.9361E+07 -2.8881E+08  1.6854E+06 -4.0240E+07 -2.1702E+07    2.8322E+08    2.2499E-02
      23-      1
       1          -2.8822E+07 -2.9789E+07 -2.5902E+08  5.5968E+06 -6.7689E+07 -4.2915E+07    2.6858E+08    1.5684E-02
      53-      1
       1          -6.5676E+07 -6.9304E+07 -3.3852E+08  3.8514E+06 -1.8770E+06 -8.6619E+06    2.7157E+08    2.7709E-02
      54-      1
       1          -1.5672E+07 -1.7983E+07 -2.7449E+08  2.4432E+06 -4.7558E+06 -3.6565E+07    2.6550E+08    2.4041E-02
      55-      1
       1           3.1626E+07  1.8624E+07 -1.9404E+08  2.5395E+06 -9.1908E+06 -7.0019E+07    2.5128E+08    1.7532E-02
      93-      1
       1          -2.7617E+07 -3.5181E+07 -3.1505E+08 -6.9566E+05 -1.2583E+07 -1.2921E+06    2.8458E+08    2.7573E-02
      94-      1
       1          -2.5322E+07 -2.5576E+07 -2.9746E+08  3.1269E+06 -4.4204E+07 -7.0378E+06    2.8289E+08    2.2808E-02
      95-      1
       1          -4.7178E+07 -3.9285E+07 -2.7118E+08  2.8176E+06 -7.5935E+07 -1.6367E+07    2.6483E+08    1.5583E-02



 e l e m e n t   s t r a i n   c a l c u l a t i o n s   f o r   t i m e  s t e p      703   ( at time  4.91884E+00 )

 element  strain       eps-xx      eps-yy      eps-zz      eps-xy      eps-yz      eps-zx                            yield
 num/ipt   state
      13-      1
      1            1.4049E-02  1.4444E-02 -3.1240E-02  5.0130E-04 -1.7762E-03 -2.0700E-03
      14-      1
      1            1.2055E-02  1.2087E-02 -2.5855E-02  6.2930E-04 -4.0645E-03 -5.4041E-03
      15-      1
      1            8.5953E-03  7.9836E-03 -1.7882E-02  5.0487E-04 -4.8234E-03 -7.0965E-03
      21-      1
      1            1.4960E-02  1.4344E-02 -3.1653E-02  2.9884E-04 -2.3161E-03 -1.3936E-03
      22-      1
      1            1.2683E-02  1.2334E-02 -2.6617E-02  6.7538E-04 -5.9958E-03 -3.7056E-03
      23-      1
      1            8.0560E-03  7.9705E-03 -1.7560E-02  7.2037E-04 -7.1261E-03 -4.7610E-03
      53-      1
      1            1.4435E-02  1.3549E-02 -3.0330E-02  1.1798E-03 -3.3826E-04 -1.8384E-03
      54-      1
      1            1.2671E-02  1.1425E-02 -2.5630E-02  7.4131E-04 -7.8401E-04 -5.8262E-03
      55-      1
      1            8.9067E-03  7.1981E-03 -1.6819E-02  2.6387E-04 -1.1028E-03 -7.7516E-03
      93-      1
      1            1.5243E-02  1.5149E-02 -3.2300E-02  1.2332E-04 -2.3500E-03 -3.9179E-04
      94-      1
      1            1.2209E-02  1.2980E-02 -2.6918E-02  5.2922E-04 -6.4803E-03 -1.2228E-03
      95-      1
      1            7.3813E-03  8.3327E-03 -1.7438E-02  3.9957E-04 -7.8331E-03 -1.6963E-03



 e l e m e n t   s t r e s s   c a l c u l a t i o n s   f o r   t i m e  s t e p      712   ( at time 6.62612E+00 )

 element  materl
     ipt  stress       sig-xx      sig-yy      sig-zz      sig-xy      sig-yz      sig-zx                       yield
           state                                                                                  effsg      function
      13-      1
       1          -1.0539E+08 -1.0496E+08 -3.7480E+08  4.0056E+06 -6.0705E+06 -6.0078E+06    2.7012E+08    4.2294E-02
      14-      1
       1          -7.9262E+07 -7.9400E+07 -3.2218E+08  4.7516E+06 -1.8790E+07 -3.1234E+07    2.5105E+08    3.2326E-02
      15-      1
       1          -1.2347E+07 -1.5955E+07 -2.6134E+08  7.9412E+05 -4.4569E+07 -6.0275E+07    2.7923E+08    2.4052E-02
      21-      1
       1          -1.0471E+08 -1.0562E+08 -3.8023E+08  2.4932E+06 -7.7487E+06 -6.6624E+06    2.7567E+08    4.1326E-02
      22-      1
       1          -3.1918E+07 -3.2343E+07 -3.1242E+08  5.7407E+06 -3.6836E+07 -2.2608E+07    2.9029E+08    3.3374E-02
      23-      1
       1          -3.0303E+07 -3.4031E+07 -2.8223E+08  1.8623E+06 -6.0973E+07 -3.9954E+07    2.8016E+08    2.3953E-02
      53-      1
       1          -9.8426E+07 -1.0585E+08 -3.7968E+08  4.3756E+06 -1.9692E+06 -4.7123E+06    2.7786E+08    3.9607E-02
      54-      1
       1          -2.9198E+07 -3.6967E+07 -3.0203E+08  5.0249E+06 -2.6278E+06 -2.9938E+07    2.7415E+08    3.5055E-02
      55-      1
       1          -2.0407E+07 -3.0569E+07 -2.2771E+08 -4.5721E+05 -2.2165E+06 -5.6635E+07    2.2497E+08    2.5465E-02
      93-      1
       1          -6.0883E+07 -5.9481E+07 -3.4935E+08  5.8405E+05 -9.0836E+06 -1.7802E+06    2.8961E+08    3.9452E-02
      94-      1
       1          -4.7262E+07 -4.4202E+07 -3.2970E+08  2.7197E+06 -3.5992E+07 -6.0932E+06    2.9098E+08    3.3273E-02
      95-      1
       1          -4.8618E+07 -4.6071E+07 -2.9919E+08  2.1997E+06 -6.9796E+07 -1.2531E+07    2.8023E+08    2.4002E-02



 e l e m e n t   s t r a i n   c a l c u l a t i o n s   f o r   t i m e  s t e p      712   ( at time  6.62612E+00 )

 element  strain       eps-xx      eps-yy      eps-zz      eps-xy      eps-yz      eps-zx                            yield
 num/ipt   state
      13-      1
      1            1.9639E-02  1.9992E-02 -4.2601E-02  8.0335E-04 -1.9724E-03 -2.2936E-03
      14-      1
      1            1.7742E-02  1.7829E-02 -3.7022E-02  1.0538E-03 -5.7719E-03 -7.5501E-03
      15-      1
      1            1.2283E-02  1.1493E-02 -2.5215E-02  4.7782E-04 -6.6669E-03 -9.5382E-03
      21-      1
      1            2.0498E-02  1.9848E-02 -4.3347E-02  5.1311E-04 -2.6905E-03 -1.7956E-03
      22-      1
      1            1.7832E-02  1.7556E-02 -3.7323E-02  1.1036E-03 -7.9032E-03 -4.9571E-03
      23-      1
      1            1.1881E-02  1.1617E-02 -2.5211E-02  7.5997E-04 -9.5212E-03 -6.3680E-03
      53-      1
      1            2.0126E-02  1.8696E-02 -4.1783E-02  1.4449E-03 -3.9349E-04 -2.0786E-03
      54-      1
      1            1.7966E-02  1.6182E-02 -3.6046E-02  1.0755E-03 -8.8225E-04 -7.3227E-03
      55-      1
      1            1.2878E-02  1.0947E-02 -2.4410E-02  3.7618E-04 -1.8366E-03 -1.0440E-02
      93-      1
      1            2.0793E-02  2.0949E-02 -4.4185E-02  1.8270E-04 -2.8209E-03 -4.9471E-04
      94-      1
      1            1.7129E-02  1.8151E-02 -3.7434E-02  6.7613E-04 -8.1787E-03 -1.5055E-03
      95-      1
      1            1.1178E-02  1.2197E-02 -2.5317E-02  4.9457E-04 -1.0678E-02 -2.1539E-03



 e l e m e n t   s t r e s s   c a l c u l a t i o n s   f o r   t i m e  s t e p      720   ( at time 8.33339E+00 )

 element  materl
     ipt  stress       sig-xx      sig-yy      sig-zz      sig-xy      sig-yz      sig-zx                       yield
           state                                                                                  effsg      function
      13-      1
       1          -7.3755E+07 -6.9229E+07 -3.5920E+08  2.6839E+06 -6.2505E+06 -3.8209E+06    2.8805E+08    5.6417E-02
      14-      1
       1          -2.3715E+08 -2.4030E+08 -3.8127E+08 -1.5070E+05 -8.6033E+06 -1.6448E+07    1.4615E+08    3.8509E-02
      15-      1
       1          -4.9716E+07 -4.8615E+07 -2.6233E+08 -1.4134E+06 -4.3386E+07 -5.2947E+07    2.4393E+08    3.2789E-02
      21-      1
       1          -9.0206E+07 -9.3390E+07 -3.7611E+08 -4.3543E+05 -6.1333E+06 -6.2976E+06    2.8473E+08    5.5839E-02
      22-      1
       1          -1.3579E+08 -1.3506E+08 -3.5045E+08  8.4350E+05 -2.8852E+07 -1.6275E+07    2.2256E+08    4.2783E-02
      23-      1
       1          -2.3727E+07 -2.5393E+07 -2.7207E+08  1.5820E+06 -6.2392E+07 -4.1535E+07    2.7951E+08    3.3537E-02
      53-      1
       1          -1.0569E+08 -1.1123E+08 -4.0283E+08  2.2871E+06 -2.5416E+06 -5.2566E+06    2.9461E+08    5.3082E-02
      54-      1
       1          -1.2155E+07 -1.9309E+07 -2.9749E+08  3.7970E+06 -2.5189E+06 -2.9833E+07    2.8664E+08    4.7214E-02
      55-      1
       1          -6.4382E+07 -7.6136E+07 -2.5094E+08 -3.1080E+06  1.9567E+06 -5.4050E+07    2.0384E+08    3.3155E-02
      93-      1
       1          -5.8746E+07 -6.2445E+07 -3.5456E+08 -1.7552E+06 -8.6754E+06 -2.2888E+06    2.9440E+08    5.3779E-02
      94-      1
       1          -4.0108E+07 -3.6995E+07 -3.2849E+08  2.1144E+06 -3.7754E+07 -6.7429E+06    2.9749E+08    4.5561E-02
      95-      1
       1          -3.6337E+07 -2.9735E+07 -2.8850E+08  2.3489E+06 -7.1165E+07 -1.3917E+07    2.8476E+08    3.3348E-02



 e l e m e n t   s t r a i n   c a l c u l a t i o n s   f o r   t i m e  s t e p      720   ( at time  8.33339E+00 )

 element  strain       eps-xx      eps-yy      eps-zz      eps-xy      eps-yz      eps-zx                            yield
 num/ipt   state
      13-      1
      1            2.6340E-02  2.7070E-02 -5.6126E-02  9.6864E-04 -2.2581E-03 -2.4398E-03
      14-      1
      1            2.4344E-02  2.4706E-02 -4.9021E-02  1.3715E-03 -7.4148E-03 -9.6860E-03
      15-      1
      1            1.6820E-02  1.5949E-02 -3.3665E-02  5.1071E-04 -8.7558E-03 -1.2679E-02
      21-      1
      1            2.7501E-02  2.6561E-02 -5.7057E-02  4.3205E-04 -2.9566E-03 -2.1676E-03
      22-      1
      1            2.4234E-02  2.4045E-02 -4.9556E-02  1.3789E-03 -1.0195E-02 -6.5902E-03
      23-      1
      1            1.6024E-02  1.5782E-02 -3.3441E-02  9.0758E-04 -1.2394E-02 -8.2907E-03
      53-      1
      1            2.6877E-02  2.5099E-02 -5.5238E-02  1.5532E-03 -5.0847E-04 -2.4012E-03
      54-      1
      1            2.4069E-02  2.1827E-02 -4.7706E-02  1.3028E-03 -1.0394E-03 -8.9258E-03
      55-      1
      1            1.8042E-02  1.5234E-02 -3.3272E-02  4.2161E-04 -2.5098E-03 -1.3788E-02
      93-      1
      1            2.7916E-02  2.7702E-02 -5.8236E-02  1.5242E-05 -3.3714E-03 -6.1950E-04
      94-      1
      1            2.3041E-02  2.4325E-02 -4.9549E-02  8.1247E-04 -1.0284E-02 -1.8598E-03
      95-      1
      1            1.5158E-02  1.6718E-02 -3.3675E-02  6.3529E-04 -1.3822E-02 -2.7912E-03



 e l e m e n t   s t r e s s   c a l c u l a t i o n s   f o r   t i m e  s t e p      734   ( at time 1.00407E+01 )

 element  materl
     ipt  stress       sig-xx      sig-yy      sig-zz      sig-xy      sig-yz      sig-zx                       yield
           state                                                                                  effsg      function
      13-      1
       1          -6.9855E+07 -6.6765E+07 -3.6017E+08  5.1561E+04 -4.5082E+06  1.0681E+06    2.9199E+08    7.1669E-02
      14-      1
       1          -2.6063E+08 -2.6277E+08 -4.0758E+08 -2.9662E+06 -8.7225E+06 -1.5113E+07    1.4908E+08    4.4911E-02
      15-      1
       1          -9.5539E+07 -8.6696E+07 -2.6582E+08 -2.2494E+06 -4.6949E+07 -4.7970E+07    2.1003E+08    4.0845E-02
      21-      1
       1          -7.2106E+07 -7.4755E+07 -3.5621E+08 -3.8316E+05 -3.9217E+06 -2.5137E+06    2.8291E+08    7.1067E-02
      22-      1
       1          -1.2179E+08 -1.2263E+08 -3.4271E+08 -8.2953E+05 -2.6241E+07 -1.6163E+07    2.2688E+08    5.2379E-02
      23-      1
       1           1.2810E+05  1.0147E+06 -2.4777E+08 -1.6247E+05 -6.0493E+07 -4.1576E+07    2.7900E+08    4.4159E-02
      53-      1
       1          -3.6851E+07 -4.0786E+07 -3.3883E+08  3.0654E+06 -1.8685E+06 -2.1264E+06    3.0012E+08    6.8575E-02
      54-      1
       1          -1.0528E+08 -1.0707E+08 -3.1990E+08  2.0398E+06  1.1173E+06 -2.0405E+07    2.1668E+08    5.7550E-02
      55-      1
       1          -1.0205E+08 -1.1613E+08 -2.5555E+08 -6.6566E+06 -2.3545E+06 -4.6167E+07    1.6776E+08    4.0174E-02
      93-      1
       1          -6.5967E+07 -6.8395E+07 -3.5088E+08 -2.6049E+06 -4.6394E+06 -1.6988E+06    2.8387E+08    6.8339E-02
      94-      1
       1          -2.6403E+07 -2.1829E+07 -3.2067E+08  2.8447E+05 -3.0766E+07 -6.1282E+06    3.0152E+08    5.8162E-02
      95-      1
       1          -8.3890E+06 -1.3008E+06 -2.6227E+08  1.7541E+06 -7.1173E+07 -1.3068E+07    2.8640E+08    4.4297E-02



 e l e m e n t   s t r a i n   c a l c u l a t i o n s   f o r   t i m e  s t e p      734   ( at time  1.00407E+01 )

 element  strain       eps-xx      eps-yy      eps-zz      eps-xy      eps-yz      eps-zx                            yield
 num/ipt   state
      13-      1
      1            3.3402E-02  3.4327E-02 -7.0573E-02  9.1826E-04 -2.3767E-03 -2.2868E-03
      14-      1
      1            3.0879E-02  3.1565E-02 -6.1673E-02  1.1158E-03 -8.5979E-03 -1.1441E-02
      15-      1
      1            2.1367E-02  2.0830E-02 -4.2573E-02  4.2429E-04 -1.0627E-02 -1.5949E-02
      21-      1
      1            3.4587E-02  3.3413E-02 -7.0872E-02  4.0849E-04 -2.9608E-03 -2.2784E-03
      22-      1
      1            3.0830E-02  3.0763E-02 -6.2084E-02  1.4205E-03 -1.2036E-02 -8.1102E-03
      23-      1
      1            2.0570E-02  2.0538E-02 -4.2443E-02  9.8002E-04 -1.5239E-02 -1.0318E-02
      53-      1
      1            3.4865E-02  3.2781E-02 -7.0111E-02  1.7846E-03 -5.1947E-04 -2.4950E-03
      54-      1
      1            3.0727E-02  2.8557E-02 -6.0621E-02  1.5700E-03 -9.4475E-04 -1.0430E-02
      55-      1
      1            2.3395E-02  1.9757E-02 -4.2297E-02  1.1773E-04 -2.8779E-03 -1.7359E-02
      93-      1
      1            3.4558E-02  3.4170E-02 -7.1521E-02 -1.9023E-04 -3.4641E-03 -7.0150E-04
      94-      1
      1            2.9096E-02  3.0778E-02 -6.1992E-02  8.1289E-04 -1.1737E-02 -2.1624E-03
      95-      1
      1            1.9820E-02  2.1993E-02 -4.3283E-02  7.6017E-04 -1.7338E-02 -3.4347E-03



 e l e m e n t   s t r e s s   c a l c u l a t i o n s   f o r   t i m e  s t e p      746   ( at time 1.17479E+01 )

 element  materl
     ipt  stress       sig-xx      sig-yy      sig-zz      sig-xy      sig-yz      sig-zx                       yield
           state                                                                                  effsg      function
      13-      1
       1          -9.1075E+07 -8.2255E+07 -3.8797E+08 -1.2655E+07 -5.3995E+06  3.2147E+06    3.0239E+08    8.7471E-02
      14-      1
       1          -2.9135E+08 -2.9750E+08 -4.4308E+08 -5.3387E+06 -4.5125E+05 -1.3963E+07    1.5099E+08    5.1565E-02
      15-      1
       1          -1.0037E+08 -9.7188E+07 -2.7532E+08  1.6468E+06 -4.8742E+07 -5.1069E+07    2.1478E+08    4.9629E-02
      21-      1
       1          -5.8529E+07 -6.7453E+07 -3.5113E+08 -1.2973E+07 -2.4237E+06  5.8354E+05    2.8915E+08    8.8340E-02
      22-      1
       1          -2.6393E+08 -2.6610E+08 -4.1216E+08 -5.8511E+06 -1.4638E+07 -1.4800E+07    1.5185E+08    5.8960E-02
      23-      1
       1           9.7408E+06  1.3984E+07 -2.2938E+08 -4.0419E+05 -6.5980E+07 -4.4009E+07    2.7764E+08    5.5796E-02
      53-      1
       1          -6.6637E+07 -5.4256E+07 -3.2879E+08 -6.4681E+06  2.0466E+06 -3.0223E+06    2.6886E+08    8.1966E-02
      54-      1
       1          -6.9045E+07 -5.8795E+07 -2.8431E+08  3.1853E+06  3.2993E+06 -1.6169E+07    2.2248E+08    6.8095E-02
      55-      1
       1          -7.5860E+07 -9.3387E+07 -2.3364E+08 -9.6130E+06 -4.9622E+06 -4.3841E+07    1.6898E+08    4.8612E-02
      93-      1
       1          -4.0363E+07 -5.5634E+07 -3.3163E+08 -3.6248E+06 -1.4012E+06 -1.7032E+06    2.8403E+08    8.6306E-02
      94-      1
       1          -1.1669E+08 -1.2093E+08 -3.4023E+08 -2.4991E+06 -3.1710E+07 -6.1171E+06    2.2844E+08    6.8670E-02
      95-      1
       1           1.4787E+07  1.8562E+07 -2.2797E+08 -1.3709E+04 -7.6324E+07 -1.4752E+07    2.7926E+08    5.5844E-02



 e l e m e n t   s t r a i n   c a l c u l a t i o n s   f o r   t i m e  s t e p      746   ( at time  1.17479E+01 )

 element  strain       eps-xx      eps-yy      eps-zz      eps-xy      eps-yz      eps-zx                            yield
 num/ipt   state
      13-      1
      1            4.0472E-02  4.2135E-02 -8.5930E-02 -2.6344E-04 -2.6360E-03 -1.8364E-03
      14-      1
      1            3.7585E-02  3.8293E-02 -7.4800E-02  4.8389E-04 -9.3362E-03 -1.2467E-02
      15-      1
      1            2.7183E-02  2.5704E-02 -5.2409E-02  9.9687E-04 -1.2768E-02 -2.0118E-02
      21-      1
      1            4.2877E-02  4.0858E-02 -8.6677E-02 -8.9169E-04 -2.6956E-03 -2.0030E-03
      22-      1
      1            3.8042E-02  3.8133E-02 -7.5127E-02  2.6946E-04 -1.4061E-02 -9.0600E-03
      23-      1
      1            2.5173E-02  2.5615E-02 -5.1956E-02  1.2282E-03 -1.8575E-02 -1.2356E-02
      53-      1
      1            4.2065E-02  4.1164E-02 -8.5287E-02  1.1600E-03 -1.4460E-04 -2.2689E-03
      54-      1
      1            3.7241E-02  3.6304E-02 -7.3912E-02  1.8223E-03 -6.3364E-04 -1.1188E-02
      55-      1
      1            3.0272E-02  2.5274E-02 -5.2477E-02 -2.8609E-04 -3.8045E-03 -2.1936E-02
      93-      1
      1            4.3415E-02  4.1481E-02 -8.7619E-02 -5.1797E-04 -3.0820E-03 -7.5939E-04
      94-      1
      1            3.6705E-02  3.8007E-02 -7.5608E-02  7.3193E-04 -1.3779E-02 -2.4274E-03
      95-      1
      1            2.4401E-02  2.7170E-02 -5.2704E-02  8.2917E-04 -2.1028E-02 -4.1343E-03



 e l e m e n t   s t r e s s   c a l c u l a t i o n s   f o r   t i m e  s t e p      754   ( at time 1.34552E+01 )

 element  materl
     ipt  stress       sig-xx      sig-yy      sig-zz      sig-xy      sig-yz      sig-zx                       yield
           state                                                                                  effsg      function
      13-      1
       1          -1.1434E+08 -1.1364E+08 -4.2520E+08 -6.7915E+06 -5.1378E+06 -2.2842E+06    3.1159E+08    9.9771E-02
      14-      1
       1          -2.9348E+08 -2.9826E+08 -4.4910E+08 -2.7136E+06 -1.1141E+06 -1.0572E+07    1.5446E+08    5.7496E-02
      15-      1
       1          -1.0203E+08 -1.0293E+08 -2.9564E+08 -1.5935E+06 -4.2771E+07 -4.8180E+07    2.2309E+08    5.7359E-02
      21-      1
       1          -7.8150E+07 -8.6662E+07 -3.8699E+08 -7.3749E+06 -6.5331E+06  1.0930E+06    3.0516E+08    1.0200E-01
      22-      1
       1          -3.0313E+08 -3.0193E+08 -4.5423E+08 -4.5662E+06 -1.3655E+07 -1.0975E+07    1.5491E+08    6.4739E-02
      23-      1
       1           1.5662E+06  3.2062E+06 -2.5437E+08 -2.0200E+06 -6.4753E+07 -4.1939E+07    2.8947E+08    6.5471E-02
      53-      1
       1          -1.0103E+08 -9.4725E+07 -3.3312E+08 -1.6700E+06  4.8860E+06 -7.0565E+06    2.3579E+08    9.1916E-02
      54-      1
       1          -1.0824E+08 -1.1174E+08 -2.9895E+08 -8.8163E+05  7.6657E+06 -1.3921E+07    1.9098E+08    7.5123E-02
      55-      1
       1          -1.3222E+08 -1.4500E+08 -2.7333E+08 -7.5553E+06 -8.1437E+06 -2.7236E+07    1.4446E+08    5.3418E-02
      93-      1
       1          -2.2961E+07 -3.8549E+07 -3.3534E+08 -3.7375E+06 -4.0950E+06  2.5668E+06    3.0506E+08    1.0203E-01
      94-      1
       1          -2.6110E+08 -2.6291E+08 -4.1280E+08 -2.7270E+06 -1.9571E+07 -4.0840E+06    1.5480E+08    7.4311E-02
      95-      1
       1          -1.0054E+08 -9.3590E+07 -2.7848E+08  1.6640E+06 -7.1484E+07 -1.2328E+07    2.2078E+08    6.2430E-02



 e l e m e n t   s t r a i n   c a l c u l a t i o n s   f o r   t i m e  s t e p      754   ( at time  1.34552E+01 )

 element  strain       eps-xx      eps-yy      eps-zz      eps-xy      eps-yz      eps-zx                            yield
 num/ipt   state
      13-      1
      1            4.6398E-02  4.7945E-02 -9.8211E-02 -5.3225E-04 -2.7640E-03 -1.9084E-03
      14-      1
      1            4.3774E-02  4.4133E-02 -8.6350E-02  3.8069E-04 -1.0184E-02 -1.3662E-02
      15-      1
      1            3.2398E-02  3.0490E-02 -6.1899E-02  1.1291E-03 -1.4381E-02 -2.3084E-02
      21-      1
      1            4.9574E-02  4.7010E-02 -1.0001E-01 -1.2377E-03 -3.0517E-03 -1.7376E-03
      22-      1
      1            4.3933E-02  4.4352E-02 -8.6786E-02  9.4740E-05 -1.5905E-02 -9.9225E-03
      23-      1
      1            2.9350E-02  2.9945E-02 -6.0712E-02  1.2801E-03 -2.1069E-02 -1.3833E-02
      53-      1
      1            4.8531E-02  4.7953E-02 -9.8431E-02  1.0486E-03  1.5802E-04 -2.5353E-03
      54-      1
      1            4.3029E-02  4.1907E-02 -8.4658E-02  1.7078E-03 -4.8472E-04 -1.2609E-02
      55-      1
      1            3.5726E-02  2.9611E-02 -6.1294E-02 -3.9998E-04 -4.0683E-03 -2.4882E-02
      93-      1
      1            5.1566E-02  4.8504E-02 -1.0282E-01 -7.8297E-04 -3.2181E-03 -3.7943E-04
      94-      1
      1            4.3205E-02  4.4460E-02 -8.6874E-02  7.1482E-04 -1.5886E-02 -2.6371E-03
      95-      1
      1            2.8059E-02  3.1460E-02 -6.0580E-02  9.2500E-04 -2.3504E-02 -4.5087E-03



 e l e m e n t   s t r e s s   c a l c u l a t i o n s   f o r   t i m e  s t e p      762   ( at time 1.51625E+01 )

 element  materl
     ipt  stress       sig-xx      sig-yy      sig-zz      sig-xy      sig-yz      sig-zx                       yield
           state                                                                                  effsg      function
      13-      1
       1          -1.1633E+08 -1.0992E+08 -4.2789E+08 -4.9252E+06 -7.3321E+06 -2.8414E+06    3.1523E+08    1.1389E-01
      14-      1
       1          -2.9851E+08 -3.0108E+08 -4.5554E+08 -5.2808E+06  4.5697E+06 -2.3105E+06    1.5628E+08    6.3875E-02
      15-      1
       1          -1.8834E+08 -1.9503E+08 -3.0860E+08  7.6328E+05 -3.3369E+07 -4.3372E+07    1.5063E+08    6.3412E-02
      21-      1
       1          -7.9081E+07 -9.0796E+07 -3.9294E+08 -8.3747E+06 -8.0940E+06  1.2863E+06    3.0884E+08    1.1636E-01
      22-      1
       1          -3.3291E+08 -3.2888E+08 -4.8708E+08 -3.8988E+06 -5.7737E+06 -7.7728E+06    1.5726E+08    7.1175E-02
      23-      1
       1          -4.9036E+07 -4.4625E+07 -2.6218E+08  4.7635E+05 -6.5624E+07 -4.2345E+07    2.5434E+08    7.5725E-02
      53-      1
       1          -3.2853E+07 -2.5087E+07 -2.6771E+08  6.4511E+05  4.5551E+06 -9.6260E+06    2.3955E+08    1.0395E-01
      54-      1
       1          -1.7891E+08 -1.7882E+08 -3.3200E+08  7.2307E+05  3.0634E+06 -7.2665E+06    1.5375E+08    8.1529E-02
      55-      1
       1          -9.7114E+07 -1.1102E+08 -2.4262E+08 -3.8475E+06 -3.0841E+06 -2.8588E+07    1.4788E+08    5.8995E-02
      93-      1
       1          -2.6370E+07 -4.4644E+07 -3.4302E+08 -3.8520E+06 -5.2950E+06  2.3724E+06    3.0816E+08    1.1727E-01
      94-      1
       1          -2.9394E+08 -2.9256E+08 -4.4924E+08 -1.2159E+06 -1.2024E+07 -3.0924E+06    1.5748E+08    8.0871E-02
      95-      1
       1          -1.1448E+08 -1.0832E+08 -2.8785E+08  1.6025E+06 -7.4842E+07 -1.2483E+07    2.2010E+08    7.0723E-02



 e l e m e n t   s t r a i n   c a l c u l a t i o n s   f o r   t i m e  s t e p      762   ( at time  1.51625E+01 )

 element  strain       eps-xx      eps-yy      eps-zz      eps-xy      eps-yz      eps-zx                            yield
 num/ipt   state
      13-      1
      1            5.2952E-02  5.5053E-02 -1.1202E-01 -8.1626E-04 -2.9146E-03 -1.9188E-03
      14-      1
      1            5.0084E-02  5.0748E-02 -9.8620E-02  1.9921E-05 -1.0375E-02 -1.3980E-02
      15-      1
      1            3.8662E-02  3.6030E-02 -7.2507E-02  1.3321E-03 -1.5737E-02 -2.6525E-02
      21-      1
      1            5.6755E-02  5.3348E-02 -1.1372E-01 -1.8019E-03 -3.3135E-03 -1.5257E-03
      22-      1
      1            5.0415E-02  5.1211E-02 -9.9685E-02 -2.4837E-04 -1.7279E-02 -1.0374E-02
      23-      1
      1            3.4149E-02  3.5226E-02 -7.0646E-02  1.5826E-03 -2.4038E-02 -1.5567E-02
      53-      1
      1            5.6477E-02  5.6820E-02 -1.1380E-01  1.2073E-03  4.8901E-04 -2.9216E-03
      54-      1
      1            4.9560E-02  4.8833E-02 -9.7162E-02  1.8173E-03  2.1878E-05 -1.3645E-02
      55-      1
      1            4.1899E-02  3.4790E-02 -7.1053E-02 -7.2206E-05 -3.8207E-03 -2.7953E-02
      93-      1
      1            5.9371E-02  5.4974E-02 -1.1734E-01 -1.0496E-03 -3.3205E-03 -1.0721E-04
      94-      1
      1            5.0080E-02  5.1317E-02 -1.0015E-01  7.9331E-04 -1.7472E-02 -2.5802E-03
      95-      1
      1            3.2366E-02  3.6615E-02 -6.9905E-02  1.0682E-03 -2.6586E-02 -5.0131E-03



 e l e m e n t   s t r e s s   c a l c u l a t i o n s   f o r   t i m e  s t e p      775   ( at time 1.68698E+01 )

 element  materl
     ipt  stress       sig-xx      sig-yy      sig-zz      sig-xy      sig-yz      sig-zx                       yield
           state                                                                                  effsg      function
      13-      1
       1          -1.3272E+08 -1.1621E+08 -4.2697E+08 -4.1111E+06 -8.7738E+06  1.7618E+06    3.0333E+08    1.2624E-01
      14-      1
       1          -2.5576E+08 -2.5657E+08 -4.1401E+08 -3.9533E+05  7.0694E+06 -6.8128E+06    1.5876E+08    7.2616E-02
      15-      1
       1          -2.0767E+08 -2.0388E+08 -3.2452E+08 -7.2184E+06 -3.5203E+07 -4.1176E+07    1.5190E+08    6.8866E-02
      21-      1
       1          -7.6669E+07 -8.0739E+07 -3.7815E+08 -1.4191E+07 -8.7607E+06 -1.0013E+06    3.0086E+08    1.3040E-01
      22-      1
       1          -3.3270E+08 -3.2579E+08 -4.8873E+08  1.4976E+06  4.6308E+06 -4.9815E+06    1.6005E+08    7.8378E-02
      23-      1
       1          -1.2815E+08 -1.3404E+08 -2.8069E+08 -7.0039E+05 -5.8806E+07 -2.6646E+07    1.8684E+08    8.2933E-02
      53-      1
       1          -9.7384E+07 -9.0908E+07 -2.9245E+08  1.5561E+06  5.7683E+06 -1.4892E+07    2.0032E+08    1.1343E-01
      54-      1
       1          -1.8895E+08 -2.0151E+08 -3.4655E+08 -3.1550E+05  1.0111E+07 -2.0919E+05    1.5272E+08    8.8203E-02
      55-      1
       1          -5.5903E+07 -6.2333E+07 -1.9132E+08 -1.1305E+07 -4.2044E+06 -3.4728E+07    1.4684E+08    6.5256E-02
      93-      1
       1          -3.0377E+07 -4.7623E+07 -3.3677E+08 -5.1442E+06 -5.7676E+06  3.8090E+05    2.9845E+08    1.3194E-01
      94-      1
       1          -2.8807E+08 -2.7323E+08 -4.3942E+08 -2.1284E+06  1.2032E+07 -3.6806E+05    1.6069E+08    8.8681E-02
      95-      1
       1          -1.3514E+08 -1.3290E+08 -2.7835E+08  9.5720E+05 -6.6987E+07 -7.8487E+06    1.8570E+08    7.8555E-02



 e l e m e n t   s t r a i n   c a l c u l a t i o n s   f o r   t i m e  s t e p      775   ( at time  1.68698E+01 )

 element  strain       eps-xx      eps-yy      eps-zz      eps-xy      eps-yz      eps-zx                            yield
 num/ipt   state
      13-      1
      1            5.7959E-02  6.1192E-02 -1.2335E-01 -1.0390E-03 -2.8087E-03 -1.4721E-03
      14-      1
      1            5.8171E-02  5.9320E-02 -1.1562E-01 -9.0964E-05 -9.9942E-03 -1.3326E-02
      15-      1
      1            4.4428E-02  4.2273E-02 -8.2157E-02  8.6068E-04 -1.6773E-02 -2.9983E-02
      21-      1
      1            6.3155E-02  5.9582E-02 -1.2634E-01 -2.8034E-03 -3.7941E-03 -1.4484E-03
      22-      1
      1            5.6648E-02  5.9075E-02 -1.1366E-01 -1.2735E-04 -1.8387E-02 -1.0253E-02
      23-      1
      1            3.9617E-02  4.0955E-02 -8.0873E-02  1.6016E-03 -2.6149E-02 -1.7199E-02
      53-      1
      1            6.4686E-02  6.5231E-02 -1.2923E-01  1.5947E-03  9.3839E-04 -3.8296E-03
      54-      1
      1            5.6359E-02  5.4548E-02 -1.0964E-01  1.7342E-03  8.4322E-04 -1.3790E-02
      55-      1
      1            4.8734E-02  4.0281E-02 -8.1742E-02 -1.1310E-03 -3.2180E-03 -3.0943E-02
      93-      1
      1            6.6449E-02  6.0906E-02 -1.3048E-01 -1.4176E-03 -3.2657E-03 -1.0580E-04
      94-      1
      1            5.6837E-02  5.9278E-02 -1.1449E-01  8.6191E-04 -1.8503E-02 -2.4140E-03
      95-      1
      1            3.7606E-02  4.3401E-02 -8.0352E-02  1.3186E-03 -3.0041E-02 -5.0767E-03



 e l e m e n t   s t r e s s   c a l c u l a t i o n s   f o r   t i m e  s t e p      788   ( at time 1.85770E+01 )

 element  materl
     ipt  stress       sig-xx      sig-yy      sig-zz      sig-xy      sig-yz      sig-zx                       yield
           state                                                                                  effsg      function
      13-      1
       1          -1.4235E+08 -1.2475E+08 -4.1965E+08 -4.5502E+06 -5.8620E+06  2.5151E+06    2.8683E+08    1.3917E-01
      14-      1
       1          -1.3114E+08 -1.3015E+08 -2.9056E+08  2.6381E+06  1.2402E+07  2.8834E+06    1.6149E+08    8.2443E-02
      15-      1
       1          -1.3092E+08 -1.2534E+08 -2.3462E+08 -1.3638E+07 -3.7671E+07 -4.8945E+07    1.5285E+08    7.6110E-02
      21-      1
       1          -6.5928E+07 -7.3516E+07 -3.5852E+08 -1.1672E+07 -8.4096E+06  2.0135E+06    2.8996E+08    1.4365E-01
      22-      1
       1          -2.9581E+08 -2.8495E+08 -4.5034E+08  6.2460E+06  1.3412E+07  9.0479E+05    1.6228E+08    8.6978E-02
      23-      1
       1          -1.3255E+08 -1.2948E+08 -2.6830E+08 -3.2696E+06 -6.2935E+07 -2.8000E+07    1.8200E+08    9.1632E-02
      53-      1
       1          -4.3008E+07 -4.3209E+07 -2.4363E+08  6.1643E+06  4.8879E+06 -1.5636E+07    2.0280E+08    1.2439E-01
      54-      1
       1          -1.8501E+08 -2.0598E+08 -3.4542E+08  1.6221E+06  9.5965E+06 -1.7173E+06    1.5198E+08    9.5850E-02
      55-      1
       1          -1.0363E+08 -1.0749E+08 -1.9927E+08 -1.1434E+07  1.0004E+07 -2.7806E+07    1.0865E+08    6.9723E-02
      93-      1
       1          -3.3655E+07 -4.6663E+07 -3.3114E+08 -5.4177E+06 -5.7901E+06  1.7083E+06    2.9154E+08    1.4687E-01
      94-      1
       1          -2.9006E+08 -2.7976E+08 -4.4051E+08  7.4325E+04  2.7003E+07  2.1983E+06    1.6276E+08    9.7213E-02
      95-      1
       1          -1.7160E+08 -1.8116E+08 -2.6551E+08  1.3726E+05 -7.4046E+07 -5.0094E+06    1.5664E+08    8.5797E-02



 e l e m e n t   s t r a i n   c a l c u l a t i o n s   f o r   t i m e  s t e p      788   ( at time  1.85770E+01 )

 element  strain       eps-xx      eps-yy      eps-zz      eps-xy      eps-yz      eps-zx                            yield
 num/ipt   state
      13-      1
      1            6.2924E-02  6.7143E-02 -1.3438E-01 -1.2909E-03 -2.0242E-03 -1.1778E-03
      14-      1
      1            6.6601E-02  6.9060E-02 -1.3351E-01  3.0528E-05 -8.6416E-03 -1.1915E-02
      15-      1
      1            5.2658E-02  5.1034E-02 -9.2631E-02  4.1288E-04 -1.8669E-02 -3.5021E-02
      21-      1
      1            6.9126E-02  6.4976E-02 -1.3762E-01 -3.4313E-03 -4.1414E-03 -1.0811E-03
      22-      1
      1            6.3745E-02  6.7575E-02 -1.2952E-01  6.8089E-04 -1.8913E-02 -9.3316E-03
      23-      1
      1            4.5435E-02  4.8032E-02 -9.1910E-02  1.9409E-03 -2.8661E-02 -1.9742E-02
      53-      1
      1            7.5064E-02  7.4863E-02 -1.4647E-01  2.6067E-03  1.5250E-03 -5.0862E-03
      54-      1
      1            6.4922E-02  6.1105E-02 -1.2373E-01  2.2200E-03  1.6952E-03 -1.4042E-02
      55-      1
      1            5.5063E-02  4.5608E-02 -9.0746E-02 -1.6379E-03 -2.1138E-03 -3.3704E-02
      93-      1
      1            7.3261E-02  6.6895E-02 -1.4339E-01 -1.7827E-03 -3.3936E-03  1.3483E-04
      94-      1
      1            6.3878E-02  6.7114E-02 -1.2914E-01  1.1183E-03 -1.9191E-02 -1.7221E-03
      95-      1
      1            4.3449E-02  4.9261E-02 -9.1490E-02  1.1561E-03 -3.2324E-02 -5.2270E-03



 e l e m e n t   s t r e s s   c a l c u l a t i o n s   f o r   t i m e  s t e p      801   ( at time 2.02843E+01 )

 element  materl
     ipt  stress       sig-xx      sig-yy      sig-zz      sig-xy      sig-yz      sig-zx                       yield
           state                                                                                  effsg      function
      13-      1
       1          -2.1032E+07 -1.1931E+07 -3.1568E+08 -1.1286E+07 -2.9346E+06  1.2536E+05    2.9999E+08    1.5534E-01
      14-      1
       1          -1.0844E+08 -9.8307E+07 -2.6182E+08  9.2780E+06  1.6603E+07  9.4729E+05    1.6208E+08    9.1942E-02
      15-      1
       1          -1.2559E+07 -1.2324E+07 -1.0979E+08 -7.2229E+06 -4.3593E+07 -5.3647E+07    1.5482E+08    8.3266E-02
      21-      1
       1          -7.3825E+07 -7.3308E+07 -3.5492E+08 -6.1043E+06 -9.0875E+06  3.3899E+06    2.8205E+08    1.5775E-01
      22-      1
       1          -2.4445E+08 -2.4291E+08 -4.0454E+08  3.1619E+06  2.0357E+07  2.6904E+06    1.6484E+08    9.5688E-02
      23-      1
       1          -8.3584E+07 -7.1561E+07 -2.1422E+08 -7.0806E+06 -6.2221E+07 -2.6508E+07    1.8070E+08    1.0180E-01
      53-      1
       1          -2.9655E+07 -4.1310E+07 -1.9713E+08  6.6191E+06  7.6682E+06 -1.5128E+07    1.6500E+08    1.3503E-01
      54-      1
       1          -1.8922E+08 -1.9528E+08 -3.4539E+08  1.8447E+06  1.1047E+07 -2.4153E+06    1.5452E+08    1.0422E-01
      55-      1
       1          -6.6901E+07 -6.2126E+07 -1.5461E+08 -1.6743E+07  1.2419E+07 -2.9166E+07    1.0950E+08    7.4871E-02
      93-      1
       1          -3.3008E+07 -3.9020E+07 -3.0900E+08 -5.8312E+06 -8.7315E+06  1.4180E+06    2.7365E+08    1.6313E-01
      94-      1
       1          -2.8890E+08 -2.8275E+08 -4.3825E+08 -1.4712E+06  3.6256E+07  9.8716E+05    1.6497E+08    1.0665E-01
      95-      1
       1          -1.4119E+08 -1.4777E+08 -2.2368E+08  1.2087E+06 -7.9851E+07 -3.9576E+06    1.5964E+08    9.4657E-02



 e l e m e n t   s t r a i n   c a l c u l a t i o n s   f o r   t i m e  s t e p      801   ( at time  2.02843E+01 )

 element  strain       eps-xx      eps-yy      eps-zz      eps-xy      eps-yz      eps-zx                            yield
 num/ipt   state
      13-      1
      1            7.0571E-02  7.5124E-02 -1.4854E-01 -2.0925E-03 -8.4653E-04 -1.4428E-03
      14-      1
      1            7.4023E-02  7.8939E-02 -1.5098E-01  5.3816E-04 -7.0023E-03 -1.1913E-02
      15-      1
      1            6.0538E-02  5.9461E-02 -1.0153E-01  1.9325E-03 -2.1265E-02 -4.1231E-02
      21-      1
      1            7.4859E-02  7.0774E-02 -1.4927E-01 -3.6743E-03 -4.3439E-03 -7.4658E-04
      22-      1
      1            7.1076E-02  7.5836E-02 -1.4522E-01  8.8817E-04 -1.9379E-02 -7.8953E-03
      23-      1
      1            5.2324E-02  5.6523E-02 -1.0450E-01  1.8496E-03 -3.0828E-02 -2.3080E-02
      53-      1
      1            8.7868E-02  8.5298E-02 -1.6654E-01  4.7110E-03  1.6328E-03 -6.3673E-03
      54-      1
      1            7.3765E-02  6.9285E-02 -1.3906E-01  2.8744E-03  2.5427E-03 -1.5474E-02
      55-      1
      1            6.2113E-02  5.3183E-02 -9.9702E-02 -3.0069E-03 -2.7955E-04 -3.6439E-02
      93-      1
      1            7.9871E-02  7.3114E-02 -1.5620E-01 -2.2044E-03 -3.6272E-03  3.6492E-04
      94-      1
      1            7.1416E-02  7.5013E-02 -1.4420E-01  1.3615E-03 -2.0000E-02 -7.8464E-04
      95-      1
      1            4.9635E-02  5.5958E-02 -1.0424E-01  9.7784E-04 -3.4322E-02 -5.3191E-03



 e l e m e n t   s t r e s s   c a l c u l a t i o n s   f o r   t i m e  s t e p      813   ( at time 2.19916E+01 )

 element  materl
     ipt  stress       sig-xx      sig-yy      sig-zz      sig-xy      sig-yz      sig-zx                       yield
           state                                                                                  effsg      function
      13-      1
       1           2.1119E+07  2.9797E+07 -2.8080E+08 -1.6010E+07 -8.0459E+06  4.1287E+06    3.0800E+08    1.6876E-01
      14-      1
       1          -4.7154E+07 -3.8737E+07 -2.0452E+08  1.0326E+07  9.8366E+06  3.5416E+05    1.6361E+08    1.0091E-01
      15-      1
       1           3.1383E+07  2.1777E+07 -6.9689E+07 -1.4131E+07 -2.0784E+07 -3.2929E+07    1.2035E+08    8.7788E-02
      21-      1
       1          -7.5251E+07 -9.0053E+07 -3.6978E+08 -9.8723E+06 -1.0014E+07  5.4782E+06    2.8860E+08    1.7283E-01
      22-      1
       1          -2.4893E+08 -2.5484E+08 -4.1432E+08 -5.1467E+05  1.5969E+07  4.4078E+06    1.6504E+08    1.0385E-01
      23-      1
       1          -6.7561E+07 -5.6866E+07 -2.0235E+08 -9.6091E+06 -5.9107E+07 -2.9302E+07    1.8182E+08    1.1096E-01
      53-      1
       1          -3.5947E+07 -3.9248E+07 -2.0342E+08  3.4306E+06  3.1299E+06 -1.2379E+07    1.6742E+08    1.4326E-01
      54-      1
       1          -2.0898E+08 -2.0605E+08 -3.6701E+08  1.9956E+06  8.8307E+06 -1.0091E+07    1.6124E+08    1.1086E-01
      55-      1
       1          -3.4997E+07 -2.8559E+07 -1.2267E+08 -1.6387E+07  1.4015E+07 -3.2620E+07    1.1349E+08    7.9333E-02
      93-      1
       1          -4.8376E+07 -5.8755E+07 -3.1773E+08 -2.1183E+06 -6.7823E+06  1.0952E+06    2.6461E+08    1.7902E-01
      94-      1
       1          -2.3617E+08 -2.1830E+08 -3.8743E+08 -9.0245E+06  2.4278E+07  2.0853E+06    1.6712E+08    1.1698E-01
      95-      1
       1          -1.3442E+08 -1.3946E+08 -2.1483E+08  3.9350E+06 -8.3122E+07 -3.8267E+06    1.6402E+08    1.0332E-01



 e l e m e n t   s t r a i n   c a l c u l a t i o n s   f o r   t i m e  s t e p      813   ( at time  2.19916E+01 )

 element  strain       eps-xx      eps-yy      eps-zz      eps-xy      eps-yz      eps-zx                            yield
 num/ipt   state
      13-      1
      1            7.6687E-02  8.1560E-02 -1.6059E-01 -3.1765E-03 -4.6869E-04 -1.0040E-03
      14-      1
      1            8.2718E-02  8.8145E-02 -1.6808E-01  1.4197E-03 -6.3869E-03 -1.0365E-02
      15-      1
      1            6.8615E-02  6.7439E-02 -1.1150E-01  1.8396E-03 -2.3996E-02 -4.4966E-02
      21-      1
      1            8.1811E-02  7.6315E-02 -1.6203E-01 -4.3602E-03 -4.5398E-03 -2.5202E-04
      22-      1
      1            7.8663E-02  8.2955E-02 -1.6080E-01  8.5557E-04 -1.9446E-02 -6.2152E-03
      23-      1
      1            5.9062E-02  6.3475E-02 -1.1633E-01  1.3475E-03 -3.2628E-02 -2.5600E-02
      53-      1
      1            9.6635E-02  9.3996E-02 -1.8279E-01  5.5337E-03  1.7338E-03 -7.2731E-03
      54-      1
      1            8.0264E-02  7.6209E-02 -1.5263E-01  3.2802E-03  2.9428E-03 -1.5832E-02
      55-      1
      1            6.7392E-02  5.9084E-02 -1.0907E-01 -4.7247E-03  8.7212E-04 -3.7802E-02
      93-      1
      1            8.6223E-02  7.8606E-02 -1.6836E-01 -2.2840E-03 -3.2019E-03  3.0545E-04
      94-      1
      1            7.9255E-02  8.5332E-02 -1.6232E-01  4.0679E-04 -1.9574E-02  9.9544E-05
      95-      1
      1            5.5703E-02  6.4147E-02 -1.1669E-01  7.9369E-04 -3.7608E-02 -4.9818E-03



 e l e m e n t   s t r e s s   c a l c u l a t i o n s   f o r   t i m e  s t e p      826   ( at time 2.36989E+01 )

 element  materl
     ipt  stress       sig-xx      sig-yy      sig-zz      sig-xy      sig-yz      sig-zx                       yield
           state                                                                                  effsg      function
      13-      1
       1           6.9231E+06  1.4158E+07 -2.6482E+08 -1.4631E+07 -9.4980E+06 -3.3397E+06    2.7714E+08    1.7904E-01
      14-      1
       1          -1.2912E+07 -3.9525E+06 -1.7147E+08  5.7069E+06  3.7315E+06 -1.1507E+06    1.6366E+08    1.0885E-01
      15-      1
       1           3.3295E+06  2.3025E+05 -6.6286E+07 -7.0091E+06 -1.4625E+07 -2.1520E+07    8.2574E+07    9.1485E-02
      21-      1
       1           1.9685E+06  5.6720E+06 -2.8989E+08 -1.4136E+07 -1.2183E+07 -9.9895E+05    2.9551E+08    1.8836E-01
      22-      1
       1          -2.1430E+08 -2.2504E+08 -3.8764E+08 -3.0344E+06  6.9391E+06 -3.5031E+05    1.6874E+08    1.1137E-01
      23-      1
       1          -4.0789E+07 -3.6974E+07 -1.9500E+08 -1.0922E+07 -5.7828E+07 -2.8303E+07    1.9281E+08    1.1922E-01
      53-      1
       1          -6.7857E+07 -7.1216E+07 -1.9526E+08  5.4670E+05  9.5516E+05 -1.5838E+07    1.2872E+08    1.4867E-01
      54-      1
       1          -2.0192E+08 -1.9732E+08 -3.6121E+08  3.1447E+06  9.1912E+06 -1.7120E+07    1.6520E+08    1.1725E-01
      55-      1
       1          -3.2534E+07 -3.1838E+07 -1.2701E+08 -1.4756E+07  1.4974E+07 -3.2607E+07    1.1622E+08    8.3829E-02
      93-      1
       1           3.5713E+06 -1.4688E+07 -2.9233E+08  2.0004E+06 -1.3931E+07 -8.7372E+04    2.8824E+08    1.9651E-01
      94-      1
       1          -2.0654E+08 -1.9740E+08 -3.6780E+08 -8.9446E+06  1.7979E+07  6.1793E+05    1.6963E+08    1.2557E-01
      95-      1
       1          -1.0640E+08 -1.1027E+08 -1.9925E+08  6.2944E+06 -7.8980E+07 -3.8746E+06    1.6479E+08    1.1064E-01



 e l e m e n t   s t r a i n   c a l c u l a t i o n s   f o r   t i m e  s t e p      826   ( at time  2.36989E+01 )

 element  strain       eps-xx      eps-yy      eps-zz      eps-xy      eps-yz      eps-zx                            yield
 num/ipt   state
      13-      1
      1            8.2211E-02  8.7510E-02 -1.7113E-01 -4.0413E-03 -5.9646E-05 -5.0970E-04
      14-      1
      1            8.9805E-02  9.6272E-02 -1.8378E-01  1.3077E-03 -6.1919E-03 -8.2620E-03
      15-      1
      1            7.7228E-02  7.4613E-02 -1.2405E-01  1.4606E-03 -2.6813E-02 -4.7969E-02
      21-      1
      1            8.8572E-02  8.3473E-02 -1.7488E-01 -5.3262E-03 -5.1353E-03  1.5179E-04
      22-      1
      1            8.6006E-02  9.0321E-02 -1.7575E-01  4.0992E-04 -1.9505E-02 -4.3911E-03
      23-      1
      1            6.6010E-02  6.9984E-02 -1.2828E-01  9.1928E-04 -3.4291E-02 -2.7364E-02
      53-      1
      1            1.0392E-01  1.0197E-01 -1.9695E-01  6.1232E-03  1.7645E-03 -8.4122E-03
      54-      1
      1            8.6301E-02  8.2759E-02 -1.6543E-01  3.5671E-03  3.5856E-03 -1.6825E-02
      55-      1
      1            7.3227E-02  6.4534E-02 -1.1955E-01 -5.9773E-03  1.7617E-03 -3.8940E-02
      93-      1
      1            9.4513E-02  8.5243E-02 -1.8287E-01 -2.0352E-03 -3.7852E-03  3.9450E-04
      94-      1
      1            8.7427E-02  9.3494E-02 -1.7786E-01 -1.3500E-04 -1.9767E-02  1.0793E-03
      95-      1
      1            6.1498E-02  7.1169E-02 -1.2827E-01  8.3804E-04 -3.9863E-02 -4.3444E-03



 e l e m e n t   s t r e s s   c a l c u l a t i o n s   f o r   t i m e  s t e p      834   ( at time 2.54061E+01 )

 element  materl
     ipt  stress       sig-xx      sig-yy      sig-zz      sig-xy      sig-yz      sig-zx                       yield
           state                                                                                  effsg      function
      13-      1
       1          -6.7667E+06  2.7021E+06 -2.5230E+08 -7.0104E+06 -8.6633E+06 -9.7537E+06    2.5171E+08    1.8841E-01
      14-      1
       1          -2.6395E+07 -2.3173E+07 -1.9221E+08  2.7205E+06 -4.5170E+06 -3.7085E+06    1.6782E+08    1.1386E-01
      15-      1
       1          -2.6033E+06 -6.9014E+06 -8.1619E+07 -5.2428E+06 -1.1506E+07 -1.3432E+07    8.3326E+07    9.3935E-02
      21-      1
       1          -5.0953E+06 -7.0313E+06 -3.2843E+08 -1.0964E+07 -1.3706E+07  6.4383E+05    3.2380E+08    2.0092E-01
      22-      1
       1          -2.1697E+08 -2.1745E+08 -3.8758E+08 -2.5099E+06 -3.7315E+06 -8.7472E+05    1.7056E+08    1.1753E-01
      23-      1
       1          -6.6355E+07 -6.2988E+07 -2.3644E+08 -1.0218E+07 -5.0997E+07 -3.0464E+07    2.0103E+08    1.2568E-01
      53-      1
       1          -6.0577E+07 -6.6345E+07 -1.9223E+08  1.4651E+06  1.6720E+06 -1.0348E+07    1.3016E+08    1.5309E-01
      54-      1
       1          -1.8217E+08 -1.7613E+08 -3.4567E+08 -3.6693E+05  4.3901E+06 -1.4250E+07    1.6859E+08    1.2265E-01
      55-      1
       1          -1.4268E+07 -2.0961E+07 -1.2983E+08 -6.5911E+06  1.0253E+07 -2.5706E+07    1.2269E+08    8.7610E-02
      93-      1
       1           2.0053E+07  3.9997E+06 -3.0741E+08  2.4257E+06 -1.2516E+07  3.3687E+05    3.2050E+08    2.0902E-01
      94-      1
       1          -1.6619E+08 -1.5405E+08 -3.3030E+08 -5.8824E+06  8.3890E+06 -7.1511E+05    1.7143E+08    1.3277E-01
      95-      1
       1          -1.3488E+08 -1.3878E+08 -2.4623E+08  1.8367E+06 -7.1881E+07 -9.2100E+06    1.6657E+08    1.1679E-01



 e l e m e n t   s t r a i n   c a l c u l a t i o n s   f o r   t i m e  s t e p      834   ( at time  2.54061E+01 )

 element  strain       eps-xx      eps-yy      eps-zz      eps-xy      eps-yz      eps-zx                            yield
 num/ipt   state
      13-      1
      1            8.8320E-02  9.3814E-02 -1.8334E-01 -4.3993E-03 -2.8406E-04 -6.1259E-04
      14-      1
      1            9.4972E-02  1.0151E-01 -1.9400E-01  1.4885E-03 -6.7665E-03 -7.9489E-03
      15-      1
      1            8.2537E-02  7.9148E-02 -1.3455E-01  1.3480E-03 -2.8456E-02 -4.9823E-02
      21-      1
      1            9.4585E-02  8.9248E-02 -1.8705E-01 -5.8574E-03 -5.2505E-03  1.5965E-04
      22-      1
      1            9.2121E-02  9.7043E-02 -1.8815E-01  2.1971E-04 -1.9994E-02 -3.9834E-03
      23-      1
      1            7.0949E-02  7.5109E-02 -1.3832E-01  5.9744E-04 -3.6088E-02 -2.8549E-02
      53-      1
      1            1.1003E-01  1.0748E-01 -2.0895E-01  6.4496E-03  1.5805E-03 -8.8009E-03
      54-      1
      1            9.1875E-02  8.8568E-02 -1.7614E-01  3.6496E-03  3.7016E-03 -1.7652E-02
      55-      1
      1            7.8471E-02  6.9449E-02 -1.2954E-01 -6.3486E-03  2.0396E-03 -4.1362E-02
      93-      1
      1            1.0086E-01  9.0749E-02 -1.9472E-01 -1.8973E-03 -4.0895E-03  4.1436E-04
      94-      1
      1            9.4101E-02  1.0100E-01 -1.9121E-01 -1.7929E-04 -2.0579E-02  1.0960E-03
      95-      1
      1            6.6722E-02  7.7728E-02 -1.3933E-01  6.0785E-04 -4.2485E-02 -4.6776E-03



 e l e m e n t   s t r e s s   c a l c u l a t i o n s   f o r   t i m e  s t e p      849   ( at time 2.71134E+01 )

 element  materl
     ipt  stress       sig-xx      sig-yy      sig-zz      sig-xy      sig-yz      sig-zx                       yield
           state                                                                                  effsg      function
      13-      1
       1          -2.7094E+07 -1.2912E+07 -2.2891E+08 -1.2785E+07 -1.1587E+07 -4.8880E+06    2.1156E+08    1.9949E-01
      14-      1
       1          -1.1941E+07 -4.1262E+06 -1.7607E+08  8.3574E+06 -5.7778E+06 -1.1334E+07    1.7023E+08    1.2161E-01
      15-      1
       1           2.7690E+07  2.3609E+07 -5.2465E+07 -9.5114E+06 -8.2946E+06 -1.1085E+07    8.3431E+07    9.7175E-02
      21-      1
       1          -2.2428E+06  2.4577E+06 -3.0938E+08 -1.4182E+07 -1.1743E+07  4.4473E+06    3.1125E+08    2.1736E-01
      22-      1
       1          -1.7900E+08 -1.7876E+08 -3.4978E+08  3.4139E+06 -1.4278E+06 -4.1027E+06    1.7117E+08    1.2694E-01
      23-      1
       1          -3.7838E+07 -2.0115E+07 -1.9653E+08 -1.1865E+07 -4.6560E+07 -3.1401E+07    1.9543E+08    1.3390E-01
      53-      1
       1          -6.1736E+07 -7.3689E+07 -1.9422E+08  2.7176E+06 -1.9028E+05 -1.7827E+07    1.3072E+08    1.5898E-01
      54-      1
       1          -1.9708E+08 -1.8440E+08 -3.5318E+08  4.8342E+05  3.8681E+06 -2.0108E+07    1.6663E+08    1.2914E-01
      55-      1
       1           2.1630E+07  2.0922E+07 -9.4887E+07 -2.2833E+06  6.2845E+06 -2.1253E+07    1.2241E+08    9.3008E-02
      93-      1
       1           5.4240E+07  2.4942E+07 -2.5247E+08 -3.0729E+06 -3.2844E+06  7.9469E+06    2.9358E+08    2.2416E-01
      94-      1
       1          -7.8975E+07 -5.8256E+07 -2.3528E+08 -9.1315E+06  1.5943E+07  1.1598E+06    1.7063E+08    1.4478E-01
      95-      1
       1          -3.8407E+07 -3.7105E+07 -1.3462E+08  4.9371E+06 -7.6038E+07 -1.4154E+07    1.6554E+08    1.2702E-01



 e l e m e n t   s t r a i n   c a l c u l a t i o n s   f o r   t i m e  s t e p      849   ( at time  2.71134E+01 )

 element  strain       eps-xx      eps-yy      eps-zz      eps-xy      eps-yz      eps-zx                            yield
 num/ipt   state
      13-      1
      1            9.6999E-02  1.0335E-01 -1.9993E-01 -5.7508E-03 -6.0455E-04 -9.2794E-04
      14-      1
      1            1.0294E-01  1.1041E-01 -2.0990E-01  1.9807E-03 -7.5623E-03 -7.5592E-03
      15-      1
      1            9.0301E-02  8.5405E-02 -1.4549E-01  1.6976E-03 -3.0348E-02 -5.2372E-02
      21-      1
      1            1.0159E-01  9.6615E-02 -2.0142E-01 -6.8948E-03 -4.4375E-03  1.8707E-04
      22-      1
      1            1.0059E-01  1.0760E-01 -2.0700E-01  7.9579E-04 -1.8961E-02 -3.0562E-03
      23-      1
      1            7.7526E-02  8.2734E-02 -1.4947E-01  5.8215E-04 -3.7333E-02 -3.0556E-02
      53-      1
      1            1.1948E-01  1.1472E-01 -2.2503E-01  7.7131E-03  6.3552E-04 -9.5380E-03
      54-      1
      1            9.7900E-02  9.5161E-02 -1.8945E-01  3.9391E-03  2.7973E-03 -1.8108E-02
      55-      1
      1            8.4169E-02  7.7152E-02 -1.4365E-01 -6.5630E-03  2.3156E-03 -4.2730E-02
      93-      1
      1            1.0815E-01  9.5865E-02 -2.0671E-01 -2.2134E-03 -3.1891E-03  7.4926E-04
      94-      1
      1            1.0355E-01  1.1220E-01 -2.1139E-01 -9.4921E-04 -2.0708E-02  1.8739E-03
      95-      1
      1            7.4403E-02  8.9655E-02 -1.5243E-01  6.2478E-04 -4.8019E-02 -5.0150E-03



 e l e m e n t   s t r e s s   c a l c u l a t i o n s   f o r   t i m e  s t e p      857   ( at time 2.88207E+01 )

 element  materl
     ipt  stress       sig-xx      sig-yy      sig-zz      sig-xy      sig-yz      sig-zx                       yield
           state                                                                                  effsg      function
      13-      1
       1           2.7694E+07  3.0837E+07 -1.8562E+08 -4.2704E+06 -8.3157E+06 -5.3270E+06    2.1571E+08    2.0737E-01
      14-      1
       1           1.1902E+07  1.2913E+07 -1.5907E+08  5.1797E+06 -1.3372E+07 -1.0993E+07    1.7431E+08    1.2760E-01
      15-      1
       1           5.0613E+05 -1.4559E+06 -8.1862E+07 -8.2958E+06 -5.9880E+06 -9.8744E+06    8.5049E+07    9.9605E-02
      21-      1
       1           1.7335E+07  2.9281E+07 -3.1093E+08 -5.1228E+06 -6.2821E+06 -3.1016E+05    3.3469E+08    2.2923E-01
      22-      1
       1          -1.2324E+08 -1.2365E+08 -2.9650E+08  1.1143E+06 -5.9164E+06 -3.4084E+06    1.7347E+08    1.3348E-01
      23-      1
       1          -1.6445E+07 -9.8225E+06 -2.0090E+08 -1.1549E+07 -3.8246E+07 -2.6669E+07    2.0545E+08    1.4069E-01
      53-      1
       1          -3.7989E+07 -4.9772E+07 -1.7411E+08  1.6720E+06  4.2071E+06 -7.4862E+06    1.3151E+08    1.6331E-01
      54-      1
       1          -1.5986E+08 -1.5653E+08 -3.2655E+08  2.1414E+06 -1.2127E+06 -1.6279E+07    1.7078E+08    1.3462E-01
      55-      1
       1           8.3772E+06  9.8769E+06 -1.1084E+08 -2.7803E+06  3.4157E+06 -2.0384E+07    1.2530E+08    9.6914E-02
      93-      1
       1           8.9012E+07  8.0129E+07 -2.4839E+08  3.8865E+04 -3.2099E+06  3.4494E+06    3.3315E+08    2.3582E-01
      94-      1
       1          -5.8083E+07 -4.0289E+07 -2.2215E+08 -3.9471E+06  6.9912E+06  3.6739E+06    1.7433E+08    1.5153E-01
      95-      1
       1          -4.5096E+07 -4.3804E+07 -1.7722E+08  5.2140E+06 -5.8335E+07 -1.1731E+07    1.6832E+08    1.3251E-01



 e l e m e n t   s t r a i n   c a l c u l a t i o n s   f o r   t i m e  s t e p      857   ( at time  2.88207E+01 )

 element  strain       eps-xx      eps-yy      eps-zz      eps-xy      eps-yz      eps-zx                            yield
 num/ipt   state
      13-      1
      1            1.0333E-01  1.0957E-01 -2.1194E-01 -6.0134E-03 -1.1676E-03 -1.1556E-03
      14-      1
      1            1.0916E-01  1.1650E-01 -2.2216E-01  2.1773E-03 -8.7010E-03 -7.9894E-03
      15-      1
      1            9.5413E-02  9.0170E-02 -1.5543E-01  1.5868E-03 -3.1911E-02 -5.3908E-02
      21-      1
      1            1.0702E-01  1.0282E-01 -2.1293E-01 -6.9849E-03 -4.2647E-03 -1.8232E-04
      22-      1
      1            1.0716E-01  1.1468E-01 -2.1968E-01  8.2847E-04 -1.9216E-02 -3.6989E-03
      23-      1
      1            8.3336E-02  8.8699E-02 -1.6001E-01  2.5454E-04 -3.9122E-02 -3.2118E-02
      53-      1
      1            1.2596E-01  1.2004E-01 -2.3652E-01  8.0890E-03  5.2450E-04 -9.9592E-03
      54-      1
      1            1.0399E-01  1.0084E-01 -2.0047E-01  4.3561E-03  2.4616E-03 -1.8764E-02
      55-      1
      1            8.9181E-02  8.2338E-02 -1.5457E-01 -6.8945E-03  2.1605E-03 -4.4409E-02
      93-      1
      1            1.1402E-01  1.0167E-01 -2.1804E-01 -2.1423E-03 -3.4416E-03  9.0076E-04
      94-      1
      1            1.0941E-01  1.1944E-01 -2.2408E-01 -9.0281E-04 -2.1973E-02  2.1051E-03
      95-      1
      1            7.9578E-02  9.6127E-02 -1.6312E-01  1.0767E-03 -5.0857E-02 -5.3310E-03



 e l e m e n t   s t r e s s   c a l c u l a t i o n s   f o r   t i m e  s t e p      866   ( at time 3.05280E+01 )

 element  materl
     ipt  stress       sig-xx      sig-yy      sig-zz      sig-xy      sig-yz      sig-zx                       yield
           state                                                                                  effsg      function
      13-      1
       1           3.2684E+07  3.8288E+07 -1.8142E+08 -3.6734E+06 -9.9136E+06 -3.3705E+06    2.1781E+08    2.1622E-01
      14-      1
       1           2.1644E+07  2.0979E+07 -1.5048E+08  8.1621E+06 -1.3028E+07 -1.4179E+07    1.7557E+08    1.3406E-01
      15-      1
       1           1.2784E+07  1.1160E+07 -6.9808E+07 -6.5920E+06 -8.5676E+06 -1.0140E+07    8.5726E+07    1.0222E-01
      21-      1
       1           6.5166E+07  7.1627E+07 -2.7108E+08 -6.2912E+06  7.8045E+05  1.2837E+06    3.3970E+08    2.4294E-01
      22-      1
       1          -6.3220E+07 -6.0888E+07 -2.3629E+08  1.7103E+05 -7.0020E+06 -6.1083E+06    1.7499E+08    1.4137E-01
      23-      1
       1          -6.7531E+07 -6.8632E+07 -2.1717E+08 -1.1858E+07 -3.2401E+07 -2.3316E+07    1.6562E+08    1.4571E-01
      53-      1
       1          -2.6172E+07 -3.9192E+07 -1.6373E+08  2.9886E+06  6.2277E+06 -3.5301E+06    1.3221E+08    1.6799E-01
      54-      1
       1          -1.1480E+08 -1.2074E+08 -2.8838E+08  4.0100E+06 -2.4092E+06 -1.5495E+07    1.7297E+08    1.4159E-01
      55-      1
       1           7.2664E+06  1.0265E+07 -1.1216E+08 -2.2052E+06  1.8800E+06 -2.1476E+07    1.2665E+08    1.0100E-01
      93-      1
       1           9.1013E+07  8.4527E+07 -2.5142E+08 -9.5204E+05  1.3522E+06  2.4513E+06    3.3928E+08    2.4864E-01
      94-      1
       1          -2.0902E+07  2.8201E+06 -1.8479E+08 -5.5514E+05  1.9821E+06  2.7635E+06    1.7705E+08    1.5995E-01
      95-      1
       1          -2.7349E+07 -2.7977E+07 -1.6827E+08  1.2176E+06 -5.2778E+07 -1.3471E+07    1.6934E+08    1.3811E-01



 e l e m e n t   s t r a i n   c a l c u l a t i o n s   f o r   t i m e  s t e p      866   ( at time  3.05280E+01 )

 element  strain       eps-xx      eps-yy      eps-zz      eps-xy      eps-yz      eps-zx                            yield
 num/ipt   state
      13-      1
      1            1.1004E-01  1.1659E-01 -2.2587E-01 -6.3850E-03 -1.7591E-03 -1.0482E-03
      14-      1
      1            1.1573E-01  1.2308E-01 -2.3553E-01  2.9634E-03 -9.5931E-03 -8.1251E-03
      15-      1
      1            1.0150E-01  9.5789E-02 -1.6536E-01  1.9045E-03 -3.3190E-02 -5.5279E-02
      21-      1
      1            1.1355E-01  1.0976E-01 -2.2592E-01 -7.3570E-03 -3.5506E-03 -4.6699E-04
      22-      1
      1            1.1518E-01  1.2409E-01 -2.3523E-01  1.0038E-03 -1.8753E-02 -3.7980E-03
      23-      1
      1            8.9383E-02  9.5100E-02 -1.7017E-01 -7.7140E-05 -4.0449E-02 -3.2810E-02
      53-      1
      1            1.3311E-01  1.2567E-01 -2.4889E-01  8.7201E-03  3.3200E-04 -1.0117E-02
      54-      1
      1            1.1148E-01  1.0725E-01 -2.1447E-01  5.0535E-03  2.2840E-03 -1.9478E-02
      55-      1
      1            9.5123E-02  8.8249E-02 -1.6566E-01 -7.0081E-03  2.0506E-03 -4.6077E-02
      93-      1
      1            1.2026E-01  1.0761E-01 -2.3030E-01 -2.1787E-03 -3.2172E-03  1.1910E-03
      94-      1
      1            1.1607E-01  1.2912E-01 -2.4003E-01 -6.1054E-04 -2.2322E-02  2.5823E-03
      95-      1
      1            8.5337E-02  1.0387E-01 -1.7383E-01  1.3350E-03 -5.3263E-02 -5.7617E-03



 e l e m e n t   s t r e s s   c a l c u l a t i o n s   f o r   t i m e  s t e p      878   ( at time 3.22352E+01 )

 element  materl
     ipt  stress       sig-xx      sig-yy      sig-zz      sig-xy      sig-yz      sig-zx                       yield
           state                                                                                  effsg      function
      13-      1
       1          -1.6349E+07  8.8137E+06 -2.1692E+08 -1.6726E+07 -1.6693E+07  9.0591E+05    2.1814E+08    2.2787E-01
      14-      1
       1           5.9612E+07  6.3729E+07 -1.0389E+08  1.8959E+07 -1.8456E+07 -2.2742E+07    1.7628E+08    1.4372E-01
      15-      1
       1           5.4769E+07  5.4547E+07 -2.1260E+07 -8.7060E+06 -9.1762E+06 -1.9172E+07    8.5710E+07    1.0530E-01
      21-      1
       1           6.6980E+07  6.8391E+07 -2.4821E+08 -2.6881E+07 -1.6630E+06  7.1572E+06    3.1956E+08    2.5969E-01
      22-      1
       1           6.6340E+07  7.3263E+07 -1.0620E+08  8.1573E+06 -7.1761E+06 -1.0008E+07    1.7796E+08    1.5311E-01
      23-      1
       1          -3.0579E+07 -2.7623E+07 -1.5624E+08 -1.4571E+07 -4.9766E+07 -2.8961E+07    1.6357E+08    1.5258E-01
      53-      1
       1          -4.2914E+07 -5.0826E+07 -1.7553E+08  4.6987E+06  9.8788E+06 -1.0228E+07    1.3143E+08    1.7471E-01
      54-      1
       1          -1.1579E+08 -1.1222E+08 -2.3702E+08  7.3584E+06  1.7239E+06 -2.5185E+07    1.3121E+08    1.4895E-01
      55-      1
       1           2.0338E+06  6.1243E+06 -1.1196E+08 -1.9261E+06  2.4640E+06 -3.1080E+07    1.2808E+08    1.0661E-01
      93-      1
       1           9.9065E+07  6.2791E+07 -2.1949E+08 -8.7763E+06 -3.2367E+06  1.0642E+07    3.0305E+08    2.6560E-01
      94-      1
       1           1.4017E+08  1.7009E+08 -2.3383E+07  1.6957E+06 -3.3506E+06  5.2844E+04    1.8050E+08    1.7438E-01
      95-      1
       1          -1.4530E+07 -1.6724E+07 -1.1003E+08  3.7014E+06 -8.1894E+07 -1.5614E+07    1.7265E+08    1.4649E-01



 e l e m e n t   s t r a i n   c a l c u l a t i o n s   f o r   t i m e  s t e p      878   ( at time  3.22352E+01 )

 element  strain       eps-xx      eps-yy      eps-zz      eps-xy      eps-yz      eps-zx                            yield
 num/ipt   state
      13-      1
      1            1.1740E-01  1.2719E-01 -2.4404E-01 -8.6916E-03 -1.3289E-03 -5.3441E-04
      14-      1
      1            1.2485E-01  1.3425E-01 -2.5556E-01  5.1288E-03 -8.7773E-03 -7.0457E-03
      15-      1
      1            1.1024E-01  1.0288E-01 -1.7660E-01  3.4548E-03 -3.3952E-02 -5.7086E-02
      21-      1
      1            1.2055E-01  1.1714E-01 -2.4034E-01 -9.5678E-03 -1.7998E-03 -2.8175E-04
      22-      1
      1            1.2572E-01  1.3814E-01 -2.5888E-01  2.5552E-03 -1.6190E-02 -2.0968E-03
      23-      1
      1            9.7975E-02  1.0486E-01 -1.8226E-01  2.5651E-04 -4.2067E-02 -3.4043E-02
      53-      1
      1            1.4293E-01  1.3495E-01 -2.6620E-01  1.0049E-02  4.5542E-04 -9.4051E-03
      54-      1
      1            1.2043E-01  1.1732E-01 -2.3534E-01  6.4891E-03  2.6505E-03 -1.9094E-02
      55-      1
      1            1.0306E-01  9.6977E-02 -1.8048E-01 -6.8618E-03  2.4915E-03 -4.8322E-02
      93-      1
      1            1.2866E-01  1.1298E-01 -2.4372E-01 -2.8955E-03 -1.8349E-03  2.1664E-03
      94-      1
      1            1.2718E-01  1.4615E-01 -2.6688E-01 -1.1337E-05 -2.2164E-02  4.4474E-03
      95-      1
      1            9.2851E-02  1.1578E-01 -1.8480E-01  2.5601E-03 -5.8143E-02 -6.5289E-03



 e l e m e n t   s t r e s s   c a l c u l a t i o n s   f o r   t i m e  s t e p      886   ( at time 3.39425E+01 )

 element  materl
     ipt  stress       sig-xx      sig-yy      sig-zz      sig-xy      sig-yz      sig-zx                       yield
           state                                                                                  effsg      function
      13-      1
       1           3.6556E+07  3.7274E+07 -1.8539E+08 -1.4732E+06 -9.0378E+06 -6.3687E+06    2.2315E+08    2.3557E-01
      14-      1
       1           6.8629E+07  7.0478E+07 -1.0264E+08  9.8862E+06 -1.9468E+07 -1.8790E+07    1.7928E+08    1.4901E-01
      15-      1
       1          -1.7982E+07 -1.6637E+07 -5.8952E+07 -3.2320E+06 -3.0458E+06 -5.9279E+06    4.3589E+07    1.0655E-01
      21-      1
       1           8.9848E+07  9.5807E+07 -2.1230E+08 -5.2173E+06 -6.7337E+06  3.6055E+05    3.0553E+08    2.7019E-01
      22-      1
       1           8.2722E+07  7.7640E+07 -9.6368E+07  3.6722E+06 -1.3820E+07 -8.3503E+06    1.7892E+08    1.5931E-01
      23-      1
       1          -2.9766E+07 -2.7737E+07 -1.8682E+08 -1.0760E+07 -2.8566E+07 -2.0040E+07    1.7026E+08    1.5766E-01
      53-      1
       1          -2.3134E+07 -3.3660E+07 -1.6071E+08  3.0313E+06  7.9540E+06 -8.7188E+06    1.3429E+08    1.7873E-01
      54-      1
       1          -1.0366E+08 -1.0186E+08 -2.2962E+08  3.6981E+06  6.5752E+05 -2.2358E+07    1.3281E+08    1.5316E-01
      55-      1
       1           7.0903E+06  1.5796E+07 -1.4926E+08 -5.5056E+06  3.0672E+06 -2.4802E+07    1.6687E+08    1.1055E-01
      93-      1
       1           4.2088E+07  3.5952E+07 -2.2186E+08 -5.3611E+05 -1.3651E+07  4.2214E+06    2.6211E+08    2.7443E-01
      94-      1
       1           9.2287E+07  9.9849E+07 -3.9732E+07 -1.4501E+06 -8.6131E+06  1.5219E+06    1.3682E+08    1.7953E-01
      95-      1
       1          -3.2007E+07 -3.7708E+07 -1.7900E+08  1.3089E+06 -5.3840E+07 -1.2280E+07    1.7308E+08    1.5145E-01



 e l e m e n t   s t r a i n   c a l c u l a t i o n s   f o r   t i m e  s t e p      886   ( at time  3.39425E+01 )

 element  strain       eps-xx      eps-yy      eps-zz      eps-xy      eps-yz      eps-zx                            yield
 num/ipt   state
      13-      1
      1            1.2384E-01  1.3331E-01 -2.5614E-01 -8.2192E-03 -2.1650E-03 -8.4696E-04
      14-      1
      1            1.3007E-01  1.3981E-01 -2.6654E-01  5.6543E-03 -1.0604E-02 -8.1100E-03
      15-      1
      1            1.1536E-01  1.0707E-01 -1.8651E-01  3.3022E-03 -3.6133E-02 -5.8644E-02
      21-      1
      1            1.2653E-01  1.2379E-01 -2.5228E-01 -9.2994E-03 -1.7413E-03 -8.3108E-04
      22-      1
      1            1.3208E-01  1.4413E-01 -2.7134E-01  2.7262E-03 -1.7456E-02 -2.8412E-03
      23-      1
      1            1.0374E-01  1.1061E-01 -1.9255E-01  1.6734E-04 -4.4405E-02 -3.5035E-02
      53-      1
      1            1.4880E-01  1.3958E-01 -2.7679E-01  1.0296E-02  4.3653E-04 -9.7729E-03
      54-      1
      1            1.2615E-01  1.2271E-01 -2.4708E-01  6.6800E-03  2.3946E-03 -2.0921E-02
      55-      1
      1            1.0719E-01  1.0174E-01 -1.8924E-01 -7.2333E-03  1.8031E-03 -5.0460E-02
      93-      1
      1            1.3481E-01  1.1968E-01 -2.5574E-01 -2.7334E-03 -1.9919E-03  2.6008E-03
      94-      1
      1            1.3370E-01  1.5283E-01 -2.8117E-01 -3.6242E-05 -2.4728E-02  4.9634E-03
      95-      1
      1            9.8481E-02  1.2148E-01 -1.9468E-01  2.7943E-03 -6.1827E-02 -6.6971E-03



 e l e m e n t   s t r e s s   c a l c u l a t i o n s   f o r   t i m e  s t e p      899   ( at time 3.56498E+01 )

 element  materl
     ipt  stress       sig-xx      sig-yy      sig-zz      sig-xy      sig-yz      sig-zx                       yield
           state                                                                                  effsg      function
      13-      1
       1          -3.1202E+07 -1.2579E+07 -2.4206E+08 -1.1749E+07 -1.3223E+07  1.9676E+06    2.2290E+08    2.4629E-01
      14-      1
       1           6.0411E+07  6.2740E+07 -6.4906E+07  1.1389E+07 -1.5322E+07 -1.9383E+07    1.3499E+08    1.5583E-01
      15-      1
       1           1.4963E+07  2.1316E+07 -2.0321E+07 -1.6087E+06 -2.9722E+06 -1.1419E+07    4.3988E+07    1.0839E-01
      21-      1
       1           5.5352E+07  4.2107E+07 -2.3982E+08 -1.7579E+07 -1.7911E+06  1.4087E+07    2.9142E+08    2.8352E-01
      22-      1
       1           1.5852E+08  1.6998E+08  3.1075E+07  1.0470E+07 -6.5364E+05 -2.7337E+06    1.3485E+08    1.6861E-01
      23-      1
       1           7.6041E+07  8.3647E+07 -6.1350E+07 -9.1936E+06 -4.3096E+07 -3.3071E+07    1.7054E+08    1.6578E-01
      53-      1
       1          -3.3530E+07 -4.1186E+07 -1.6858E+08  3.7222E+06  9.8400E+06 -1.3962E+07    1.3483E+08    1.8486E-01
      54-      1
       1          -7.3068E+07 -7.1965E+07 -1.9620E+08  8.2214E+06  3.8357E+06 -2.7216E+07    1.3329E+08    1.6001E-01
      55-      1
       1          -4.3537E+07 -3.4336E+07 -1.5309E+08 -3.1275E+06  1.7653E+06 -3.2482E+07    1.2767E+08    1.1517E-01
      93-      1
       1          -1.6092E+07 -5.3729E+07 -2.8401E+08 -4.5692E+06 -1.3642E+07  9.0989E+06    2.5294E+08    2.8727E-01
      94-      1
       1           5.8986E+07  6.1562E+07 -3.0689E+07 -1.7253E+06 -7.6386E+05 -1.8154E+06    9.1104E+07    1.8589E-01
      95-      1
[...]
      54-      1
       1          -1.3641E+08 -1.3531E+08 -4.1090E+08 -3.7552E+06  4.5456E+06 -2.2717E+07    2.7803E+08    3.6197E-01
      55-      1
       1          -1.1605E+08 -1.0997E+08 -2.9329E+08 -8.8996E+06 -9.4431E+06 -2.0590E+07    1.8522E+08    2.3603E-01
      93-      1
       1          -1.5755E+07 -1.1829E+07 -3.2302E+08  1.4640E+06  1.3913E+06 -5.1793E+05    3.0927E+08    5.6360E-01
      94-      1
       1          -3.8854E+07 -4.1634E+07 -8.5886E+07  4.6416E+05 -1.4161E+06 -1.9585E+06    4.5904E+07    2.4624E-01
      95-      1
       1          -2.3598E+08 -2.4264E+08 -4.7496E+08 -9.2347E+06 -1.9917E+07 -7.4172E+06    2.3911E+08    3.2093E-01



 e l e m e n t   s t r a i n   c a l c u l a t i o n s   f o r   t i m e  s t e p     1027   ( at time  7.97824E+01 )

 element  strain       eps-xx      eps-yy      eps-zz      eps-xy      eps-yz      eps-zx                            yield
 num/ipt   state
      13-      1
      1            2.9205E-01  3.1427E-01 -6.1583E-01 -1.9410E-02 -2.3268E-03  3.1534E-03
      14-      1
      1            2.8062E-01  3.1547E-01 -6.0299E-01  5.2259E-03 -4.3874E-03  1.0279E-02
      15-      1
      1            2.9764E-01  2.6288E-01 -5.3305E-01  5.9202E-03 -3.2866E-02 -3.5364E-02
      21-      1
      1            3.1438E-01  2.9298E-01 -6.1833E-01 -2.1608E-02  1.2102E-02  4.7141E-03
      22-      1
      1            3.2708E-01  3.2959E-01 -6.4500E-01 -7.1194E-03  1.0351E-02  2.4055E-02
      23-      1
      1            2.8114E-01  3.0557E-01 -5.3376E-01  7.3317E-03 -3.2045E-02  2.1293E-03
      53-      1
      1            3.2789E-01  3.2529E-01 -6.5375E-01  4.6031E-03  1.5234E-02 -7.2807E-03
      54-      1
      1            2.9325E-01  3.0408E-01 -6.0664E-01  1.0591E-02  4.0524E-02 -1.7037E-02
      55-      1
      1            2.4605E-01  2.5344E-01 -4.9605E-01 -1.8417E-03  2.9286E-02 -6.5098E-02
      93-      1
      1            3.4438E-01  2.8411E-01 -6.3892E-01  2.3442E-04 -3.0705E-03  8.6856E-03
      94-      1
      1            3.3999E-01  3.4483E-01 -6.7919E-01 -4.3786E-03 -3.4159E-02  1.9634E-02
      95-      1
      1            2.7694E-01  3.1373E-01 -5.6055E-01  1.3619E-02 -6.4802E-02  1.4625E-02



 e l e m e n t   s t r e s s   c a l c u l a t i o n s   f o r   t i m e  s t e p     1041   ( at time 8.40709E+01 )

 element  materl
     ipt  stress       sig-xx      sig-yy      sig-zz      sig-xy      sig-yz      sig-zx                       yield
           state                                                                                  effsg      function
      13-      1
       1          -4.8561E+07 -5.1271E+07 -2.5553E+08 -1.5029E+07 -2.0127E+06 -4.0340E+05    2.0730E+08    4.8002E-01
      14-      1
       1          -2.9958E+07 -2.5623E+07 -1.7323E+08 -4.1366E+06 -9.1083E+06 -5.6101E+06    1.4683E+08    2.7709E-01
      15-      1
       1          -2.6430E+07 -3.4509E+07 -1.2167E+08 -3.7925E+06  1.3199E+06 -5.6531E+06    9.2256E+07    1.5466E-01
      21-      1
       1          -1.0470E+08 -1.1859E+08 -4.1611E+08 -3.3015E+06  1.0266E+07  3.0227E+06    3.0532E+08    5.5418E-01
      22-      1
       1          -3.9260E+07 -4.5799E+07 -1.3684E+08  5.8578E+05 -3.5900E+06 -7.1001E+06    9.5485E+07    1.9319E-01
      23-      1
       1          -1.4878E+08 -1.5154E+08 -2.9614E+08 -6.6431E+06  1.4818E+07 -8.2158E+06    1.4936E+08    2.9054E-01
      53-      1
       1          -5.0308E+07 -4.6325E+07 -1.5316E+08 -3.2065E+06  7.9886E+05 -6.0320E+06    1.0558E+08    3.0305E-01
      54-      1
       1          -1.9060E+08 -1.8266E+08 -3.8317E+08 -4.1543E+06  9.5770E+06 -1.4368E+07    1.9906E+08    3.8056E-01
      55-      1
       1          -8.5194E+07 -8.0142E+07 -2.6714E+08 -6.6060E+06 -4.2121E+06 -1.8388E+07    1.8774E+08    2.5342E-01
      93-      1
       1          -1.8423E+08 -2.1170E+08 -4.5883E+08 -4.0485E+06  4.5049E+06 -9.9631E+05    2.6217E+08    5.9107E-01
      94-      1
       1          -2.4565E+07 -2.8490E+07 -7.3131E+07  5.9357E+05  1.8899E+06  3.4459E+05    4.6858E+07    2.5170E-01
      95-      1
       1          -1.9834E+08 -2.1480E+08 -4.4507E+08 -1.3348E+07 -2.5220E+07 -5.1193E+06    2.4415E+08    3.4461E-01



 e l e m e n t   s t r a i n   c a l c u l a t i o n s   f o r   t i m e  s t e p     1041   ( at time  8.40709E+01 )

 element  strain       eps-xx      eps-yy      eps-zz      eps-xy      eps-yz      eps-zx                            yield
 num/ipt   state
      13-      1
      1            3.1016E-01  3.3145E-01 -6.5350E-01 -2.2652E-02 -5.2738E-03  3.3376E-03
      14-      1
      1            2.9641E-01  3.3168E-01 -6.3611E-01  3.0552E-03 -8.6942E-03  1.5346E-02
      15-      1
      1            3.1580E-01  2.7795E-01 -5.7142E-01  4.9565E-03 -3.0757E-02 -2.3589E-02
      21-      1
      1            3.3557E-01  3.1182E-01 -6.5963E-01 -2.2470E-02  1.1332E-02  3.9437E-03
      22-      1
      1            3.4897E-01  3.4830E-01 -6.8187E-01 -7.7484E-03  1.3631E-02  2.6326E-02
      23-      1
      1            2.9921E-01  3.2362E-01 -5.7108E-01  6.7994E-03 -1.9612E-02  1.1961E-02
      53-      1
      1            3.4307E-01  3.4369E-01 -6.8848E-01  2.2651E-03  1.5492E-02 -6.5156E-03
      54-      1
      1            3.1028E-01  3.2311E-01 -6.4295E-01  9.0255E-03  4.4238E-02 -1.2740E-02
      55-      1
      1            2.6346E-01  2.7108E-01 -5.3052E-01 -2.0174E-03  3.3889E-02 -5.6929E-02
      93-      1
      1            3.6837E-01  3.0041E-01 -6.8172E-01 -7.9960E-04 -1.8723E-03  9.5939E-03
      94-      1
      1            3.6392E-01  3.6626E-01 -7.2095E-01 -3.1297E-03 -3.0408E-02  2.2584E-02
      95-      1
      1            2.9783E-01  3.3503E-01 -6.0298E-01  1.2859E-02 -5.4419E-02  2.1938E-02



 e l e m e n t   s t r e s s   c a l c u l a t i o n s   f o r   t i m e  s t e p     1049   ( at time 8.83594E+01 )

 element  materl
     ipt  stress       sig-xx      sig-yy      sig-zz      sig-xy      sig-yz      sig-zx                       yield
           state                                                                                  effsg      function
      13-      1
       1           1.7630E+07  4.6264E+06 -1.8994E+08  2.3271E+06  1.5727E+06  5.8365E+05    2.0145E+08    4.9350E-01
      14-      1
       1          -5.4786E+07 -5.8554E+07 -2.0160E+08 -1.5411E+06 -6.6377E+06 -3.3624E+06    1.4557E+08    2.8566E-01
      15-      1
       1          -4.3678E+07 -4.7555E+07 -9.6555E+07 -1.4560E+06  1.3594E+06 -2.2064E+06    5.1309E+07    1.5761E-01
      21-      1
       1          -4.3974E+07 -4.4361E+07 -3.0652E+08  7.5128E+06  8.9614E+06  3.2776E+06    2.6320E+08    5.7363E-01
      22-      1
       1          -1.2757E+08 -1.3043E+08 -1.7783E+08 -4.5197E+05 -3.4315E+05 -2.5602E+06    4.9104E+07    1.9661E-01
      23-      1
       1          -2.1579E+08 -2.2004E+08 -4.1377E+08 -3.0334E+06  9.7459E+06 -4.7683E+06    1.9685E+08    3.0220E-01
      53-      1
       1          -4.2190E+07 -4.6306E+07 -1.5005E+08 -6.6667E+05 -1.5334E+06 -6.2345E+06    1.0645E+08    3.0975E-01
      54-      1
       1          -1.4823E+08 -1.5528E+08 -3.9447E+08 -2.6692E+06  6.3798E+05 -1.4517E+07    2.4413E+08    3.9673E-01
      55-      1
       1          -1.5854E+08 -1.5867E+08 -3.4726E+08 -5.5409E+06 -7.5376E+06 -1.5206E+07    1.9117E+08    2.6593E-01
      93-      1
       1          -6.4872E+07 -5.7012E+07 -3.2549E+08  2.7339E+06  8.3485E+05 -1.7862E+06    2.6470E+08    6.0961E-01
      94-      1
       1          -4.7728E+07 -4.9090E+07 -9.5738E+07  9.7032E+05 -1.9441E+06 -6.5831E+05    4.7507E+07    2.5563E-01
      95-      1
       1          -2.0471E+08 -2.0306E+08 -4.5050E+08 -6.2503E+06 -1.8250E+07 -2.2551E+06    2.4890E+08    3.6275E-01



 e l e m e n t   s t r a i n   c a l c u l a t i o n s   f o r   t i m e  s t e p     1049   ( at time  8.83594E+01 )

 element  strain       eps-xx      eps-yy      eps-zz      eps-xy      eps-yz      eps-zx                            yield
 num/ipt   state
      13-      1
      1            3.2601E-01  3.4464E-01 -6.8095E-01 -2.1497E-02 -4.4442E-03  5.5329E-03
      14-      1
      1            3.0986E-01  3.4337E-01 -6.6241E-01  2.8990E-03 -7.2261E-03  1.9630E-02
      15-      1
      1            3.2855E-01  2.8885E-01 -6.0151E-01  3.9990E-03 -3.0624E-02 -2.2022E-02
      21-      1
      1            3.5131E-01  3.2734E-01 -6.9032E-01 -2.1055E-02  1.1072E-02  4.6613E-03
      22-      1
      1            3.6294E-01  3.6090E-01 -7.1106E-01 -7.7164E-03  1.2055E-02  2.7445E-02
      23-      1
      1            3.1170E-01  3.3497E-01 -5.9962E-01  6.8081E-03 -2.2890E-02  1.3377E-02
      53-      1
      1            3.5771E-01  3.5610E-01 -7.1630E-01  2.0969E-03  1.5547E-02 -6.2443E-03
      54-      1
      1            3.2433E-01  3.3540E-01 -6.6936E-01  8.3585E-03  4.3414E-02 -1.1303E-02
      55-      1
      1            2.7584E-01  2.8210E-01 -5.5628E-01 -2.7900E-03  3.3322E-02 -5.4237E-02
      93-      1
      1            3.8303E-01  3.1661E-01 -7.1121E-01 -6.8282E-05 -2.0994E-03  9.0630E-03
      94-      1
      1            3.7844E-01  3.8071E-01 -7.5249E-01 -2.5712E-03 -3.3583E-02  2.1672E-02
      95-      1
      1            3.1177E-01  3.4975E-01 -6.3408E-01  1.2590E-02 -5.6727E-02  2.1990E-02



 e l e m e n t   s t r e s s   c a l c u l a t i o n s   f o r   t i m e  s t e p     1061   ( at time 9.26479E+01 )

 element  materl
     ipt  stress       sig-xx      sig-yy      sig-zz      sig-xy      sig-yz      sig-zx                       yield
           state                                                                                  effsg      function
      13-      1
       1          -3.6467E+07 -4.6749E+07 -1.9996E+08 -5.9229E+06  3.4353E+05  1.4492E+06    1.5895E+08    5.0883E-01
      14-      1
       1          -1.6363E+06 -6.8325E+06 -1.5235E+08 -6.0126E+06 -8.0833E+06 -6.5961E+06    1.4965E+08    2.9802E-01
      15-      1
       1          -7.7702E+07 -7.8492E+07 -1.2814E+08 -3.0232E+06  3.9118E+06 -5.9952E+06    5.1822E+07    1.6172E-01
      21-      1
       1          -1.5562E+08 -1.6433E+08 -4.6832E+08 -2.5661E+06  1.2685E+07 -1.1469E+05    3.0925E+08    6.0254E-01
      22-      1
       1          -5.9579E+07 -6.3736E+07 -1.5793E+08  2.4583E+05 -1.1458E+06 -7.5402E+06    9.7242E+07    2.0596E-01
      23-      1
       1          -2.2133E+08 -2.2470E+08 -4.1854E+08 -8.3776E+06  1.7544E+07 -8.8717E+06    1.9902E+08    3.1920E-01
      53-      1
       1          -6.2152E+07 -5.5350E+07 -2.0594E+08 -1.0058E+06 -1.9628E+06 -7.8716E+06    1.4799E+08    3.2349E-01
      54-      1
       1          -1.3719E+08 -1.2436E+08 -3.7628E+08 -3.3008E+06  9.7069E+05 -1.6770E+07    2.4754E+08    4.2003E-01
      55-      1
       1          -1.6202E+08 -1.4402E+08 -3.8036E+08 -8.9085E+06 -1.2482E+07 -1.8179E+07    2.3156E+08    2.8628E-01
      93-      1
       1          -9.5542E+07 -1.1244E+08 -3.6883E+08  8.4194E+05 -1.9626E+06  9.7354E+05    2.6527E+08    6.4000E-01
      94-      1
       1          -1.1837E+07 -1.4869E+07 -6.1597E+07 -1.4826E+05  4.5008E+05  1.0866E+06    4.8359E+07    2.6107E-01
      95-      1
       1          -1.5747E+08 -1.6790E+08 -4.0807E+08 -1.0177E+07 -2.5816E+07 -2.8290E+06    2.5026E+08    3.8733E-01



 e l e m e n t   s t r a i n   c a l c u l a t i o n s   f o r   t i m e  s t e p     1061   ( at time  9.26479E+01 )

 element  strain       eps-xx      eps-yy      eps-zz      eps-xy      eps-yz      eps-zx                            yield
 num/ipt   state
      13-      1
      1            3.4741E-01  3.6282E-01 -7.2245E-01 -2.3978E-02 -4.5249E-03  4.8427E-03
      14-      1
      1            3.2898E-01  3.6048E-01 -6.9755E-01  8.1020E-04 -5.7339E-03  2.5577E-02
      15-      1
      1            3.4563E-01  3.0460E-01 -6.4073E-01  2.4641E-03 -2.4792E-02 -9.7214E-03
      21-      1
      1            3.7014E-01  3.4544E-01 -7.3038E-01 -2.1862E-02  1.2879E-02  4.7999E-03
      22-      1
      1            3.8313E-01  3.7910E-01 -7.4767E-01 -8.4723E-03  1.8860E-02  2.9184E-02
      23-      1
      1            3.2993E-01  3.5337E-01 -6.4029E-01  5.6918E-03 -8.2918E-03  2.4525E-02
      53-      1
      1            3.7583E-01  3.7626E-01 -7.5398E-01  7.3669E-04  1.5650E-02 -3.2293E-03
      54-      1
      1            3.4141E-01  3.5510E-01 -7.0535E-01  7.1000E-03  4.3858E-02 -2.4278E-03
      55-      1
      1            2.9136E-01  2.9982E-01 -5.8945E-01 -4.2702E-03  3.3852E-02 -4.1034E-02
      93-      1
      1            4.0789E-01  3.3633E-01 -7.5766E-01 -1.3744E-03 -1.2933E-05  1.2975E-02
      94-      1
      1            4.0256E-01  4.0150E-01 -7.9387E-01 -1.7611E-03 -2.9086E-02  3.0103E-02
      95-      1
      1            3.3272E-01  3.7080E-01 -6.7795E-01  1.1803E-02 -4.7518E-02  3.2091E-02



 e l e m e n t   s t r e s s   c a l c u l a t i o n s   f o r   t i m e  s t e p     1069   ( at time 9.69364E+01 )

 element  materl
     ipt  stress       sig-xx      sig-yy      sig-zz      sig-xy      sig-yz      sig-zx                       yield
           state                                                                                  effsg      function
      13-      1
       1           4.9600E+07  4.0510E+07 -1.5983E+08  8.6276E+04 -1.0843E+05 -6.8479E+05    2.0504E+08    5.2322E-01
      14-      1
       1          -7.1528E+07 -7.7091E+07 -2.2200E+08 -4.8925E+06 -4.2652E+06 -3.4544E+06    1.4831E+08    3.0696E-01
      15-      1
       1          -8.3969E+07 -8.8428E+07 -1.3823E+08 -1.1434E+06  2.0568E+05 -1.3320E+06    5.2260E+07    1.6531E-01
      21-      1
       1          -4.8923E+07 -5.5505E+07 -3.1846E+08  6.4701E+06  1.0780E+07  1.9741E+06    2.6722E+08    6.2292E-01
      22-      1
       1          -1.2198E+08 -1.2601E+08 -1.7381E+08 -3.3700E+05 -1.5577E+06 -3.5709E+06    5.0395E+07    2.0986E-01
      23-      1
       1          -2.5156E+08 -2.5931E+08 -4.5592E+08 -3.3704E+06  6.2249E+06 -7.6381E+06    2.0141E+08    3.3293E-01
      53-      1
       1          -2.7080E+07 -3.1313E+07 -2.1933E+08 -2.0185E+06 -6.1532E+05 -6.3149E+06    1.9052E+08    3.3858E-01
      54-      1
       1          -1.3704E+08 -1.3484E+08 -3.8327E+08 -3.5888E+06  4.0620E+06 -1.7840E+07    2.4944E+08    4.3898E-01
      55-      1
       1          -1.9455E+08 -1.8919E+08 -4.2242E+08 -5.9073E+06 -1.1083E+07 -2.4314E+07    2.3541E+08    3.0410E-01
      93-      1
       1           4.3193E+06  9.0054E+06 -2.6183E+08  4.7492E+06 -1.5714E+06 -3.0549E+06    2.6871E+08    6.6080E-01
      94-      1
       1          -3.3815E+07 -3.4289E+07 -8.2958E+07  2.8479E+05 -1.7337E+06 -3.9717E+05    4.9007E+07    2.6542E-01
      95-      1
       1          -2.0738E+08 -2.0917E+08 -4.0725E+08 -2.2733E+06 -2.0013E+07 -1.7360E+06    2.0204E+08    4.0171E-01



 e l e m e n t   s t r a i n   c a l c u l a t i o n s   f o r   t i m e  s t e p     1069   ( at time  9.69364E+01 )

 element  strain       eps-xx      eps-yy      eps-zz      eps-xy      eps-yz      eps-zx                            yield
 num/ipt   state
      13-      1
      1            3.6362E-01  3.7729E-01 -7.5183E-01 -2.3653E-02 -2.2466E-03  8.0607E-03
      14-      1
      1            3.4186E-01  3.7263E-01 -7.2492E-01 -3.0666E-04 -1.4523E-03  3.2260E-02
      15-      1
      1            3.5959E-01  3.1676E-01 -6.7242E-01  1.2505E-03 -2.1216E-02 -3.2875E-03
      21-      1
      1            3.8717E-01  3.6123E-01 -7.6199E-01 -2.0986E-02  1.3366E-02  6.4454E-03
      22-      1
      1            3.9865E-01  3.9245E-01 -7.7879E-01 -9.4773E-03  2.0908E-02  3.2615E-02
      23-      1
      1            3.4445E-01  3.6589E-01 -6.7200E-01  5.1413E-03 -7.9007E-03  2.9547E-02
      53-      1
      1            3.9101E-01  3.9115E-01 -7.8447E-01  6.3175E-04  1.5702E-02 -2.5987E-03
      54-      1
      1            3.5585E-01  3.6956E-01 -7.3510E-01  5.9920E-03  4.4179E-02  5.3095E-04
      55-      1
      1            3.0509E-01  3.1233E-01 -6.1650E-01 -5.5168E-03  3.6621E-02 -3.5112E-02
      93-      1
      1            4.2424E-01  3.5367E-01 -7.8976E-01 -6.9509E-04  1.7898E-03  1.3885E-02
      94-      1
      1            4.1814E-01  4.1694E-01 -8.2692E-01 -1.0699E-03 -2.8457E-02  3.2022E-02
      95-      1
      1            3.4697E-01  3.8546E-01 -7.1009E-01  1.1691E-02 -4.6379E-02  3.3835E-02



 e l e m e n t   s t r e s s   c a l c u l a t i o n s   f o r   t i m e  s t e p     1080   ( at time 1.00000E+02 )

 element  materl
     ipt  stress       sig-xx      sig-yy      sig-zz      sig-xy      sig-yz      sig-zx                       yield
           state                                                                                  effsg      function
      13-      1
       1          -5.9049E+06 -8.3736E+06 -1.1300E+08 -4.7966E+06  1.8250E+06  2.6935E+05    1.0625E+08    5.3097E-01
      14-      1
       1           3.0177E+07  1.8413E+07 -1.2484E+08 -4.7048E+06 -6.4802E+06 -1.2971E+07    1.5180E+08    3.1634E-01
      15-      1
       1          -1.6116E+08 -1.6197E+08 -2.1025E+08 -5.6588E+06  6.2915E+06 -7.8203E+06    5.2617E+07    1.6830E-01
      21-      1
       1           2.2681E+06 -5.4636E+06 -3.0871E+08 -4.2431E+06  1.6141E+07 -2.5157E+06    3.0857E+08    6.4665E-01
      22-      1
       1          -4.7741E+07 -5.1945E+07 -1.4773E+08 -5.8576E+05 -2.3551E+06 -5.8897E+06    9.8576E+07    2.1638E-01
      23-      1
       1          -2.5101E+08 -2.6417E+08 -4.5768E+08 -9.4711E+06  7.3687E+06 -1.1693E+07    2.0251E+08    3.4408E-01
      53-      1
       1          -5.7845E+07 -4.8616E+07 -2.0404E+08 -2.2925E+06 -8.8960E+05 -2.0517E+06    1.5113E+08    3.4955E-01
      54-      1
       1          -3.5161E+07 -2.8171E+07 -2.8072E+08 -1.6760E+06  7.1936E+06 -1.6675E+07    2.5113E+08    4.5775E-01
      55-      1
       1          -3.6883E+07 -2.2289E+07 -2.5877E+08 -8.4868E+06 -1.1989E+07 -2.8650E+07    2.3621E+08    3.2063E-01
      93-      1
       1          -2.5931E+07 -3.8430E+07 -2.4515E+08  2.2178E+06 -6.8234E+06 -9.3677E+05    2.1362E+08    6.7824E-01
      94-      1
       1          -3.9507E+06 -9.0152E+06 -5.5783E+07 -9.7188E+04 -1.0897E+06  7.9088E+05    4.9550E+07    2.6921E-01
      95-      1
       1          -1.5061E+08 -1.6883E+08 -3.5743E+08 -4.5428E+06 -2.1430E+07 -2.6041E+06    2.0199E+08    4.1667E-01



 e l e m e n t   s t r a i n   c a l c u l a t i o n s   f o r   t i m e  s t e p     1080   ( at time  1.00000E+02 )

 element  strain       eps-xx      eps-yy      eps-zz      eps-xy      eps-yz      eps-zx                            yield
 num/ipt   state
      13-      1
      1            3.7952E-01  3.9097E-01 -7.8192E-01 -2.5536E-02 -3.3739E-03  7.9972E-03
      14-      1
      1            3.5780E-01  3.8577E-01 -7.5164E-01 -1.4345E-03 -4.5029E-04  3.8976E-02
      15-      1
      1            3.7171E-01  3.2857E-01 -6.9794E-01 -9.1180E-04 -1.5390E-02  7.1475E-03
      21-      1
      1            4.0297E-01  3.7601E-01 -7.9254E-01 -2.2166E-02  1.4124E-02  8.1477E-03
      22-      1
      1            4.1427E-01  4.0573E-01 -8.0420E-01 -1.0438E-02  2.6612E-02  3.4465E-02
      23-      1
      1            3.5729E-01  3.7742E-01 -6.9913E-01  3.5912E-03  3.9516E-03  3.9645E-02
      53-      1
      1            4.0403E-01  4.0734E-01 -8.1159E-01 -1.8105E-04  1.6236E-02 -1.1853E-03
      54-      1
      1            3.7084E-01  3.8566E-01 -7.6324E-01  5.2756E-03  4.4487E-02  6.9234E-03
      55-      1
      1            3.1795E-01  3.2678E-01 -6.3994E-01 -6.7374E-03  4.0284E-02 -2.2858E-02
      93-      1
      1            4.4255E-01  3.6877E-01 -8.2287E-01 -6.5816E-04  4.0470E-03  1.5652E-02
      94-      1
      1            4.3649E-01  4.3165E-01 -8.5613E-01 -2.0105E-04 -2.2083E-02  3.6065E-02
      95-      1
      1            3.6366E-01  4.0021E-01 -7.4219E-01  1.0939E-02 -3.5409E-02  4.1019E-02
