 LS-DYNA keyword deck by LS-PrePost                                      
                    ls-dyna smp d R14 R14.1.1s_1_ef50e1 date 06/16/2024



 n o d a l  s t r e s s  c a l c u l a t i o n s   f o r   t i m e  s t e p        1   ( at time 0.00000E+00 )

 node (global)
          stress       sig-xx      sig-yy      sig-zz      sig-xy      sig-yz      sig-zx       plastic
                                                                                                 strain 
       1-
 mid.  surface     5.3602E-05  5.3602E-05  5.3602E-05  0.0000E+00  0.0000E+00  0.0000E+00  0.0000E+00
       2-
 mid.  surface     9.5276E-05  9.5276E-05  9.5276E-05  0.0000E+00  0.0000E+00  0.0000E+00  0.0000E+00
       8-
 mid.  surface     3.1932E-05  3.1932E-05  3.1932E-05  0.0000E+00  0.0000E+00  0.0000E+00  0.0000E+00
       9-
 mid.  surface    -2.9208E-05 -2.9208E-05 -2.9208E-05  0.0000E+00  0.0000E+00  0.0000E+00  0.0000E+00
      10-
 mid.  surface     4.4959E-05  4.4959E-05  4.4959E-05  0.0000E+00  0.0000E+00  0.0000E+00  0.0000E+00
      11-
 mid.  surface     2.9827E-05  2.9827E-05  2.9827E-05  0.0000E+00  0.0000E+00  0.0000E+00  0.0000E+00
      12-
 mid.  surface     5.5756E-05  5.5756E-05  5.5756E-05  0.0000E+00  0.0000E+00  0.0000E+00  0.0000E+00
      17-
 mid.  surface    -2.1580E-05 -2.1580E-05 -2.1580E-05  0.0000E+00  0.0000E+00  0.0000E+00  0.0000E+00
      18-
 mid.  surface     2.1147E-05  2.1147E-05  2.1147E-05  0.0000E+00  0.0000E+00  0.0000E+00  0.0000E+00
      19-
 mid.  surface     7.9568E-05  7.9568E-05  7.9568E-05  0.0000E+00  0.0000E+00  0.0000E+00  0.0000E+00
      20-
 mid.  surface    -2.1451E-05 -2.1451E-05 -2.1451E-05  0.0000E+00  0.0000E+00  0.0000E+00  0.0000E+00
      21-
 mid.  surface    -2.6336E-05 -2.6336E-05 -2.6336E-05  0.0000E+00  0.0000E+00  0.0000E+00  0.0000E+00
      22-
 mid.  surface    -2.2547E-05 -2.2547E-05 -2.2547E-05  0.0000E+00  0.0000E+00  0.0000E+00  0.0000E+00
      23-
 mid.  surface     3.9965E-05  3.9965E-05  3.9965E-05  0.0000E+00  0.0000E+00  0.0000E+00  0.0000E+00
      24-
 mid.  surface    -3.6755E-05 -3.6755E-05 -3.6755E-05  0.0000E+00  0.0000E+00  0.0000E+00  0.0000E+00
      25-
 mid.  surface    -1.1793E-04 -1.1793E-04 -1.1793E-04  0.0000E+00  0.0000E+00  0.0000E+00  0.0000E+00
      26-
 mid.  surface    -2.6337E-05 -2.6337E-05 -2.6337E-05  0.0000E+00  0.0000E+00  0.0000E+00  0.0000E+00
      27-
 mid.  surface     1.7217E-05  1.7217E-05  1.7217E-05  0.0000E+00  0.0000E+00  0.0000E+00  0.0000E+00
      28-
 mid.  surface    -7.0051E-05 -7.0051E-05 -7.0051E-05  0.0000E+00  0.0000E+00  0.0000E+00  0.0000E+00
      29-
 mid.  surface     2.3031E-05  2.3031E-05  2.3031E-05  0.0000E+00  0.0000E+00  0.0000E+00  0.0000E+00
      30-
 mid.  surface     1.0553E-04  1.0553E-04  1.0553E-04  0.0000E+00  0.0000E+00  0.0000E+00  0.0000E+00
      31-
 mid.  surface     2.1940E-06  2.1940E-06  2.1940E-06  0.0000E+00  0.0000E+00  0.0000E+00  0.0000E+00
      52-
 mid.  surface     2.4654E-05  2.4654E-05  2.4654E-05  0.0000E+00  0.0000E+00  0.0000E+00  0.0000E+00
      53-
 mid.  surface     1.0593E-05  1.0593E-05  1.0593E-05  0.0000E+00  0.0000E+00  0.0000E+00  0.0000E+00
      54-
 mid.  surface    -2.6127E-07 -2.6127E-07 -2.6127E-07  0.0000E+00  0.0000E+00  0.0000E+00  0.0000E+00
      55-
 mid.  surface     1.9499E-05  1.9499E-05  1.9499E-05  0.0000E+00  0.0000E+00  0.0000E+00  0.0000E+00
      56-
 mid.  surface     3.6803E-05  3.6803E-05  3.6803E-05  0.0000E+00  0.0000E+00  0.0000E+00  0.0000E+00
      57-
 mid.  surface     6.2769E-05  6.2769E-05  6.2769E-05  0.0000E+00  0.0000E+00  0.0000E+00  0.0000E+00
     124-
 mid.  surface     1.8158E-05  1.8158E-05  1.8158E-05  0.0000E+00  0.0000E+00  0.0000E+00  0.0000E+00
     125-
 mid.  surface     1.3029E-05  1.3029E-05  1.3029E-05  0.0000E+00  0.0000E+00  0.0000E+00  0.0000E+00
     126-
 mid.  surface    -9.8736E-05 -9.8736E-05 -9.8736E-05  0.0000E+00  0.0000E+00  0.0000E+00  0.0000E+00
     127-
 mid.  surface    -8.0053E-05 -8.0053E-05 -8.0053E-05  0.0000E+00  0.0000E+00  0.0000E+00  0.0000E+00
     128-
 mid.  surface     5.3601E-05  5.3601E-05  5.3601E-05  0.0000E+00  0.0000E+00  0.0000E+00  0.0000E+00
     129-
 mid.  surface     9.5276E-05  9.5276E-05  9.5276E-05  0.0000E+00  0.0000E+00  0.0000E+00  0.0000E+00
     148-
 mid.  surface    -1.7321E-05 -1.7321E-05 -1.7321E-05  0.0000E+00  0.0000E+00  0.0000E+00  0.0000E+00
     149-
 mid.  surface    -3.8993E-05 -3.8993E-05 -3.8993E-05  0.0000E+00  0.0000E+00  0.0000E+00  0.0000E+00
     150-
 mid.  surface     3.0263E-05  3.0263E-05  3.0263E-05  0.0000E+00  0.0000E+00  0.0000E+00  0.0000E+00
     164-
 mid.  surface    -6.5754E-05 -6.5754E-05 -6.5754E-05  0.0000E+00  0.0000E+00  0.0000E+00  0.0000E+00
     165-
 mid.  surface    -4.6276E-05 -4.6276E-05 -4.6276E-05  0.0000E+00  0.0000E+00  0.0000E+00  0.0000E+00
     166-
 mid.  surface     2.0005E-05  2.0005E-05  2.0005E-05  0.0000E+00  0.0000E+00  0.0000E+00  0.0000E+00



 n o d a l  s t r a i n  c a l c u l a t i o n s   f o r   t i m e  s t e p        1   ( at time 0.00000E+00 )

 node (global)
          strain       eps-xx      eps-yy      eps-zz      eps-xy      eps-yz      eps-zx       
       1-
 mid.  surface     0.0000E+00  0.0000E+00  0.0000E+00  0.0000E+00  0.0000E+00  0.0000E+00
       2-
 mid.  surface     0.0000E+00  0.0000E+00  0.0000E+00  0.0000E+00  0.0000E+00  0.0000E+00
       8-
 mid.  surface     0.0000E+00  0.0000E+00  0.0000E+00  0.0000E+00  0.0000E+00  0.0000E+00
       9-
 mid.  surface     0.0000E+00  0.0000E+00  0.0000E+00  0.0000E+00  0.0000E+00  0.0000E+00
      10-
 mid.  surface     0.0000E+00  0.0000E+00  0.0000E+00  0.0000E+00  0.0000E+00  0.0000E+00
      11-
 mid.  surface     0.0000E+00  0.0000E+00  0.0000E+00  0.0000E+00  0.0000E+00  0.0000E+00
      12-
 mid.  surface     0.0000E+00  0.0000E+00  0.0000E+00  0.0000E+00  0.0000E+00  0.0000E+00
      17-
 mid.  surface     0.0000E+00  0.0000E+00  0.0000E+00  0.0000E+00  0.0000E+00  0.0000E+00
      18-
 mid.  surface     0.0000E+00  0.0000E+00  0.0000E+00  0.0000E+00  0.0000E+00  0.0000E+00
      19-
 mid.  surface     0.0000E+00  0.0000E+00  0.0000E+00  0.0000E+00  0.0000E+00  0.0000E+00
      20-
 mid.  surface     0.0000E+00  0.0000E+00  0.0000E+00  0.0000E+00  0.0000E+00  0.0000E+00
      21-
 mid.  surface     0.0000E+00  0.0000E+00  0.0000E+00  0.0000E+00  0.0000E+00  0.0000E+00
      22-
 mid.  surface     0.0000E+00  0.0000E+00  0.0000E+00  0.0000E+00  0.0000E+00  0.0000E+00
      23-
 mid.  surface     0.0000E+00  0.0000E+00  0.0000E+00  0.0000E+00  0.0000E+00  0.0000E+00
      24-
 mid.  surface     0.0000E+00  0.0000E+00  0.0000E+00  0.0000E+00  0.0000E+00  0.0000E+00
      25-
 mid.  surface     0.0000E+00  0.0000E+00  0.0000E+00  0.0000E+00  0.0000E+00  0.0000E+00
      26-
 mid.  surface     0.0000E+00  0.0000E+00  0.0000E+00  0.0000E+00  0.0000E+00  0.0000E+00
      27-
 mid.  surface     0.0000E+00  0.0000E+00  0.0000E+00  0.0000E+00  0.0000E+00  0.0000E+00
      28-
 mid.  surface     0.0000E+00  0.0000E+00  0.0000E+00  0.0000E+00  0.0000E+00  0.0000E+00
      29-
 mid.  surface     0.0000E+00  0.0000E+00  0.0000E+00  0.0000E+00  0.0000E+00  0.0000E+00
      30-
 mid.  surface     0.0000E+00  0.0000E+00  0.0000E+00  0.0000E+00  0.0000E+00  0.0000E+00
      31-
 mid.  surface     0.0000E+00  0.0000E+00  0.0000E+00  0.0000E+00  0.0000E+00  0.0000E+00
      52-
 mid.  surface     0.0000E+00  0.0000E+00  0.0000E+00  0.0000E+00  0.0000E+00  0.0000E+00
      53-
 mid.  surface     0.0000E+00  0.0000E+00  0.0000E+00  0.0000E+00  0.0000E+00  0.0000E+00
      54-
 mid.  surface     0.0000E+00  0.0000E+00  0.0000E+00  0.0000E+00  0.0000E+00  0.0000E+00
      55-
 mid.  surface     0.0000E+00  0.0000E+00  0.0000E+00  0.0000E+00  0.0000E+00  0.0000E+00
      56-
 mid.  surface     0.0000E+00  0.0000E+00  0.0000E+00  0.0000E+00  0.0000E+00  0.0000E+00
      57-
 mid.  surface     0.0000E+00  0.0000E+00  0.0000E+00  0.0000E+00  0.0000E+00  0.0000E+00
     124-
 mid.  surface     0.0000E+00  0.0000E+00  0.0000E+00  0.0000E+00  0.0000E+00  0.0000E+00
     125-
 mid.  surface     0.0000E+00  0.0000E+00  0.0000E+00  0.0000E+00  0.0000E+00  0.0000E+00
     126-
 mid.  surface     0.0000E+00  0.0000E+00  0.0000E+00  0.0000E+00  0.0000E+00  0.0000E+00
     127-
 mid.  surface     0.0000E+00  0.0000E+00  0.0000E+00  0.0000E+00  0.0000E+00  0.0000E+00
     128-
 mid.  surface     0.0000E+00  0.0000E+00  0.0000E+00  0.0000E+00  0.0000E+00  0.0000E+00
     129-
 mid.  surface     0.0000E+00  0.0000E+00  0.0000E+00  0.0000E+00  0.0000E+00  0.0000E+00
     148-
 mid.  surface     0.0000E+00  0.0000E+00  0.0000E+00  0.0000E+00  0.0000E+00  0.0000E+00
     149-
 mid.  surface     0.0000E+00  0.0000E+00  0.0000E+00  0.0000E+00  0.0000E+00  0.0000E+00
     150-
 mid.  surface     0.0000E+00  0.0000E+00  0.0000E+00  0.0000E+00  0.0000E+00  0.0000E+00
     164-
 mid.  surface     0.0000E+00  0.0000E+00  0.0000E+00  0.0000E+00  0.0000E+00  0.0000E+00
     165-
 mid.  surface     0.0000E+00  0.0000E+00  0.0000E+00  0.0000E+00  0.0000E+00  0.0000E+00
     166-
 mid.  surface     0.0000E+00  0.0000E+00  0.0000E+00  0.0000E+00  0.0000E+00  0.0000E+00



 n o d a l  s t r e s s  c a l c u l a t i o n s   f o r   t i m e  s t e p       10   ( at time 1.29245E+00 )

 node (global)
          stress       sig-xx      sig-yy      sig-zz      sig-xy      sig-yz      sig-zx       plastic
                                                                                                 strain 
       1-
 mid.  surface    -7.5699E+06 -2.3953E+07 -2.7506E+08  4.1340E+07 -1.2734E+07 -3.6591E+07 -1.1918E-04
       2-
 mid.  surface    -7.1079E+07 -4.4508E+07 -3.0053E+08  2.2916E+07 -4.6015E+06 -5.7050E+06  4.6423E-04
       8-
 mid.  surface    -1.2605E+07  5.1210E+07 -2.2404E+08 -7.9604E+06 -6.8423E+06  2.4055E+06 -1.4964E-04
       9-
 mid.  surface    -3.9262E+07 -1.9102E+07 -2.8967E+08 -2.0332E+07 -6.7270E+06  6.6378E+06  3.2738E-04
      10-
 mid.  surface    -4.4277E+07 -1.9063E+07 -2.8275E+08  4.8979E+06 -7.7591E+06  2.0561E+07  4.1335E-04
      11-
 mid.  surface    -1.1097E+07 -9.6262E+06 -2.6666E+08  1.8024E+07 -7.1284E+07 -6.3558E+06  1.8042E-04
      12-
 mid.  surface    -2.4247E+07 -2.1157E+07 -2.6419E+08  1.1639E+07 -6.9463E+07 -2.8905E+07  8.7499E-06
      17-
 mid.  surface     2.0750E+07 -7.9308E+06 -2.3102E+08  2.0044E+07 -3.1877E+07 -2.7034E+07  7.0106E-05
      18-
 mid.  surface    -1.1806E+07  2.6790E+07 -2.2397E+08  2.3709E+07  1.3180E+06 -6.0543E+06  8.1824E-06
      19-
 mid.  surface    -3.8467E+07 -3.6443E+07 -2.5985E+08 -8.1245E+06 -2.2124E+07 -1.6121E+07  3.5945E-04
      20-
 mid.  surface     7.7104E+06 -1.3442E+07 -2.4537E+08  1.5417E+07 -1.1913E+07 -3.4771E+06  1.8360E-05
      21-
 mid.  surface    -3.6133E+07 -3.4929E+07 -2.5750E+08 -6.4661E+06 -5.8387E+06 -8.0205E+05  2.8399E-04
      22-
 mid.  surface    -1.2926E+07 -1.2068E+07 -2.7696E+08  1.0992E+07 -3.1187E+07 -4.8057E+07 -1.4275E-04
      23-
 mid.  surface    -7.3047E+06 -5.3543E+06 -2.7263E+08  1.6435E+07 -3.2150E+07 -2.5969E+07  3.8010E-05
      24-
 mid.  surface    -2.7270E+07 -3.6545E+07 -2.3511E+08  5.1866E+06 -1.8960E+07 -5.8326E+06  8.6319E-05
      25-
 mid.  surface    -3.5436E+07 -3.8249E+07 -2.2058E+08 -3.7682E+06 -1.1204E+07 -1.0270E+07  2.1885E-04
      26-
 mid.  surface    -1.3874E+07 -1.3475E+07 -2.4417E+08  6.3304E+06 -4.9076E+07 -7.5347E+07 -7.5222E-05
      27-
 mid.  surface    -1.2647E+07 -9.3095E+06 -2.4066E+08  1.0428E+07 -5.2497E+07 -4.1934E+07 -2.1577E-05
      28-
 mid.  surface    -5.5033E+07 -6.0462E+07 -2.5283E+08 -1.2375E+06 -2.4478E+07 -1.6669E+07  0.0000E+00
      29-
 mid.  surface    -3.6705E+07 -4.0904E+07 -2.2063E+08 -2.9834E+06 -1.9062E+07 -3.2032E+07  0.0000E+00
      30-
 mid.  surface    -3.2805E+07 -3.0776E+07 -2.2334E+08  1.2127E+06 -6.3505E+07 -8.7471E+07  0.0000E+00
      31-
 mid.  surface    -3.7950E+07 -3.6204E+07 -2.2853E+08  4.5473E+06 -6.2782E+07 -4.3563E+07  0.0000E+00
      52-
 mid.  surface    -3.7743E+07 -1.6197E+07 -2.8680E+08  4.7327E+06 -1.9577E+07 -8.8264E+06  2.3423E-04
      53-
 mid.  surface    -1.6149E+07  1.6067E+07 -2.2993E+08  1.8193E+07 -1.8540E+07 -7.5256E+06 -1.1426E-05
      54-
 mid.  surface    -3.7030E+07 -2.7272E+07 -2.5413E+08  2.4639E+06 -3.5376E+07 -1.6924E+07  8.1755E-05
      55-
 mid.  surface    -3.3312E+07 -1.8396E+07 -2.1777E+08  6.9192E+06 -2.9388E+07 -1.0511E+07  7.5974E-05
      56-
 mid.  surface    -5.4350E+07 -5.5383E+07 -2.4584E+08 -6.1898E+05 -4.6951E+07 -1.8084E+07  0.0000E+00
      57-
 mid.  surface    -5.2119E+07 -4.9500E+07 -2.3737E+08 -9.0348E+04 -3.8628E+07 -1.5736E+07  0.0000E+00
     124-
 mid.  surface    -6.3524E+07 -4.6191E+07 -2.7337E+08  1.5623E+07  2.1847E+07 -1.0950E+07  4.2305E-04
     125-
 mid.  surface    -7.3107E+06 -2.6942E+07 -2.9076E+08  3.2238E+07  5.3645E+07 -6.4861E+07 -2.5796E-04
     126-
 mid.  surface    -4.1673E+07 -4.3728E+07 -2.0602E+08  8.3444E+05  2.6891E+07 -2.4332E+07  2.8666E-04
     127-
 mid.  surface    -3.3230E+07 -5.2262E+07 -2.5922E+08  1.1844E+07  8.3227E+07 -1.0172E+08 -1.0111E-04
     128-
 mid.  surface    -2.7936E+07 -3.7892E+07 -1.9377E+08 -7.9309E+06  1.4941E+07 -4.3591E+07  0.0000E+00
     129-
 mid.  surface    -6.5000E+07 -8.1162E+07 -2.4346E+08 -1.0186E+06  7.6355E+07 -1.1802E+08  0.0000E+00
     148-
 mid.  surface    -1.6241E+07  3.7214E+07 -2.3106E+08 -6.4389E+06 -1.8424E+07  3.2170E+06 -1.4647E-04
     149-
 mid.  surface    -3.5236E+07 -8.3451E+06 -2.2257E+08 -2.0956E+06 -2.3540E+07  8.5210E+06  2.9109E-05
     150-
 mid.  surface    -5.2793E+07 -4.2789E+07 -2.4394E+08  2.1905E+06 -3.2091E+07  8.2026E+06  0.0000E+00
     164-
 mid.  surface    -3.1599E+07 -1.6528E+07 -2.9041E+08 -1.5815E+07 -2.5609E+07 -2.0120E+07  1.6562E-04
     165-
 mid.  surface    -2.8797E+07 -3.0355E+07 -2.4806E+08 -6.3319E+06 -4.5378E+07 -3.4816E+07  7.3532E-05
     166-
 mid.  surface    -4.1232E+07 -5.7706E+07 -2.3509E+08  6.5359E+04 -5.9210E+07 -3.8641E+07  0.0000E+00



 n o d a l  s t r a i n  c a l c u l a t i o n s   f o r   t i m e  s t e p       10   ( at time 1.29245E+00 )

 node (global)
          strain       eps-xx      eps-yy      eps-zz      eps-xy      eps-yz      eps-zx       
       1-
 mid.  surface     1.1780E-03  8.1008E-04 -3.4429E-03  7.7317E-04 -2.1344E-04 -6.8745E-04
       2-
 mid.  surface     1.2720E-03  1.7510E-03 -4.9997E-03  5.1838E-04 -6.3397E-05 -3.3521E-04
       8-
 mid.  surface     4.3855E-04  1.7083E-03 -3.0283E-03 -1.9059E-04 -6.3463E-05  5.1718E-05
       9-
 mid.  surface     1.3087E-03  1.7335E-03 -4.6987E-03 -3.6945E-04 -2.0638E-04  1.0775E-04
      10-
 mid.  surface     1.3189E-03  1.8475E-03 -4.8137E-03  1.4238E-04 -1.9520E-04  3.2723E-04
      11-
 mid.  surface     1.4540E-03  1.3799E-03 -4.2031E-03  3.5083E-04 -1.3312E-03 -2.1102E-04
      12-
 mid.  surface     1.0468E-03  1.0299E-03 -3.5481E-03  1.9903E-04 -1.2526E-03 -5.9680E-04
      17-
 mid.  surface     1.5134E-03  1.0184E-03 -3.5702E-03  4.1821E-04 -4.5055E-04 -6.1149E-04
      18-
 mid.  surface     7.4855E-04  1.5601E-03 -3.3018E-03  4.6109E-04  5.8610E-05 -1.6930E-04
      19-
 mid.  surface     1.2972E-03  1.4128E-03 -4.3015E-03 -9.4114E-05 -2.5914E-04 -4.7571E-04
      20-
 mid.  surface     1.3524E-03  9.7311E-04 -3.5195E-03  3.0700E-04 -2.2375E-04 -5.1453E-05
      21-
 mid.  surface     1.2125E-03  1.2714E-03 -4.0459E-03 -8.7189E-05 -1.2705E-04 -1.1918E-04
      22-
 mid.  surface     1.0215E-03  1.0071E-03 -3.4636E-03  1.7596E-04 -5.2449E-04 -8.1573E-04
      23-
 mid.  surface     1.3095E-03  1.2687E-03 -3.9364E-03  2.9421E-04 -5.4267E-04 -4.8172E-04
      24-
 mid.  surface     1.0095E-03  8.5046E-04 -3.2800E-03  1.1920E-04 -4.3644E-04 -1.7286E-04
      25-
 mid.  surface     1.0003E-03  9.4067E-04 -3.3396E-03 -4.3662E-05 -2.7896E-04 -3.2590E-04
      26-
 mid.  surface     9.4330E-04  9.6033E-04 -3.1940E-03  1.1731E-04 -9.2575E-04 -1.3801E-03
      27-
 mid.  surface     1.0035E-03  1.0522E-03 -3.3045E-03  1.9000E-04 -9.7437E-04 -7.9813E-04
      28-
 mid.  surface     7.1020E-04  6.0658E-04 -3.0645E-03 -2.3606E-05 -4.6704E-04 -3.1799E-04
      29-
 mid.  surface     7.2449E-04  6.4487E-04 -2.7856E-03 -5.7014E-05 -3.6383E-04 -6.1155E-04
      30-
 mid.  surface     7.4493E-04  7.8343E-04 -2.8910E-03  2.3292E-05 -1.2118E-03 -1.6694E-03
      31-
 mid.  surface     7.2218E-04  7.5549E-04 -2.9150E-03  8.6820E-05 -1.1982E-03 -8.3139E-04
      52-
 mid.  surface     1.1900E-03  1.6072E-03 -4.4181E-03  1.1425E-04 -4.5809E-04 -2.1614E-04
      53-
 mid.  surface     7.4598E-04  1.3972E-03 -3.2358E-03  3.5539E-04 -4.0668E-04 -1.3815E-04
      54-
 mid.  surface     9.1257E-04  1.1017E-03 -3.5278E-03  5.4733E-05 -7.6807E-04 -3.6033E-04
      55-
 mid.  surface     7.3205E-04  1.0434E-03 -3.0552E-03  1.4593E-04 -6.6251E-04 -2.2790E-04
      56-
 mid.  surface     6.6211E-04  6.4239E-04 -2.9927E-03 -1.1723E-05 -8.9622E-04 -3.4483E-04
      57-
 mid.  surface     6.2560E-04  6.7553E-04 -2.9099E-03 -1.7156E-06 -7.3727E-04 -3.0035E-04
     124-
 mid.  surface     1.1566E-03  1.4748E-03 -4.4518E-03  3.4924E-04  1.7862E-04 -3.5066E-04
     125-
 mid.  surface     1.0685E-03  7.1747E-04 -3.3288E-03  5.9271E-04  9.3557E-04 -1.0810E-03
     126-
 mid.  surface     9.4939E-04  8.9577E-04 -3.2308E-03  4.3064E-05  2.8054E-04 -5.8945E-04
     127-
 mid.  surface     8.7186E-04  5.4640E-04 -3.0550E-03  2.2719E-04  1.4480E-03 -1.8400E-03
     128-
 mid.  surface     7.0715E-04  5.1768E-04 -2.4585E-03 -1.5146E-04  2.8539E-04 -8.3150E-04
     129-
 mid.  surface     6.2223E-04  3.1292E-04 -2.7840E-03 -1.9269E-05  1.4577E-03 -2.2514E-03
     148-
 mid.  surface     4.9865E-04  1.5403E-03 -3.0371E-03 -1.4293E-04 -2.8042E-04  1.1674E-04
     149-
 mid.  surface     6.2562E-04  1.1686E-03 -3.0581E-03 -3.6673E-05 -4.7725E-04  1.8018E-04
     150-
 mid.  surface     6.1524E-04  8.0604E-04 -3.0327E-03  4.1719E-05 -6.1224E-04  1.5683E-04
     164-
 mid.  surface     1.2144E-03  1.4998E-03 -4.3246E-03 -2.8840E-04 -5.3829E-04 -3.8414E-04
     165-
 mid.  surface     1.0062E-03  9.8271E-04 -3.4491E-03 -1.1270E-04 -9.3680E-04 -6.6503E-04
     166-
 mid.  surface     8.0939E-04  4.9522E-04 -2.8907E-03  1.3815E-06 -1.1298E-03 -7.3675E-04



 n o d a l  s t r e s s  c a l c u l a t i o n s   f o r   t i m e  s t e p      655   ( at time 2.30425E+00 )

 node (global)
          stress       sig-xx      sig-yy      sig-zz      sig-xy      sig-yz      sig-zx       plastic
                                                                                                 strain 
       1-
 mid.  surface    -3.6845E+07  4.2052E+07 -3.8565E+08  8.2418E+07 -2.9402E+07  1.3768E+08  1.5185E-03
       2-
 mid.  surface    -5.6805E+08 -4.2764E+08 -8.2190E+08  4.1381E+07 -3.5622E+07  2.0471E+08  4.2031E-03
       8-
 mid.  surface     5.6155E+07  1.1221E+08 -1.8123E+08 -1.8598E+07  3.9514E+07 -4.6750E+06 -4.6290E-03
       9-
 mid.  surface    -5.9678E+07 -6.2855E+07 -3.6578E+08 -2.7928E+07  5.3507E+07  3.6566E+06  1.7911E-02
      10-
 mid.  surface    -1.3094E+08 -1.6307E+08 -2.7604E+08  4.2428E+06 -3.7106E+07  1.5201E+07  2.0223E-02
      11-
 mid.  surface     2.0572E+08  1.9405E+08 -9.2530E+07  4.0669E+07 -2.0970E+08 -7.3974E+07  8.1107E-03
      12-
 mid.  surface     1.5007E+08  1.7966E+08  8.0224E+07  1.4990E+07 -2.3507E+08 -3.2914E+07  1.4383E-02
      17-
 mid.  surface     2.0160E+08  1.8272E+08 -4.4813E+07  3.5294E+07 -1.5771E+08 -8.7864E+07  3.9729E-03
      18-
 mid.  surface    -1.5612E+07  5.8138E+06 -1.0228E+08  1.0298E+07 -1.2627E+07 -2.6913E+07  4.6102E-03
      19-
 mid.  surface    -2.0240E+08 -1.7323E+08 -2.2219E+08 -1.2969E+07 -1.8394E+08  1.0408E+06  1.5454E-02
      20-
 mid.  surface     1.2031E+08  1.0996E+08 -1.5936E+08  2.7903E+07  5.8900E+06  1.2411E+07  6.7304E-03
      21-
 mid.  surface    -1.3431E+08 -1.1739E+08 -2.1667E+08  1.7319E+06 -4.4667E+07  5.7797E+07  1.4852E-02
      22-
 mid.  surface     1.5412E+08  1.7028E+08  6.3881E+06  2.9989E+07 -6.0625E+07 -1.9570E+07  9.2388E-03
      23-
 mid.  surface     1.0798E+08  1.0052E+08 -1.7634E+08  3.3735E+07 -1.5564E+07 -3.1822E+06  1.0226E-02
      24-
 mid.  surface    -3.0158E+07 -2.3295E+07 -2.8020E+08  1.4588E+07 -3.0197E+07  3.6662E+06  1.6576E-05
      25-
 mid.  surface    -1.4299E+07 -5.7169E+07 -1.7539E+08  1.0345E+07 -7.5334E+07  5.0400E+07  7.4090E-03
      26-
 mid.  surface     1.2837E+08  1.1439E+08 -1.3422E+08  3.9682E+07 -7.4905E+07 -7.0339E+07 -9.2473E-04
      27-
 mid.  surface    -1.0011E+07 -1.1125E+07 -2.3415E+08  2.6421E+07 -3.9449E+07 -2.5103E+07  7.7220E-04
      28-
 mid.  surface    -2.1125E+08 -1.9426E+08 -4.2406E+08 -1.2402E+06 -5.5756E+07 -5.9650E+06  2.4538E-03
      29-
 mid.  surface    -7.1157E+07 -1.5685E+08 -2.6336E+08 -1.9097E+07 -6.4823E+07 -7.8017E+06  4.0118E-03
      30-
 mid.  surface    -3.3682E+07 -5.0801E+07 -3.4011E+08  2.0793E+07 -1.0132E+08 -1.3232E+08  1.1304E-05
      31-
 mid.  surface    -1.7634E+08 -1.5981E+08 -3.1843E+08  2.0853E+07 -9.8341E+07  1.0498E+07  3.6688E-03
      52-
 mid.  surface    -1.0827E+08 -1.2876E+08 -3.2928E+08  5.6030E+06  2.8324E+07  6.2981E+06  1.6783E-02
      53-
 mid.  surface    -1.5639E+07  1.9263E+06 -2.0201E+08  8.2457E+06  3.3670E+07  3.3694E+06  6.6794E-03
      54-
 mid.  surface    -8.0944E+07 -9.4821E+07 -2.8940E+08  1.5291E+07 -2.5386E+07 -1.9110E+07  2.6477E-03
      55-
 mid.  surface    -6.1238E+07 -5.0589E+07 -2.8721E+08  2.8704E+06 -3.4852E+07 -1.6421E+07  9.6307E-04
      56-
 mid.  surface    -2.0114E+08 -2.1223E+08 -2.9131E+08  2.2432E+07 -4.7869E+07  2.3623E+06  3.8454E-03
      57-
 mid.  surface    -2.1584E+08 -2.1119E+08 -3.4729E+08 -6.6059E+06 -6.4273E+07 -1.5958E+07  4.0262E-03
     124-
 mid.  surface    -4.5532E+08 -3.6450E+08 -6.1200E+08  2.0126E+07  1.0768E+08 -3.2280E+07  1.4046E-02
     125-
 mid.  surface    -6.9220E+07 -2.8438E+07 -3.6216E+08  5.6594E+07  1.9648E+08 -1.1487E+08  1.6480E-03
     126-
 mid.  surface    -1.8095E+08 -2.2233E+08 -1.9366E+08 -2.1183E+07  1.4649E+08 -2.9875E+07  1.6530E-02
     127-
 mid.  surface    -1.2500E+08 -1.5544E+08 -3.9670E+08  9.6605E+06  2.9256E+08 -1.6924E+08  1.1791E-03
     128-
 mid.  surface    -6.0676E+07 -1.4681E+08  1.4295E+08 -5.5150E+07  1.7252E+08 -1.9368E+08  9.6777E-03
     129-
 mid.  surface    -1.3645E+08 -1.9137E+08 -3.3186E+08 -2.6851E+07  3.1758E+08 -3.7228E+08 -6.3423E-04
     148-
 mid.  surface     3.7855E+07  8.8478E+07 -2.3994E+08 -7.3905E+06 -2.0168E+07 -7.3241E+06  3.4340E-04
     149-
 mid.  surface    -4.1959E+07 -1.1994E+07 -3.1385E+08 -4.8871E+06 -6.9071E+07 -2.1071E+07  6.2709E-05
     150-
 mid.  surface    -1.9695E+08 -2.0953E+08 -3.2762E+08 -1.7225E+07 -1.0733E+08 -1.4725E+07  4.1067E-03
     164-
 mid.  surface    -4.4536E+07 -4.1958E+07 -3.6530E+08 -1.7600E+07 -3.3062E+06 -3.9541E+07  1.4137E-02
     165-
 mid.  surface    -2.4100E+07 -2.4557E+07 -2.9260E+08 -8.4105E+06 -4.7300E+07 -8.3036E+07  2.0069E-03
     166-
 mid.  surface    -1.0632E+08 -1.2879E+08 -2.0520E+08 -1.1098E+07 -8.0571E+07 -8.1007E+07  3.3140E-03



 n o d a l  s t r a i n  c a l c u l a t i o n s   f o r   t i m e  s t e p      655   ( at time 2.30425E+00 )

 node (global)
          strain       eps-xx      eps-yy      eps-zz      eps-xy      eps-yz      eps-zx       
       1-
 mid.  surface     1.2000E-03  4.8248E-03 -7.7772E-03  3.8376E-03 -1.0470E-03  2.7292E-03
       2-
 mid.  surface     1.7224E-03  7.7789E-03 -1.8067E-02  1.6066E-03 -2.0060E-04  4.0134E-03
       8-
 mid.  surface     2.8291E-03  6.1226E-03 -9.0232E-03 -1.0147E-03  1.6292E-03 -1.0236E-04
       9-
 mid.  surface     6.1981E-03  6.2219E-03 -1.4769E-02 -1.6671E-03  1.9975E-03  2.2246E-04
      10-
 mid.  surface     6.2692E-03  5.0524E-03 -1.4064E-02  2.9744E-04 -9.1752E-04  1.1180E-03
      11-
 mid.  surface     6.7782E-03  6.0813E-03 -1.1449E-02  1.8136E-03 -9.2800E-03 -2.9918E-03
      12-
 mid.  surface     4.0708E-03  5.3726E-03 -7.5471E-03  1.1083E-03 -9.0403E-03 -4.6500E-03
      17-
 mid.  surface     6.6754E-03  5.3607E-03 -1.0457E-02  1.7033E-03 -6.4522E-03 -4.9816E-03
      18-
 mid.  surface     3.7250E-03  4.9566E-03 -9.2275E-03  9.4940E-04 -1.7252E-04 -1.1545E-03
      19-
 mid.  surface     5.1081E-03  6.1809E-03 -1.4166E-02 -4.3721E-04 -4.9227E-03 -4.3147E-03
      20-
 mid.  surface     5.5349E-03  4.5963E-03 -9.8102E-03  1.2989E-03  4.6015E-04  4.1543E-04
      21-
 mid.  surface     5.0666E-03  5.1665E-03 -1.2496E-02 -2.4811E-05 -7.0405E-04  3.9148E-04
      22-
 mid.  surface     4.4580E-03  4.8451E-03 -7.7760E-03  1.3830E-03 -2.4327E-03 -2.2262E-03
      23-
 mid.  surface     5.6842E-03  5.2284E-03 -1.0790E-02  1.4467E-03 -4.2318E-05 -5.9391E-04
      24-
 mid.  surface     3.2663E-03  3.1002E-03 -7.9483E-03  6.7316E-04 -1.0301E-03  9.8794E-05
      25-
 mid.  surface     4.2305E-03  2.6395E-03 -8.0617E-03  3.7444E-04 -1.8589E-03  3.9888E-04
      26-
 mid.  surface     4.3259E-03  3.9787E-03 -7.8021E-03  1.5854E-03 -4.2287E-03 -3.6445E-03
      27-
 mid.  surface     3.6090E-03  3.6043E-03 -8.4382E-03  1.1491E-03 -1.9172E-03 -1.6793E-03
      28-
 mid.  surface     1.1494E-03  1.4863E-03 -6.5631E-03 -1.1457E-04 -1.2637E-03 -4.3726E-04
      29-
 mid.  surface     2.7755E-03  9.4432E-05 -5.1917E-03 -2.8641E-04 -1.7130E-03  3.5092E-04
      30-
 mid.  surface     2.9300E-03  2.7669E-03 -7.6934E-03  1.1141E-03 -6.2081E-03 -3.1079E-03
      31-
 mid.  surface     1.4161E-03  1.9825E-03 -6.5067E-03  7.4633E-04 -4.0099E-03 -7.3962E-04
      52-
 mid.  surface     5.3080E-03  4.8681E-03 -1.2884E-02  3.6238E-04 -2.6157E-04 -7.3519E-04
      53-
 mid.  surface     3.4079E-03  4.6629E-03 -9.0989E-03  8.2342E-04 -6.7464E-04 -6.7307E-04
      54-
 mid.  surface     3.0749E-03  3.2133E-03 -8.5076E-03  6.1298E-04 -1.8641E-03 -1.2490E-03
      55-
 mid.  surface     2.4432E-03  3.1823E-03 -7.5177E-03  3.6486E-04 -2.5302E-03 -1.0169E-03
      56-
 mid.  surface     9.2145E-04  7.9911E-04 -5.0691E-03  6.5071E-04 -2.6434E-03 -2.9501E-04
      57-
 mid.  surface     1.1750E-03  1.1285E-03 -5.9707E-03 -2.5495E-04 -3.0049E-03 -9.8344E-04
     124-
 mid.  surface     2.6163E-03  5.7915E-03 -1.5200E-02  9.9913E-04  2.5625E-03 -2.3067E-03
     125-
 mid.  surface     2.4386E-03  3.5536E-03 -8.1657E-03  2.7306E-03  6.4952E-03 -4.7480E-03
     126-
 mid.  surface     2.7850E-03  1.6801E-03 -7.3325E-03 -5.3866E-04  3.5724E-03 -3.3433E-03
     127-
 mid.  surface     3.2751E-03  1.4450E-03 -7.9319E-03  3.3657E-04  1.0047E-02 -7.1139E-03
     128-
 mid.  surface     1.0575E-03 -1.2287E-03 -1.4215E-04 -1.2535E-03  3.4070E-03 -7.0736E-03
     129-
 mid.  surface     1.8663E-03 -3.0620E-04 -4.6461E-03 -6.4040E-04  8.9828E-03 -1.0943E-02
     148-
 mid.  surface     2.6896E-03  5.6015E-03 -8.8322E-03 -5.3041E-04 -1.2086E-03 -1.2459E-05
     149-
 mid.  surface     2.1537E-03  3.6625E-03 -7.5598E-03 -7.4694E-05 -2.8399E-03 -2.6710E-04
     150-
 mid.  surface     1.3588E-03  8.2463E-04 -5.6670E-03 -2.3442E-04 -4.7661E-03 -2.9943E-04
     164-
 mid.  surface     5.4301E-03  5.6572E-03 -1.3255E-02 -1.1005E-03 -5.3692E-04 -1.8860E-03
     165-
 mid.  surface     3.4330E-03  3.6487E-03 -8.7202E-03 -3.0705E-04 -2.0112E-03 -3.0463E-03
     166-
 mid.  surface     1.5298E-03  7.9953E-04 -4.4248E-03 -1.1299E-04 -3.8998E-03 -2.6433E-03



 n o d a l  s t r e s s  c a l c u l a t i o n s   f o r   t i m e  s t e p      690   ( at time 3.16195E+00 )

 node (global)
          stress       sig-xx      sig-yy      sig-zz      sig-xy      sig-yz      sig-zx       plastic
                                                                                                 strain 
       1-
 mid.  surface    -4.5939E+07  8.4854E+06 -3.3424E+08  4.3688E+07 -2.2748E+07  7.7515E+07  6.8604E-03
       2-
 mid.  surface    -7.3100E+08 -6.3567E+08 -9.7589E+08  2.7690E+07 -2.9064E+07  1.1577E+08  1.1731E-02
       8-
 mid.  surface     1.1329E+08  1.4432E+08 -1.2447E+08 -1.2839E+07  8.7885E+06 -3.3433E+06  2.0532E-03
       9-
 mid.  surface    -7.3353E+07 -8.1060E+07 -3.5563E+08 -1.7279E+07  1.6557E+07  1.5827E+06  2.6155E-02
      10-
 mid.  surface    -1.0799E+08 -1.3203E+08 -3.4572E+08  4.8784E+06 -4.0343E+07  4.7947E+06  2.7597E-02
      11-
 mid.  surface     2.5155E+08  2.4295E+08 -3.7595E+07  1.9027E+07 -1.2889E+08 -4.0033E+07  1.5088E-02
      12-
 mid.  surface     2.8389E+08  3.0298E+08  8.9875E+07  3.0833E+06 -1.4789E+08 -3.1374E+07  2.0324E-02
      17-
 mid.  surface     2.6820E+08  2.6394E+08  2.1567E+07  1.8777E+07 -1.0920E+08 -5.8408E+07  1.1383E-02
      18-
 mid.  surface     6.8777E+07  8.0884E+07 -1.2722E+08  7.8127E+06 -3.0032E+07 -1.8958E+07  1.1044E-02
      19-
 mid.  surface    -1.8942E+08 -1.6103E+08 -3.5467E+08 -5.4339E+06 -1.2170E+08 -2.0983E+07  2.2802E-02
      20-
 mid.  surface     1.6406E+08  1.5787E+08 -1.1378E+08  1.7022E+07  3.0161E+05 -4.2465E+05  1.2853E-02
      21-
 mid.  surface    -1.1402E+08 -1.0102E+08 -3.0610E+08  3.0418E+06 -1.6592E+07  1.5067E+07  2.1719E-02
      22-
 mid.  surface     2.5091E+08  2.5659E+08  1.6888E+07  1.3346E+07 -2.2169E+07 -2.1528E+07  1.4711E-02
      23-
 mid.  surface     1.3910E+08  1.3158E+08 -1.5272E+08  1.6604E+07  1.8811E+05 -4.6463E+06  1.6333E-02
      24-
 mid.  surface    -3.2680E+07 -3.5947E+07 -2.9945E+08  5.1833E+06 -3.4685E+07 -1.7562E+07  4.3605E-03
      25-
 mid.  surface    -1.3474E+07 -4.0394E+07 -2.1711E+08  3.5047E+06 -4.4534E+07  4.3848E+06  1.3153E-02
      26-
 mid.  surface     1.4174E+08  1.3104E+08 -1.2552E+08  2.2632E+07 -5.2882E+07 -6.6379E+07  3.5600E-03
      27-
 mid.  surface    -5.0449E+06 -7.3068E+05 -2.5040E+08  1.3051E+07 -4.0863E+07 -3.2453E+07  5.1065E-03
      28-
 mid.  surface    -2.7547E+08 -2.6609E+08 -5.1150E+08 -1.6588E+06 -6.9048E+07 -2.7404E+07  5.7565E-03
      29-
 mid.  surface    -1.2292E+08 -1.6164E+08 -3.1293E+08 -8.1314E+06 -8.0351E+07 -3.5015E+07  8.9274E-03
      30-
 mid.  surface    -6.7199E+07 -7.4625E+07 -3.2205E+08  1.4583E+07 -1.1221E+08 -1.1657E+08  4.0550E-03
      31-
 mid.  surface    -1.9065E+08 -1.7660E+08 -3.6770E+08  1.4416E+07 -9.8201E+07 -2.8154E+07  6.9721E-03
      52-
 mid.  surface    -1.0237E+08 -1.1207E+08 -3.7032E+08  3.4109E+06  6.2680E+06 -2.6521E+06  2.3095E-02
      53-
 mid.  surface     2.3835E+07  3.5862E+07 -2.2102E+08  4.5846E+06  6.9233E+06 -2.9884E+06  1.2295E-02
      54-
 mid.  surface    -6.1417E+07 -5.6360E+07 -2.9817E+08  9.6416E+06 -4.2981E+07 -1.9988E+07  7.1764E-03
      55-
 mid.  surface    -6.3165E+07 -5.5316E+07 -3.2180E+08  1.1592E+05 -4.2709E+07 -1.8637E+07  5.2630E-03
      56-
 mid.  surface    -2.1218E+08 -1.9947E+08 -3.6450E+08  2.0002E+07 -7.4885E+07 -1.1050E+07  7.1626E-03
      57-
 mid.  surface    -2.8017E+08 -2.6483E+08 -4.8304E+08 -1.8941E+06 -7.7913E+07 -2.1924E+07  7.3703E-03
     124-
 mid.  surface    -5.4206E+08 -4.8648E+08 -7.4254E+08  1.0886E+07  7.2002E+07 -3.5998E+07  2.1534E-02
     125-
 mid.  surface    -7.2461E+07 -5.1973E+07 -3.4346E+08  2.6363E+07  1.3036E+08 -7.9486E+07  7.1553E-03
     126-
 mid.  surface    -1.4113E+08 -1.7906E+08 -2.7017E+08 -9.8716E+06  9.8353E+07 -3.7651E+07  2.2827E-02
     127-
 mid.  surface    -1.1264E+08 -1.5456E+08 -3.8334E+08  8.6976E+06  1.8764E+08 -1.3177E+08  5.6821E-03
     128-
 mid.  surface    -1.1760E+07 -8.3852E+07 -8.1940E+07 -3.8058E+07  8.6785E+07 -9.8956E+07  1.3686E-02
     129-
 mid.  surface    -1.8474E+08 -2.4558E+08 -4.6255E+08 -2.4329E+07  1.7174E+08 -2.2565E+08  1.8163E-03
     148-
 mid.  surface     6.6048E+07  8.5298E+07 -2.0409E+08 -5.9711E+06 -1.7344E+07  7.8965E+05  6.2909E-03
     149-
 mid.  surface    -3.8112E+07 -3.0664E+07 -3.0479E+08 -5.1789E+06 -5.8640E+07 -6.2199E+06  4.7823E-03
     150-
 mid.  surface    -2.5421E+08 -2.6178E+08 -4.5381E+08  1.3760E+05 -9.8531E+07 -1.1989E+07  7.1586E-03
     164-
 mid.  surface    -6.0829E+07 -6.9343E+07 -3.5837E+08 -9.4224E+06 -6.7614E+06 -1.8905E+07  2.1187E-02
     165-
 mid.  surface    -1.6498E+07 -2.3376E+07 -2.7116E+08 -2.9554E+06 -5.0058E+07 -4.8077E+07  6.7924E-03
     166-
 mid.  surface    -1.3728E+08 -1.5761E+08 -2.9807E+08  8.2228E+06 -8.1494E+07 -6.0179E+07  6.2566E-03



 n o d a l  s t r a i n  c a l c u l a t i o n s   f o r   t i m e  s t e p      690   ( at time 3.16195E+00 )

 node (global)
          strain       eps-xx      eps-yy      eps-zz      eps-xy      eps-yz      eps-zx       
       1-
 mid.  surface     3.3575E-03  8.3225E-03 -1.3376E-02  4.5915E-03 -1.3340E-03  3.9189E-03
       2-
 mid.  surface     3.7136E-03  1.1562E-02 -2.6316E-02  2.0995E-03 -1.6291E-04  5.5543E-03
       8-
 mid.  surface     5.7910E-03  9.9861E-03 -1.5171E-02 -1.2971E-03  1.4198E-03 -1.9156E-04
       9-
 mid.  surface     1.0097E-02  9.9954E-03 -2.2566E-02 -2.0452E-03  1.6966E-03  1.8055E-04
      10-
 mid.  surface     1.0110E-02  8.0933E-03 -2.1036E-02  5.1522E-04 -2.6108E-03  1.0520E-03
      11-
 mid.  surface     1.0544E-02  9.5405E-03 -1.7982E-02  2.3731E-03 -1.2368E-02 -3.7721E-03
      12-
 mid.  surface     6.8906E-03  8.7023E-03 -1.2445E-02  1.2216E-03 -1.2303E-02 -6.2121E-03
      17-
 mid.  surface     1.0194E-02  9.0950E-03 -1.6712E-02  2.2274E-03 -9.2810E-03 -6.3248E-03
      18-
 mid.  surface     6.7615E-03  8.4297E-03 -1.5112E-02  1.1311E-03 -1.3986E-03 -1.5696E-03
      19-
 mid.  surface     7.9165E-03  9.5810E-03 -2.0896E-02 -3.5548E-04 -7.2162E-03 -5.7937E-03
      20-
 mid.  surface     8.7962E-03  7.8186E-03 -1.5659E-02  1.6797E-03  6.4443E-04  3.1815E-04
      21-
 mid.  surface     8.1218E-03  8.3033E-03 -1.8960E-02  1.8172E-04 -9.5896E-04  4.1248E-04
      22-
 mid.  surface     7.5559E-03  8.0377E-03 -1.3169E-02  1.6637E-03 -3.0494E-03 -2.6818E-03
      23-
 mid.  surface     9.0622E-03  8.3324E-03 -1.6882E-02  1.7618E-03  4.1851E-04 -7.6439E-04
      24-
 mid.  surface     5.5643E-03  5.1067E-03 -1.2419E-02  6.0654E-04 -1.8229E-03 -5.3740E-04
      25-
 mid.  surface     6.8939E-03  4.7643E-03 -1.2976E-02  3.7004E-04 -2.9193E-03 -2.2705E-04
      26-
 mid.  surface     6.9076E-03  6.4578E-03 -1.2690E-02  1.8996E-03 -5.7332E-03 -4.8950E-03
      27-
 mid.  surface     5.6625E-03  5.8329E-03 -1.2727E-02  1.1537E-03 -2.7766E-03 -2.4755E-03
      28-
 mid.  surface     2.3609E-03  2.7882E-03 -1.0136E-02 -1.7566E-04 -2.6562E-03 -1.3597E-03
      29-
 mid.  surface     4.2795E-03  1.3638E-03 -8.4666E-03 -3.1241E-04 -3.6728E-03 -1.1654E-03
      30-
 mid.  surface     4.4163E-03  4.4290E-03 -1.1027E-02  1.3111E-03 -8.8354E-03 -5.2298E-03
      31-
 mid.  surface     2.4968E-03  3.3958E-03 -9.3842E-03  8.7449E-04 -5.7832E-03 -1.8888E-03
      52-
 mid.  surface     8.5823E-03  7.8463E-03 -1.9235E-02  4.2635E-04 -5.8464E-04 -1.2007E-03
      53-
 mid.  surface     6.2196E-03  7.7450E-03 -1.4744E-02  9.0695E-04 -6.1898E-04 -8.3668E-04
      54-
 mid.  surface     5.1206E-03  5.5701E-03 -1.2681E-02  6.8753E-04 -3.6215E-03 -1.7890E-03
      55-
 mid.  surface     4.6234E-03  5.3028E-03 -1.2015E-02  3.6745E-04 -3.9052E-03 -1.4037E-03
      56-
 mid.  surface     2.0093E-03  2.6144E-03 -8.3171E-03  9.2262E-04 -4.3379E-03 -8.6188E-04
      57-
 mid.  surface     2.3995E-03  2.8486E-03 -1.0120E-02 -2.5603E-04 -4.4297E-03 -1.4816E-03
     124-
 mid.  surface     4.8696E-03  8.7637E-03 -2.2042E-02  1.0823E-03  4.4253E-03 -3.8243E-03
     125-
 mid.  surface     4.8400E-03  6.3462E-03 -1.3406E-02  3.0181E-03  9.4341E-03 -6.6931E-03
     126-
 mid.  surface     5.2789E-03  3.1263E-03 -1.1254E-02 -7.0127E-04  5.5304E-03 -5.4892E-03
     127-
 mid.  surface     5.8315E-03  2.8728E-03 -1.1800E-02  3.7264E-04  1.3411E-02 -1.0105E-02
     128-
 mid.  surface     3.0682E-03 -8.0913E-04 -3.0974E-03 -1.8262E-03  4.8841E-03 -7.9327E-03
     129-
 mid.  surface     3.8477E-03  1.8782E-04 -8.2121E-03 -1.2892E-03  1.1544E-02 -1.3033E-02
     148-
 mid.  surface     5.4761E-03  8.9098E-03 -1.4651E-02 -5.5718E-04 -1.7079E-03 -2.2041E-05
     149-
 mid.  surface     4.2919E-03  5.5984E-03 -1.1666E-02 -1.4887E-04 -4.6584E-03 -2.1252E-04
     150-
 mid.  surface     2.6159E-03  2.0589E-03 -9.2723E-03 -4.9895E-06 -5.8983E-03 -4.4417E-04
     164-
 mid.  surface     8.8103E-03  8.9840E-03 -2.0151E-02 -1.2786E-03 -1.0159E-03 -2.3992E-03
     165-
 mid.  surface     5.5782E-03  5.6315E-03 -1.2709E-02 -4.0506E-04 -3.6214E-03 -3.6231E-03
     166-
 mid.  surface     2.7681E-03  1.8513E-03 -7.4487E-03  3.0607E-04 -4.8086E-03 -3.4833E-03



 n o d a l  s t r e s s  c a l c u l a t i o n s   f o r   t i m e  s t e p      703   ( at time 4.91884E+00 )

 node (global)
          stress       sig-xx      sig-yy      sig-zz      sig-xy      sig-yz      sig-zx       plastic
                                                                                                 strain 
       1-
 mid.  surface    -1.0373E+08 -2.6982E+07 -3.8308E+08  1.2823E+07 -1.7235E+06  8.7380E+07  1.6163E-02
       2-
 mid.  surface    -1.1589E+09 -1.0648E+09 -1.4204E+09  6.6280E+06 -1.4294E+07  8.9123E+07  2.5394E-02
       8-
 mid.  surface     1.4708E+08  1.6323E+08 -9.3696E+07 -9.8364E+06 -8.2480E+06 -2.8293E+06  1.6608E-02
       9-
 mid.  surface    -1.4203E+08 -1.5126E+08 -4.1200E+08 -1.0758E+07 -1.0198E+07 -7.7384E+05  4.3295E-02
      10-
 mid.  surface    -1.3906E+08 -1.7783E+08 -4.0383E+08 -1.6419E+06 -6.4721E+07  1.5921E+06  4.4190E-02
      11-
 mid.  surface     4.3853E+08  4.1596E+08  1.2923E+08  1.9033E+07 -9.7461E+07 -2.9347E+07  2.8894E-02
      12-
 mid.  surface     4.9416E+08  5.0928E+08  2.8146E+08  2.6729E+06 -1.0642E+08 -1.2443E+07  3.7647E-02
      17-
 mid.  surface     4.4154E+08  4.5275E+08  1.9509E+08  2.0666E+07 -9.8691E+07 -5.5009E+07  2.6608E-02
      18-
 mid.  surface     1.0806E+08  1.1525E+08 -1.1851E+08 -6.4046E+06 -5.5772E+07 -1.5697E+07  2.5987E-02
      19-
 mid.  surface    -2.6666E+08 -2.4203E+08 -4.4957E+08  6.9533E+06 -1.0173E+08 -2.7927E+07  4.3688E-02
      20-
 mid.  surface     2.4701E+08  2.4550E+08 -3.6583E+07  5.6507E+06 -9.3948E+05 -1.2754E+07  2.5016E-02
      21-
 mid.  surface    -1.6850E+08 -1.5269E+08 -3.8263E+08  9.9429E+05 -1.8794E+07 -1.2580E+07  3.9333E-02
      22-
 mid.  surface     4.2665E+08  4.2952E+08  1.8087E+08  5.5946E+06 -1.8723E+07 -2.0408E+07  2.8442E-02
      23-
 mid.  surface     2.2178E+08  2.1793E+08 -7.2829E+07  5.4347E+06  7.9029E+06 -3.3698E+06  2.8357E-02
      24-
 mid.  surface    -4.1385E+07 -5.6343E+07 -3.2473E+08  2.8898E+06 -3.1814E+07 -7.4943E+06  1.3933E-02
      25-
 mid.  surface    -1.8215E+07 -2.4637E+07 -2.4551E+08  6.2226E+06 -2.1949E+07 -1.0646E+07  2.6140E-02
      26-
 mid.  surface     2.0784E+08  2.0579E+08 -6.8448E+07  1.8936E+07 -2.7518E+07 -5.5676E+07  1.3693E-02
      27-
 mid.  surface    -2.8262E+06 -4.2216E+06 -2.7460E+08  6.3984E+06 -3.3688E+07 -2.1654E+07  1.5208E-02
      28-
 mid.  surface    -3.4973E+08 -3.5876E+08 -5.6027E+08  3.3765E+06 -9.1565E+07 -4.6863E+07  1.3906E-02
      29-
 mid.  surface    -1.4293E+08 -1.8961E+08 -3.4906E+08 -8.2883E+05 -7.2780E+07 -6.7705E+07  1.8296E-02
      30-
 mid.  surface    -1.2481E+08 -1.2771E+08 -3.7016E+08  2.2984E+07 -1.1090E+08 -1.0998E+08  1.2555E-02
      31-
 mid.  surface    -2.5831E+08 -2.5407E+08 -4.1664E+08  1.2779E+07 -1.1276E+08 -3.7210E+07  1.7695E-02
      52-
 mid.  surface    -1.3760E+08 -1.4729E+08 -4.2059E+08  5.6172E+06  6.4818E+06 -5.1086E+05  3.8532E-02
      53-
 mid.  surface     6.2579E+07  6.7158E+07 -2.0272E+08  6.9404E+06  9.9849E+06 -3.4404E+05  2.6019E-02
      54-
 mid.  surface    -8.5483E+07 -6.7461E+07 -3.4281E+08  9.6552E+06 -4.6321E+07 -2.3508E+07  1.8826E-02
      55-
 mid.  surface    -5.5282E+07 -4.9191E+07 -3.3403E+08  8.3645E+06 -4.3242E+07 -1.8870E+07  1.5647E-02
      56-
 mid.  surface    -3.0333E+08 -3.0115E+08 -4.4807E+08  4.8657E+06 -1.0179E+08 -2.6204E+07  1.6935E-02
      57-
 mid.  surface    -4.1765E+08 -4.2248E+08 -6.1031E+08 -8.4303E+06 -1.0225E+08 -4.0236E+07  1.6439E-02
     124-
 mid.  surface    -7.9438E+08 -7.6722E+08 -1.0379E+09  1.5644E+07  5.9393E+07 -5.3283E+07  3.7404E-02
     125-
 mid.  surface    -6.7542E+07 -7.1217E+07 -3.5573E+08  1.9532E+07  1.0423E+08 -7.1745E+07  1.7691E-02
     126-
 mid.  surface    -1.5736E+08 -1.9262E+08 -3.4008E+08 -4.9462E+06  8.7257E+07 -4.7100E+07  3.7185E-02
     127-
 mid.  surface    -1.3851E+08 -1.8921E+08 -4.2002E+08  2.4711E+06  1.5300E+08 -1.0320E+08  1.4753E-02
     128-
 mid.  surface     3.8871E+06 -5.1447E+07 -1.1357E+08 -3.1302E+07  5.6828E+07 -1.1051E+08  2.3790E-02
     129-
 mid.  surface    -3.0016E+08 -3.4163E+08 -5.6763E+08 -1.1105E+07  1.0814E+08 -1.8335E+08  6.5169E-03
     148-
 mid.  surface     9.6857E+07  1.0873E+08 -1.7088E+08 -6.6057E+06 -9.4037E+06  8.4300E+06  1.8678E-02
     149-
 mid.  surface    -3.8052E+07 -3.1118E+07 -3.1079E+08  2.1219E+06 -4.9530E+07 -2.0258E+06  1.4630E-02
     150-
 mid.  surface    -4.1912E+08 -4.2401E+08 -6.0567E+08  5.3474E+06 -1.0238E+08 -5.2909E+06  1.7480E-02
     164-
 mid.  surface    -1.1369E+08 -1.2390E+08 -4.0090E+08 -8.4176E+06 -6.8362E+06 -5.6234E+06  3.6054E-02
     165-
 mid.  surface    -2.9591E+07 -2.6087E+07 -2.8949E+08 -1.9884E+06 -4.4731E+07 -3.1101E+07  1.7838E-02
     166-
 mid.  surface    -2.1581E+08 -2.0616E+08 -3.5901E+08  4.6143E+06 -9.3017E+07 -2.5682E+07  1.6517E-02



 n o d a l  s t r a i n  c a l c u l a t i o n s   f o r   t i m e  s t e p      703   ( at time 4.91884E+00 )

 node (global)
          strain       eps-xx      eps-yy      eps-zz      eps-xy      eps-yz      eps-zx       
       1-
 mid.  surface     5.9153E-03  1.6753E-02 -2.4993E-02  5.8081E-03 -1.3477E-03  8.4247E-03
       2-
 mid.  surface     6.1917E-03  2.0066E-02 -4.3424E-02  2.2557E-03  4.8978E-04  1.0086E-02
       8-
 mid.  surface     1.2020E-02  1.7395E-02 -2.8475E-02 -2.0373E-03  1.0817E-03 -3.5295E-04
       9-
 mid.  surface     1.8056E-02  1.7090E-02 -3.8640E-02 -2.8097E-03  1.0270E-03  3.7457E-05
      10-
 mid.  surface     1.8098E-02  1.3378E-02 -3.5018E-02  6.4968E-04 -6.7174E-03  9.6750E-04
      11-
 mid.  surface     1.9433E-02  1.6927E-02 -3.1832E-02  3.9091E-03 -1.9393E-02 -6.0617E-03
      12-
 mid.  surface     1.3858E-02  1.6477E-02 -2.4369E-02  1.9721E-03 -1.9294E-02 -9.0035E-03
      17-
 mid.  surface     1.7679E-02  1.7473E-02 -3.0135E-02  3.7023E-03 -1.5700E-02 -1.0001E-02
      18-
 mid.  surface     1.2648E-02  1.5086E-02 -2.7317E-02  9.6808E-04 -4.4731E-03 -2.4295E-03
      19-
 mid.  surface     1.4652E-02  1.7246E-02 -3.6588E-02  2.3944E-04 -1.2435E-02 -9.1116E-03
      20-
 mid.  surface     1.5544E-02  1.4485E-02 -2.7964E-02  2.1920E-03  1.5641E-03 -3.3537E-05
      21-
 mid.  surface     1.4629E-02  1.4968E-02 -3.3092E-02  2.3668E-04 -1.6080E-03 -1.6726E-04
      22-
 mid.  surface     1.4013E-02  1.4644E-02 -2.3870E-02  2.3638E-03 -4.7167E-03 -3.4649E-03
      23-
 mid.  surface     1.5883E-02  1.4792E-02 -2.9039E-02  2.2637E-03  1.6285E-03 -7.3250E-04
      24-
 mid.  surface     1.0857E-02  9.5392E-03 -2.2431E-02  8.6394E-04 -3.0986E-03 -5.7365E-04
      25-
 mid.  surface     1.2394E-02  9.4251E-03 -2.3276E-02  6.7527E-04 -4.1797E-03 -1.0238E-03
      26-
 mid.  surface     1.2337E-02  1.1975E-02 -2.2752E-02  3.0593E-03 -7.9514E-03 -7.5143E-03
      27-
 mid.  surface     1.0606E-02  1.0946E-02 -2.2952E-02  1.5506E-03 -4.3580E-03 -3.3542E-03
      28-
 mid.  surface     5.3780E-03  5.1462E-03 -1.6514E-02  1.2527E-05 -6.6719E-03 -3.3336E-03
      29-
 mid.  surface     8.5072E-03  2.6515E-03 -1.4359E-02 -2.9855E-04 -6.3635E-03 -4.1085E-03
      30-
 mid.  surface     8.4042E-03  8.1466E-03 -1.9466E-02  2.5687E-03 -1.3966E-02 -9.8969E-03
      31-
 mid.  surface     5.3481E-03  6.7869E-03 -1.6556E-02  1.6178E-03 -1.1754E-02 -4.1076E-03
      52-
 mid.  surface     1.5942E-02  1.4265E-02 -3.3654E-02  7.7854E-04 -9.1542E-04 -1.7500E-03
      53-
 mid.  surface     1.2486E-02  1.4439E-02 -2.7339E-02  1.3380E-03 -1.8665E-04 -9.7903E-04
      54-
 mid.  surface     1.0171E-02  1.1542E-02 -2.4126E-02  1.1565E-03 -6.1313E-03 -3.1104E-03
      55-
 mid.  surface     9.7791E-03  1.0753E-02 -2.2636E-02  8.5257E-04 -6.1632E-03 -2.3272E-03
      56-
 mid.  surface     4.0651E-03  4.8960E-03 -1.3970E-02  1.1263E-03 -9.9970E-03 -2.4593E-03
      57-
 mid.  surface     4.8615E-03  4.8566E-03 -1.6595E-02 -5.9385E-04 -1.0006E-02 -3.5601E-03
     124-
 mid.  surface     9.8547E-03  1.5544E-02 -3.7803E-02  1.7041E-03  7.6893E-03 -7.8613E-03
     125-
 mid.  surface     1.0059E-02  1.2399E-02 -2.4852E-02  4.3909E-03  1.4971E-02 -1.1436E-02
     126-
 mid.  surface     1.0501E-02  6.6918E-03 -2.0580E-02 -8.4950E-04  9.2471E-03 -9.4008E-03
     127-
 mid.  surface     1.1510E-02  6.1508E-03 -2.1248E-02  5.1056E-04  2.1292E-02 -1.5869E-02
     128-
 mid.  surface     5.6039E-03 -7.7050E-04 -5.5650E-03 -2.9774E-03  7.0091E-03 -1.3753E-02
     129-
 mid.  surface     6.7862E-03  1.3404E-03 -1.3735E-02 -1.9033E-03  1.6864E-02 -2.0948E-02
     148-
 mid.  surface     1.1338E-02  1.5518E-02 -2.6756E-02 -1.0700E-03 -2.3589E-03  6.9104E-04
     149-
 mid.  surface     9.0342E-03  1.0831E-02 -2.1693E-02 -5.9590E-05 -7.2735E-03 -1.6188E-04
     150-
 mid.  surface     5.2161E-03  4.5555E-03 -1.6656E-02  3.8448E-04 -1.2376E-02 -7.6885E-04
     164-
 mid.  surface     1.6221E-02  1.5420E-02 -3.4783E-02 -1.8722E-03 -1.9378E-03 -2.9034E-03
     165-
 mid.  surface     1.0784E-02  1.0928E-02 -2.3423E-02 -5.7892E-04 -6.1705E-03 -5.2663E-03
     166-
 mid.  surface     4.8883E-03  4.7332E-03 -1.3358E-02  5.6388E-04 -1.0665E-02 -4.6966E-03



 n o d a l  s t r e s s  c a l c u l a t i o n s   f o r   t i m e  s t e p      712   ( at time 6.62612E+00 )

 node (global)
          stress       sig-xx      sig-yy      sig-zz      sig-xy      sig-yz      sig-zx       plastic
                                                                                                 strain 
       1-
 mid.  surface     1.1071E+07  2.0785E+07 -2.8788E+08  3.2822E+07 -3.2441E+07  8.3509E+07  2.7508E-02
       2-
 mid.  surface    -1.3876E+09 -1.3607E+09 -1.6873E+09  2.8944E+07 -2.2743E+07  1.1437E+08  3.8931E-02
       8-
 mid.  surface     1.6544E+08  1.8406E+08 -7.9041E+07 -1.5688E+07 -2.7930E+07  1.4405E+06  2.8272E-02
       9-
 mid.  surface    -2.2462E+08 -2.4013E+08 -4.9883E+08 -1.3907E+07 -2.1731E+07  4.5419E+06  5.7440E-02
      10-
 mid.  surface    -1.1598E+08 -1.2882E+08 -3.6667E+08  2.1761E+07 -6.7274E+07 -1.5680E+07  5.9808E-02
      11-
 mid.  surface     3.0491E+08  3.1850E+08  2.6901E+07 -1.0817E+07 -1.1207E+08 -3.3830E+07  3.9176E-02
      12-
 mid.  surface     5.9256E+08  5.9500E+08  3.6398E+08 -5.7652E+06 -1.0311E+08 -2.5885E+07  5.0710E-02
      17-
 mid.  surface     4.0393E+08  4.3906E+08  1.4570E+08  1.4763E+06 -1.2355E+08 -5.2189E+07  3.6877E-02
      18-
 mid.  surface     1.6696E+08  1.7897E+08 -6.0737E+07  1.6383E+07 -5.7065E+07 -2.2263E+07  4.0809E-02
      19-
 mid.  surface    -3.4205E+08 -3.1752E+08 -5.6868E+08  9.8296E+06 -9.8474E+07 -4.9839E+07  5.8067E-02
      20-
 mid.  surface     6.0930E+07  2.8109E+07 -3.6184E+07  2.0893E+07  4.7920E+07  4.9987E+07  2.6741E-02
      21-
 mid.  surface    -9.3202E+08 -9.2150E+08 -7.7896E+08  7.6181E+06  7.4555E+07  6.1285E+07  3.4630E-02
      22-
 mid.  surface     2.4264E+08  2.4713E+08  2.1071E+08 -4.4756E+06  2.7516E+07  3.5139E+07  3.1781E-02
      23-
 mid.  surface     1.4631E+08  1.1859E+08  1.4651E+07  8.8154E+06  3.6007E+07  3.6782E+07  3.3836E-02
      24-
 mid.  surface     2.9846E+08  3.1656E+08 -2.0825E+08  1.2113E+07 -6.7229E+07 -7.0276E+07  3.4344E-02
      25-
 mid.  surface     2.0000E+08  1.6676E+08 -2.0506E+08  1.1797E+07 -5.7453E+07 -4.9911E+07  4.4573E-02
      26-
 mid.  surface     9.3971E+08  9.4532E+08  3.2595E+08  4.6407E+07 -1.3530E+08 -1.1258E+08  4.0154E-02
      27-
 mid.  surface     7.5088E+08  7.7318E+08  7.6642E+07  2.3189E+07 -1.1486E+08 -1.0094E+08  4.5364E-02
      28-
 mid.  surface    -4.1710E+08 -4.2615E+08 -6.4235E+08 -2.6518E+06 -8.7001E+07 -6.1735E+07  2.1760E-02
      29-
 mid.  surface    -6.5662E+08 -7.1504E+08 -7.2461E+08 -2.1853E+07  1.1905E+07 -2.8307E+07  2.1655E-02
      30-
 mid.  surface     2.1303E+08  2.3184E+08 -1.7745E+08  3.8015E+07 -1.5703E+08 -1.2145E+08  2.6746E-02
      31-
 mid.  surface    -2.6859E+08 -2.6057E+08 -4.7458E+08  7.4349E+06 -8.2233E+07 -4.4036E+07  2.5087E-02
      52-
 mid.  surface    -2.5347E+08 -2.6024E+08 -5.4135E+08 -1.1921E+06  1.3125E+07  4.8914E+06  5.0839E-02
      53-
 mid.  surface     2.8264E+07  3.8108E+07 -2.4367E+08 -6.9879E+06  8.0625E+06  5.6184E+06  3.7271E-02
      54-
 mid.  surface    -1.1271E+08 -1.0546E+08 -3.8232E+08  4.5891E+06 -3.8145E+07 -1.5845E+07  2.8539E-02
      55-
 mid.  surface    -6.0286E+07 -4.8224E+07 -3.3240E+08  2.1021E+06 -4.5635E+07 -1.9107E+07  2.4575E-02
      56-
 mid.  surface    -3.6518E+08 -3.5692E+08 -5.6381E+08 -2.0071E+06 -8.7284E+07 -3.1063E+07  2.5368E-02
      57-
 mid.  surface    -4.9291E+08 -4.9873E+08 -7.2478E+08 -7.6083E+06 -8.7771E+07 -3.5331E+07  2.4610E-02
     124-
 mid.  surface    -1.1292E+09 -1.0537E+09 -1.3642E+09 -1.5641E+06  6.5320E+07 -5.0347E+07  4.9911E-02
     125-
 mid.  surface    -2.3624E+08 -2.0835E+08 -5.0418E+08 -9.6723E+06  1.0256E+08 -5.4837E+07  2.7110E-02
     126-
 mid.  surface    -5.9678E+08 -6.5955E+08 -6.5697E+08 -1.9576E+07  1.4732E+08 -1.9137E+07  4.2112E-02
     127-
 mid.  surface     2.2173E+08  2.0989E+08 -2.1305E+08  4.0351E+07  6.9396E+07 -1.0927E+08  2.9016E-02
     128-
 mid.  surface    -2.0186E+09 -2.1681E+09 -1.3295E+09 -1.1794E+08  4.2004E+08  5.1747E+07 -4.5464E-03
     129-
 mid.  surface    -1.1389E+09 -1.2028E+09 -1.1140E+09 -4.8201E+07  2.3650E+08 -1.3219E+08 -3.8550E-03
     148-
 mid.  surface     8.6349E+07  1.0051E+08 -1.8147E+08 -4.4009E+06 -9.5073E+06  1.0158E+07  2.9692E-02
     149-
 mid.  surface    -5.4861E+07 -5.4574E+07 -3.4188E+08  2.1701E+05 -3.3135E+07  9.1552E+06  2.3803E-02
     150-
 mid.  surface    -4.8987E+08 -4.9447E+08 -7.3790E+08  8.5595E+06 -8.5473E+07 -1.2632E+06  2.4876E-02
     164-
 mid.  surface    -1.5645E+08 -1.6491E+08 -4.3906E+08  7.8492E+05 -1.0123E+07 -5.5146E+06  4.8343E-02
     165-
 mid.  surface    -4.5068E+07 -4.3258E+07 -3.1454E+08 -2.2537E+05 -4.6787E+07 -1.2174E+07  2.6999E-02
     166-
 mid.  surface    -2.6641E+08 -2.6929E+08 -4.6779E+08  8.8929E+06 -9.6960E+07 -2.1874E+07  2.4666E-02



 n o d a l  s t r a i n  c a l c u l a t i o n s   f o r   t i m e  s t e p      712   ( at time 6.62612E+00 )

 node (global)
          strain       eps-xx      eps-yy      eps-zz      eps-xy      eps-yz      eps-zx       
       1-
 mid.  surface     1.2443E-02  2.2704E-02 -3.6254E-02  8.1258E-03 -3.1260E-03  1.1152E-02
       2-
 mid.  surface     1.2109E-02  2.5826E-02 -5.8820E-02  3.9022E-03 -8.3711E-05  1.5240E-02
       8-
 mid.  surface     1.6685E-02  2.3393E-02 -3.8964E-02 -3.0157E-03 -2.9814E-04 -9.7257E-05
       9-
 mid.  surface     2.4429E-02  2.2600E-02 -5.1862E-02 -3.6394E-03 -4.1100E-04  2.9987E-04
      10-
 mid.  surface     2.4930E-02  2.0178E-02 -4.8252E-02  2.6615E-03 -1.0083E-02 -1.9426E-04
      11-
 mid.  surface     2.3022E-02  2.1914E-02 -4.2129E-02  2.7643E-03 -2.5242E-02 -7.6242E-03
      12-
 mid.  surface     1.9651E-02  2.1987E-02 -3.4498E-02  1.8133E-03 -2.3931E-02 -1.1478E-02
      17-
 mid.  surface     2.1208E-02  2.3904E-02 -4.0619E-02  3.3126E-03 -2.1559E-02 -1.2205E-02
      18-
 mid.  surface     1.8735E-02  2.2378E-02 -3.9917E-02  2.8044E-03 -6.8653E-03 -3.8320E-03
      19-
 mid.  surface     2.0020E-02  2.3718E-02 -4.9743E-02  6.9666E-04 -1.5840E-02 -1.2259E-02
      20-
 mid.  surface     2.3697E-02  2.0047E-02 -3.9520E-02  4.7069E-03  2.7499E-03  7.5509E-04
      21-
 mid.  surface     2.0709E-02  2.1283E-02 -4.5322E-02  2.1304E-03 -1.4850E-03 -1.8569E-04
      22-
 mid.  surface     2.0736E-02  2.1397E-02 -3.4892E-02  3.2371E-03 -5.4996E-03 -4.0824E-03
      23-
 mid.  surface     2.4336E-02  2.0883E-02 -4.1250E-02  3.9132E-03  1.8569E-03 -1.4017E-03
      24-
 mid.  surface     1.4435E-02  1.4805E-02 -3.1976E-02  6.5766E-04 -4.6287E-03 -1.6420E-03
      25-
 mid.  surface     1.8738E-02  1.2793E-02 -3.2950E-02 -1.2928E-04 -6.0956E-03 -2.0392E-03
      26-
 mid.  surface     1.7859E-02  1.7054E-02 -3.2351E-02  3.9321E-03 -1.1668E-02 -9.6712E-03
      27-
 mid.  surface     1.4551E-02  1.6340E-02 -3.3232E-02  1.8353E-03 -6.0977E-03 -4.9467E-03
      28-
 mid.  surface     8.4128E-03  7.7491E-03 -2.3195E-02 -1.0828E-04 -1.0067E-02 -6.1263E-03
      29-
 mid.  surface     1.2329E-02  4.7002E-03 -2.2434E-02 -5.6644E-04 -8.5264E-03 -6.6115E-03
      30-
 mid.  surface     1.1981E-02  1.1882E-02 -2.6750E-02  3.7432E-03 -1.8162E-02 -1.3111E-02
      31-
 mid.  surface     8.0867E-03  9.9684E-03 -2.2829E-02  1.9708E-03 -1.4173E-02 -5.6683E-03
      52-
 mid.  surface     2.1407E-02  1.9323E-02 -4.5928E-02  5.4143E-04 -2.9599E-04 -1.4097E-03
      53-
 mid.  surface     1.7359E-02  2.0016E-02 -3.8347E-02  7.2639E-04  2.1560E-04 -5.2450E-04
      54-
 mid.  surface     1.4560E-02  1.6023E-02 -3.3535E-02  1.2394E-03 -7.9282E-03 -3.8653E-03
      55-
 mid.  surface     1.3645E-02  1.5362E-02 -3.1167E-02  8.0111E-04 -8.4631E-03 -3.2498E-03
      56-
 mid.  surface     6.8318E-03  8.2443E-03 -2.1222E-02  9.4698E-04 -1.3507E-02 -3.8804E-03
      57-
 mid.  surface     8.0817E-03  7.9165E-03 -2.4177E-02 -8.7768E-04 -1.3341E-02 -4.8843E-03
     124-
 mid.  surface     1.1516E-02  2.2292E-02 -5.0731E-02  1.4086E-03  1.0912E-02 -1.0347E-02
     125-
 mid.  surface     1.2581E-02  1.7732E-02 -3.4905E-02  3.5595E-03  1.9906E-02 -1.4030E-02
     126-
 mid.  surface     1.5217E-02  8.9212E-03 -2.8883E-02 -8.8854E-04  1.3009E-02 -1.2905E-02
     127-
 mid.  surface     1.6238E-02  9.9761E-03 -2.9475E-02  2.3470E-03  2.7496E-02 -1.9766E-02
     128-
 mid.  surface     8.2874E-03  4.8304E-04 -1.0182E-02 -4.4063E-03  9.3789E-03 -1.7783E-02
     129-
 mid.  surface     9.0203E-03  2.9777E-03 -1.9100E-02 -2.9389E-03  2.1880E-02 -2.7644E-02
     148-
 mid.  surface     1.6057E-02  2.1132E-02 -3.7302E-02 -1.2745E-03 -3.0910E-03  1.3199E-03
     149-
 mid.  surface     1.3634E-02  1.5325E-02 -3.1184E-02 -7.4137E-05 -8.5054E-03  4.9040E-04
     150-
 mid.  surface     8.4529E-03  7.8083E-03 -2.4473E-02  8.5042E-04 -1.5136E-02 -7.1593E-04
     164-
 mid.  surface     2.1923E-02  2.0682E-02 -4.6414E-02 -1.6643E-03 -2.9935E-03 -3.3584E-03
     165-
 mid.  surface     1.5056E-02  1.5200E-02 -3.2289E-02 -5.7571E-04 -8.4206E-03 -5.5510E-03
     166-
 mid.  surface     7.9240E-03  7.4866E-03 -2.0244E-02  1.0576E-03 -1.4834E-02 -5.5843E-03



 n o d a l  s t r e s s  c a l c u l a t i o n s   f o r   t i m e  s t e p      720   ( at time 8.33339E+00 )

 node (global)
          stress       sig-xx      sig-yy      sig-zz      sig-xy      sig-yz      sig-zx       plastic
                                                                                                 strain 
       1-
 mid.  surface     1.0815E+08  1.2247E+08 -1.7893E+08  3.3849E+06 -1.3405E+07  4.2609E+07  4.0810E-02
       2-
 mid.  surface    -1.5598E+09 -1.5301E+09 -1.8446E+09  1.1053E+07 -1.1728E+07  4.7720E+07  5.3788E-02
       8-
 mid.  surface     1.9598E+08  2.1142E+08 -3.4216E+07 -4.6098E+06 -2.7214E+07 -5.5934E+06  4.5700E-02
       9-
 mid.  surface    -3.0010E+08 -3.0683E+08 -5.6337E+08 -1.2909E+07 -7.6550E+06 -2.6625E+06  7.6837E-02
      10-
 mid.  surface     3.0250E+07  1.1687E+07 -2.6377E+08  1.4896E+07 -8.8581E+07 -2.6460E+07  7.4153E-02
      11-
 mid.  surface     2.8598E+08  2.8932E+08 -4.5843E+06 -1.4881E+07 -8.2960E+07 -1.7096E+07  5.1440E-02
      12-
 mid.  surface     6.6169E+08  6.6278E+08  3.9125E+08 -1.0653E+07 -6.8629E+07 -5.8308E+06  6.5154E-02
      17-
 mid.  surface     3.4909E+08  3.8556E+08  9.2580E+07 -5.4972E+06 -9.9755E+07 -3.7328E+07  5.0871E-02
      18-
 mid.  surface     3.1811E+08  3.1618E+08  4.3605E+07  1.4893E+07 -7.9755E+07 -2.7561E+07  5.4718E-02
      19-
 mid.  surface    -4.5672E+08 -4.2199E+08 -7.0589E+08  8.4560E+06 -8.0472E+07 -3.8831E+07  7.4450E-02
      20-
 mid.  surface     8.4531E+08  8.0790E+08  4.0098E+08  3.4691E+07 -1.1121E+07 -3.7822E+06  4.8065E-02
      21-
 mid.  surface    -7.0613E+08 -6.8302E+08 -8.8098E+08  8.9420E+06  3.5210E+07 -1.3260E+07  4.4460E-02
      22-
 mid.  surface     4.9264E+08  5.2021E+08  3.2147E+08 -5.7868E+06  2.1284E+07 -9.4902E+06  4.0012E-02
      23-
 mid.  surface     9.9632E+08  9.6920E+08  5.6639E+08  2.2669E+07 -2.2282E+07 -1.4971E+07  5.6382E-02
      24-
 mid.  surface    -3.3449E+08 -3.3389E+08 -5.0106E+08  1.9126E+06 -4.5431E+07  2.9869E+07  3.8723E-02
      25-
 mid.  surface     5.6795E+08  5.1514E+08  1.4071E+07  1.0659E+07 -2.0091E+07 -9.6540E+07  6.7376E-02
      26-
 mid.  surface     1.2443E+09  1.2294E+09  6.5072E+08  2.2288E+07 -6.5764E+07 -1.5202E+08  6.3577E-02
      27-
 mid.  surface     4.2439E+08  4.2883E+08  1.0567E+08  2.7305E+06 -9.0148E+07 -5.5165E+07  5.8600E-02
      28-
 mid.  surface    -1.5312E+09 -1.5115E+09 -1.2409E+09 -1.5601E+07 -1.0538E+08  8.6483E+07  9.6937E-03
      29-
 mid.  surface    -9.2522E+08 -9.5212E+08 -9.6653E+08 -1.7888E+07 -3.1046E+07 -1.6282E+06  2.3180E-02
      30-
 mid.  surface     2.3538E+08  2.5503E+08 -1.1459E+08  1.7886E+07 -1.2164E+08 -1.6869E+08  4.4803E-02
      31-
 mid.  surface    -7.3107E+08 -7.1060E+08 -7.3269E+08 -2.8817E+06 -1.1831E+08  2.8938E+06  2.6416E-02
      52-
 mid.  surface    -2.5153E+08 -2.6517E+08 -5.5613E+08 -4.0396E+06  9.8737E+06  6.3120E+06  6.4485E-02
      53-
 mid.  surface    -1.7834E+07 -7.7558E+06 -3.0584E+08 -9.1043E+06  2.0243E+07  1.2225E+07  4.9759E-02
      54-
 mid.  surface    -8.9298E+08 -8.6811E+08 -7.9839E+08 -1.0666E+07  9.9249E+06  3.2848E+07  2.2638E-02
      55-
 mid.  surface    -8.5883E+08 -8.3871E+08 -7.7641E+08 -1.1555E+07  1.6064E+07  3.6455E+07  1.7804E-02
      56-
 mid.  surface    -4.4589E+08 -4.4081E+08 -6.3135E+08 -7.7982E+06 -9.4600E+07 -3.4040E+07  3.4829E-02
      57-
 mid.  surface    -6.1946E+08 -6.3873E+08 -8.4251E+08 -9.4715E+06 -9.3576E+07 -3.9321E+07  3.4141E-02
     124-
 mid.  surface    -1.2959E+09 -1.2560E+09 -1.5453E+09  3.3390E+06  5.0714E+07 -5.7025E+07  6.5981E-02
     125-
 mid.  surface    -1.4565E+08 -1.4627E+08 -4.3065E+08 -7.4281E+06  7.3655E+07 -5.1726E+07  3.9126E-02
     126-
 mid.  surface    -4.5356E+08 -5.1170E+08 -6.8573E+08 -9.5131E+06  1.0893E+08 -3.5266E+07  5.5556E-02
     127-
 mid.  surface     2.6381E+07  1.5252E+07 -2.1983E+08  3.4017E+07  9.6449E+07 -6.7982E+07  3.9714E-02
     128-
 mid.  surface    -3.4952E+09 -3.5691E+09 -2.4026E+09 -1.1634E+08  3.9535E+08  2.1270E+08 -5.3352E-02
     129-
 mid.  surface    -3.5950E+09 -3.5649E+09 -2.5105E+09 -8.7517E+07  3.2933E+08  1.3679E+08 -5.3329E-02
     148-
 mid.  surface     1.6595E+08  1.7732E+08 -9.3557E+07 -4.6605E+06 -2.4030E+07  1.5686E+07  4.3789E-02
     149-
 mid.  surface    -3.3743E+07 -4.3487E+07 -3.2443E+08 -1.5728E+05 -3.1364E+07  6.5013E+06  3.3998E-02
     150-
 mid.  surface    -6.1276E+08 -6.0848E+08 -8.4184E+08  1.3766E+07 -8.4591E+07  4.6994E+06  3.4850E-02
     164-
 mid.  surface    -1.5185E+08 -1.4939E+08 -4.2222E+08 -3.6347E+05 -7.2786E+06  2.5100E+06  6.3535E-02
     165-
 mid.  surface    -1.4871E+07 -1.6186E+07 -2.9083E+08  1.3978E+06 -3.2457E+07 -1.4287E+07  3.6986E-02
     166-
 mid.  surface    -3.5716E+08 -3.3977E+08 -5.4323E+08  9.2187E+06 -9.1129E+07 -1.0837E+07  3.4611E-02



 n o d a l  s t r a i n  c a l c u l a t i o n s   f o r   t i m e  s t e p      720   ( at time 8.33339E+00 )

 node (global)
          strain       eps-xx      eps-yy      eps-zz      eps-xy      eps-yz      eps-zx       
       1-
 mid.  surface     1.8693E-02  3.0317E-02 -4.8703E-02  8.0967E-03 -3.3797E-03  1.2216E-02
       2-
 mid.  surface     1.7726E-02  3.3222E-02 -7.4247E-02  4.2034E-03  3.7813E-04  1.6615E-02
       8-
 mid.  surface     2.3482E-02  3.1644E-02 -5.3688E-02 -3.1563E-03 -1.6203E-03 -6.6721E-04
       9-
 mid.  surface     3.2614E-02  3.0648E-02 -6.9270E-02 -4.5381E-03 -1.0644E-03 -2.9796E-04
      10-
 mid.  surface     3.3009E-02  2.7173E-02 -6.1633E-02  3.9158E-03 -1.5225E-02 -1.9265E-03
      11-
 mid.  surface     2.8818E-02  2.7682E-02 -5.4205E-02  1.6751E-03 -2.9819E-02 -8.0685E-03
      12-
 mid.  surface     2.6561E-02  2.9033E-02 -4.7783E-02  1.4355E-03 -2.7365E-02 -1.1441E-02
      17-
 mid.  surface     2.6161E-02  3.1658E-02 -5.4204E-02  2.8203E-03 -2.6255E-02 -1.3699E-02
      18-
 mid.  surface     2.6197E-02  2.9946E-02 -5.3206E-02  4.3207E-03 -1.0691E-02 -5.5046E-03
      19-
 mid.  surface     2.5766E-02  3.2051E-02 -6.5633E-02  1.3805E-03 -1.9180E-02 -1.3704E-02
      20-
 mid.  surface     3.2656E-02  2.7403E-02 -5.2842E-02  6.2497E-03  4.2145E-03  8.7908E-04
      21-
 mid.  surface     2.6740E-02  2.8805E-02 -5.9023E-02  3.0758E-03 -2.1394E-03 -2.0023E-03
      22-
 mid.  surface     2.6889E-02  2.9207E-02 -4.6249E-02  3.8018E-03 -6.6134E-03 -4.8863E-03
      23-
 mid.  surface     3.3413E-02  2.8427E-02 -5.4548E-02  4.9979E-03  2.3415E-03 -2.4585E-03
      24-
 mid.  surface     1.9366E-02  1.9984E-02 -4.2630E-02  3.6991E-04 -6.1103E-03 -2.0759E-03
      25-
 mid.  surface     2.5899E-02  1.7733E-02 -4.3814E-02 -3.8206E-04 -6.8863E-03 -3.1459E-03
      26-
 mid.  surface     2.4132E-02  2.2717E-02 -4.3193E-02  4.2363E-03 -1.3614E-02 -1.2592E-02
      27-
 mid.  surface     1.9438E-02  2.2242E-02 -4.4771E-02  1.4881E-03 -8.3106E-03 -6.4731E-03
      28-
 mid.  surface     1.1804E-02  1.0323E-02 -2.9045E-02 -5.1538E-05 -1.5683E-02 -9.7116E-03
      29-
 mid.  surface     1.5784E-02  7.2150E-03 -2.9087E-02 -5.7319E-04 -1.2055E-02 -1.0902E-02
      30-
 mid.  surface     1.5396E-02  1.5870E-02 -3.5609E-02  3.8268E-03 -2.3533E-02 -1.9351E-02
      31-
 mid.  surface     1.0870E-02  1.3287E-02 -2.8595E-02  2.2635E-03 -2.0161E-02 -8.2678E-03
      52-
 mid.  surface     2.8686E-02  2.5742E-02 -6.0279E-02  1.8286E-04  2.6670E-04 -8.0985E-04
      53-
 mid.  surface     2.3795E-02  2.6771E-02 -5.1546E-02  3.3020E-04  1.3372E-03  2.9456E-04
      54-
 mid.  surface     1.9388E-02  2.2717E-02 -4.5028E-02  1.4747E-03 -9.8641E-03 -5.2526E-03
      55-
 mid.  surface     1.8797E-02  2.1549E-02 -4.1699E-02  1.1586E-03 -1.1022E-02 -4.5503E-03
      56-
 mid.  surface     9.3700E-03  1.1208E-02 -2.7827E-02  5.7391E-04 -1.7879E-02 -5.7252E-03
      57-
 mid.  surface     1.1295E-02  1.0242E-02 -3.1581E-02 -1.2741E-03 -1.7941E-02 -6.8934E-03
     124-
 mid.  surface     1.7094E-02  2.9198E-02 -6.5953E-02  1.7906E-03  1.3682E-02 -1.4142E-02
     125-
 mid.  surface     1.8859E-02  2.3764E-02 -4.6236E-02  3.3369E-03  2.3580E-02 -1.7272E-02
     126-
 mid.  surface     2.1508E-02  1.2929E-02 -3.9601E-02 -6.3790E-04  1.7252E-02 -1.6068E-02
     127-
 mid.  surface     2.2389E-02  1.4361E-02 -3.9983E-02  3.6911E-03  3.4352E-02 -2.2878E-02
     128-
 mid.  surface     1.3531E-02  2.0010E-03 -1.4396E-02 -5.4968E-03  1.0745E-02 -1.9853E-02
     129-
 mid.  surface     1.3349E-02  5.4412E-03 -2.7712E-02 -4.8096E-03  2.4980E-02 -3.0718E-02
     148-
 mid.  surface     2.2269E-02  2.8235E-02 -4.9576E-02 -1.6159E-03 -5.2278E-03  2.4995E-03
     149-
 mid.  surface     1.9039E-02  2.0041E-02 -4.1133E-02 -1.8827E-04 -1.0006E-02  6.4379E-04
     150-
 mid.  surface     1.1542E-02  1.1737E-02 -3.3141E-02  1.6045E-03 -1.9111E-02 -5.1197E-04
     164-
 mid.  surface     2.8508E-02  2.7731E-02 -5.9996E-02 -1.8366E-03 -3.7114E-03 -3.2803E-03
     165-
 mid.  surface     2.0078E-02  1.9960E-02 -4.1744E-02 -5.5596E-04 -9.6951E-03 -6.7010E-03
     166-
 mid.  surface     1.0339E-02  1.1504E-02 -2.7824E-02  1.5640E-03 -1.9106E-02 -6.0596E-03



 n o d a l  s t r e s s  c a l c u l a t i o n s   f o r   t i m e  s t e p      734   ( at time 1.00407E+01 )

 node (global)
          stress       sig-xx      sig-yy      sig-zz      sig-xy      sig-yz      sig-zx       plastic
                                                                                                 strain 
       1-
 mid.  surface    -2.5004E+09 -2.4635E+09 -1.4270E+09  1.1118E+07  1.0236E+08  2.6761E+07 -8.0148E-03
       2-
 mid.  surface    -4.6244E+09 -4.6116E+09 -3.5676E+09  2.2734E+06  1.1475E+08  9.7916E+07  8.7979E-03
       8-
 mid.  surface     2.1457E+08  2.2344E+08  9.3932E+06 -1.7315E+07 -6.7546E+07  8.2285E+06  6.2082E-02
       9-
 mid.  surface    -2.4863E+08 -2.6255E+08 -4.7863E+08  3.1677E+06 -9.2336E+07  7.1531E+05  9.3792E-02
      10-
 mid.  surface     1.7453E+07  7.2760E+06 -3.0169E+08 -9.6024E+06 -9.7131E+07  4.5151E+06  8.7373E-02
      11-
 mid.  surface     2.4077E+08  2.1582E+08 -4.7455E+07 -1.8883E+07 -5.9508E+07  8.8512E+06  6.7274E-02
      12-
 mid.  surface    -4.9521E+08 -4.7205E+08 -1.0299E+08  3.7644E+06 -2.0284E+07 -2.8788E+07  4.7353E-02
      17-
 mid.  surface     2.1750E+08  1.9366E+08 -4.1293E+07 -1.5559E+07 -1.0132E+08 -4.4195E+07  6.8607E-02
      18-
 mid.  surface     3.1730E+08  3.3423E+08  4.1420E+07 -1.2028E+07 -1.3817E+08 -1.5946E+07  6.8579E-02
      19-
 mid.  surface    -2.0027E+09 -2.0064E+09 -1.6184E+09 -7.4963E+06 -1.3043E+07  9.0631E+05  5.9847E-02
      20-
 mid.  surface     4.1507E+08  4.6072E+08  3.5704E+08  2.5634E+07  2.0578E+07  1.5089E+07  5.6835E-02
      21-
 mid.  surface     2.1211E+08  2.8942E+08 -4.8026E+08  2.1534E+07  4.6899E+06 -2.9851E+07  8.2823E-02
      22-
 mid.  surface     1.4571E+09  1.4781E+09  8.6501E+08 -5.6523E+06 -4.9651E+07 -1.8464E+07  6.7924E-02
      23-
 mid.  surface     5.9868E+08  5.5525E+08  4.9412E+08  6.2706E+06  3.4022E+07  3.1557E+07  6.4966E-02
      24-
 mid.  surface     5.3869E+08  5.6509E+08 -4.9552E+07 -7.3208E+06 -1.0753E+08 -3.9938E+07  6.3077E-02
      25-
 mid.  surface     8.0625E+08  7.9713E+08  2.6520E+08  6.1479E+06  3.5197E+07 -1.5795E+08  9.3088E-02
      26-
 mid.  surface     1.1804E+09  1.1431E+09  7.2846E+08  4.2437E+06 -9.7210E+07 -9.6331E+07  7.9500E-02
      27-
 mid.  surface     9.0924E+08  8.8789E+08  2.9699E+08 -1.9383E+07 -1.3442E+08 -3.1799E+07  8.2806E-02
      28-
 mid.  surface    -2.0450E+09 -2.0097E+09 -1.5177E+09 -1.3830E+06 -1.8207E+08  1.0512E+08 -1.0278E-02
      29-
 mid.  surface    -1.0439E+09 -1.0434E+09 -1.0352E+09 -7.7081E+06 -1.0067E+08 -5.3692E+06  2.8428E-02
      30-
 mid.  surface    -1.1740E+09 -1.1621E+09 -9.0654E+08  9.5623E+06 -2.1451E+08  7.6396E+07  3.5120E-02
      31-
 mid.  surface    -1.8737E+09 -1.8097E+09 -1.3133E+09  2.1161E+06 -1.9262E+08  1.1180E+08  6.7947E-03
      52-
 mid.  surface    -7.9718E+08 -8.1179E+08 -7.7649E+08 -6.0165E+06  8.7665E+07  3.0328E+07  6.3603E-02
      53-
 mid.  surface    -5.7050E+08 -5.5024E+08 -5.3127E+08  3.4568E+06  6.9308E+07  2.7448E+07  4.7966E-02
      54-
 mid.  surface    -4.2260E+08 -4.2240E+08 -6.8815E+08 -5.0491E+06 -3.2546E+07  1.8855E+06  3.3134E-02
      55-
 mid.  surface    -3.4882E+08 -3.5541E+08 -6.3200E+08  1.6431E+06 -1.9297E+07  1.7205E+06  2.8058E-02
      56-
 mid.  surface    -4.1722E+08 -3.9632E+08 -5.7349E+08  6.1298E+06 -1.1541E+08 -2.6525E+07  4.8076E-02
      57-
 mid.  surface    -6.4058E+08 -6.5068E+08 -8.5192E+08  8.0500E+06 -1.1026E+08 -2.6838E+07  4.6543E-02
     124-
 mid.  surface     2.0612E+08  1.9457E+08 -8.7554E+08  1.4218E+07  8.2485E+07 -5.8889E+07  1.2396E-01
     125-
 mid.  surface     2.2573E+09  2.2667E+09  8.8383E+08 -5.5301E+06 -1.4130E+07 -1.0332E+08  1.0724E-01
     126-
 mid.  surface    -6.6008E+08 -7.3106E+08 -7.4868E+08 -2.1019E+06  3.1735E+08 -1.4668E+08  6.4042E-02
     127-
 mid.  surface    -3.0174E+08 -3.4083E+08 -3.1138E+08  1.9816E+07  1.7159E+08 -1.0457E+08  3.7678E-02
     128-
 mid.  surface    -3.4035E+09 -3.5223E+09 -2.6182E+09 -9.5378E+07  3.9639E+08  9.1746E+07 -8.8816E-02
     129-
 mid.  surface    -5.0514E+09 -5.1294E+09 -3.6839E+09 -7.1182E+07  2.6547E+08  3.0701E+08 -1.2305E-01
     148-
 mid.  surface     1.5916E+08  1.3561E+08 -1.0696E+08 -4.8309E+06  1.3518E+07  1.3872E+07  5.9202E-02
     149-
 mid.  surface     1.2552E+07  4.1720E+07 -2.7651E+08  1.1260E+07 -1.1699E+07  2.5057E+07  4.6094E-02
     150-
 mid.  surface    -5.9828E+08 -5.9317E+08 -8.2037E+08  1.7579E+07 -9.6484E+07  7.4694E+06  4.5417E-02
     164-
 mid.  surface    -1.9642E+08 -2.0708E+08 -4.6337E+08 -1.0221E+07  2.1571E+06 -1.6090E+05  7.8732E-02
     165-
 mid.  surface     1.6890E+07  5.0873E+07 -2.5537E+08  4.5474E+06 -2.5621E+07  1.2840E+07  4.9718E-02
     166-
 mid.  surface    -3.6878E+08 -3.7496E+08 -5.4341E+08  1.1550E+07 -1.1359E+08 -1.0193E+07  4.7008E-02



 n o d a l  s t r a i n  c a l c u l a t i o n s   f o r   t i m e  s t e p      734   ( at time 1.00407E+01 )

 node (global)
          strain       eps-xx      eps-yy      eps-zz      eps-xy      eps-yz      eps-zx       
       1-
 mid.  surface     2.9357E-02  3.9178E-02 -6.1626E-02  1.0686E-02 -4.9376E-03  1.0827E-02
       2-
 mid.  surface     2.8888E-02  4.0702E-02 -9.3129E-02  5.5118E-03  7.5775E-04  2.0232E-02
       8-
 mid.  surface     2.8857E-02  3.8984E-02 -6.6119E-02 -4.4851E-03 -4.7459E-03  8.2313E-05
       9-
 mid.  surface     3.9304E-02  3.6693E-02 -8.1289E-02 -3.7897E-03 -7.6450E-03 -2.0243E-04
      10-
 mid.  surface     4.0046E-02  3.4037E-02 -7.5929E-02  2.9177E-03 -2.0849E-02 -7.6633E-04
      11-
 mid.  surface     3.6687E-02  3.3506E-02 -6.8808E-02  5.8661E-04 -3.2772E-02 -7.1099E-03
      12-
 mid.  surface     3.5487E-02  3.7452E-02 -5.9844E-02  3.1874E-03 -3.2050E-02 -1.4645E-02
      17-
 mid.  surface     3.4310E-02  3.6705E-02 -6.9771E-02  1.4837E-03 -3.0486E-02 -1.5618E-02
      18-
 mid.  surface     3.2023E-02  3.7850E-02 -6.6996E-02  2.8984E-03 -1.7982E-02 -5.4725E-03
      19-
 mid.  surface     3.5500E-02  3.8458E-02 -8.2533E-02  1.4185E-03 -2.2084E-02 -1.3849E-02
      20-
 mid.  surface     3.8928E-02  3.7762E-02 -6.6819E-02  8.2214E-03  4.3520E-03  4.9956E-04
      21-
 mid.  surface     3.0453E-02  3.8084E-02 -7.4478E-02  3.5312E-03 -2.1466E-03 -1.3909E-03
      22-
 mid.  surface     3.2167E-02  3.7579E-02 -5.8858E-02  3.0128E-03 -8.2038E-03 -5.6091E-03
      23-
 mid.  surface     4.2193E-02  3.6643E-02 -6.8975E-02  6.2837E-03  3.4201E-03 -1.5766E-03
      24-
 mid.  surface     2.4389E-02  2.4664E-02 -5.2757E-02 -1.0519E-03 -6.9912E-03 -3.2178E-03
      25-
 mid.  surface     3.3664E-02  2.2993E-02 -5.5937E-02 -4.1644E-05 -7.2993E-03 -6.0167E-03
      26-
 mid.  surface     3.2063E-02  2.8303E-02 -5.5696E-02  4.6962E-03 -1.5238E-02 -1.5399E-02
      27-
 mid.  surface     2.3912E-02  2.7375E-02 -5.6087E-02 -3.1660E-04 -9.2500E-03 -6.6515E-03
      28-
 mid.  surface     1.4676E-02  1.3785E-02 -3.4735E-02 -1.4738E-04 -2.1669E-02 -1.3360E-02
      29-
 mid.  surface     1.9990E-02  1.1446E-02 -3.8053E-02 -5.2292E-04 -1.7125E-02 -1.6402E-02
      30-
 mid.  surface     2.0030E-02  2.0023E-02 -4.5579E-02  4.1255E-03 -2.9083E-02 -2.5469E-02
      31-
 mid.  surface     1.2713E-02  1.7111E-02 -3.4055E-02  2.1081E-03 -2.5127E-02 -1.1400E-02
      52-
 mid.  surface     3.6423E-02  3.3524E-02 -7.3759E-02  9.5197E-04  2.3907E-03 -1.5382E-03
      53-
 mid.  surface     3.0611E-02  3.5134E-02 -6.4543E-02  1.7734E-03  2.8178E-03 -2.5728E-04
      54-
 mid.  surface     2.4809E-02  2.8151E-02 -5.6705E-02  4.4570E-04 -1.0995E-02 -6.4224E-03
      55-
 mid.  surface     2.5148E-02  2.6667E-02 -5.3264E-02  6.1862E-04 -1.1468E-02 -5.6355E-03
      56-
 mid.  surface     1.2967E-02  1.6669E-02 -3.6306E-02  1.2607E-03 -2.4642E-02 -7.5226E-03
      57-
 mid.  surface     1.5599E-02  1.4847E-02 -4.0771E-02 -3.8056E-04 -2.4368E-02 -8.5769E-03
     124-
 mid.  surface     2.2668E-02  3.7478E-02 -8.3583E-02  1.8707E-03  1.8415E-02 -1.5494E-02
     125-
 mid.  surface     2.4722E-02  3.2485E-02 -6.0107E-02  1.6532E-03  2.8466E-02 -2.1289E-02
     126-
 mid.  surface     2.7317E-02  1.7806E-02 -4.9124E-02  2.1329E-04  2.2774E-02 -2.1492E-02
     127-
 mid.  surface     2.8645E-02  1.8365E-02 -4.9193E-02  5.1289E-03  4.3525E-02 -2.7745E-02
     128-
 mid.  surface     1.9336E-02  4.0918E-03 -2.0031E-02 -7.8922E-03  1.1746E-02 -1.9749E-02
     129-
 mid.  surface     1.7667E-02  6.8435E-03 -3.3920E-02 -6.9826E-03  2.9721E-02 -3.2548E-02
     148-
 mid.  surface     2.9624E-02  3.3875E-02 -6.2986E-02 -1.9164E-03 -3.9839E-03  3.0857E-03
     149-
 mid.  surface     2.4268E-02  2.7800E-02 -5.3390E-02  6.8811E-04 -1.0462E-02  2.3443E-03
     150-
 mid.  surface     1.5266E-02  1.6461E-02 -4.1373E-02  2.5764E-03 -2.4151E-02 -4.0642E-04
     164-
 mid.  surface     3.5138E-02  3.3155E-02 -7.2860E-02 -2.5719E-03 -5.2440E-03 -3.7648E-03
     165-
 mid.  surface     2.5253E-02  2.7702E-02 -5.4120E-02 -2.6959E-04 -1.1459E-02 -5.5977E-03
     166-
 mid.  surface     1.4335E-02  1.5274E-02 -3.5870E-02  2.2516E-03 -2.6210E-02 -7.0373E-03



 n o d a l  s t r e s s  c a l c u l a t i o n s   f o r   t i m e  s t e p      746   ( at time 1.17479E+01 )

 node (global)
          stress       sig-xx      sig-yy      sig-zz      sig-xy      sig-yz      sig-zx       plastic
                                                                                                 strain 
       1-
 mid.  surface    -2.1277E+09 -2.2185E+09 -1.5037E+09  3.0908E+07  8.0188E+07  2.3115E+07 -3.5422E-02
       2-
 mid.  surface    -4.1607E+09 -4.2268E+09 -3.7514E+09  4.9674E+07  7.9214E+07  7.8596E+07 -7.0478E-03
       8-
 mid.  surface     1.0739E+08  5.7722E+07 -1.1783E+08 -1.4889E+07 -1.2188E+08  1.2541E+07  8.3946E-02
       9-
 mid.  surface    -3.2778E+08 -3.8197E+08 -5.9189E+08 -1.3192E+06 -9.7685E+07  8.0549E+06  1.1292E-01
      10-
 mid.  surface     1.1655E+08  7.1405E+07 -2.1626E+08 -1.2275E+07 -9.7325E+07 -1.0314E+07  1.0088E-01
      11-
 mid.  surface     3.0510E+08  2.9703E+08  3.3374E+07 -1.5175E+07 -6.0854E+07  6.6827E+06  8.6102E-02
      12-
 mid.  surface    -1.1157E+09 -1.1092E+09 -4.9780E+08 -3.5707E+06  1.6294E+07 -3.2968E+07  1.7217E-02
      17-
 mid.  surface     4.7333E+07  4.5157E+07 -1.9004E+08 -1.5152E+07 -1.1986E+08 -2.6931E+07  9.1379E-02
      18-
 mid.  surface     2.2534E+08  2.1009E+08 -5.9273E+07 -2.2484E+07 -1.3724E+08 -1.3931E+07  8.5474E-02
      19-
 mid.  surface    -2.2263E+09 -2.2274E+09 -2.0306E+09  7.3553E+06 -1.5622E+07 -1.5566E+07  5.4438E-02
      20-
 mid.  surface     2.0324E+08  1.9896E+08  1.3713E+08  5.9686E+06  3.5837E+07 -1.1128E+07  6.8002E-02
      21-
 mid.  surface    -6.7249E+08 -5.8077E+08 -9.4718E+08  3.5195E+06  1.8841E+07 -1.0314E+07  1.0142E-01
      22-
 mid.  surface     5.7101E+08  5.9119E+08  5.9814E+08 -3.4580E+07 -2.7698E+07  8.5299E+06  6.4321E-02
      23-
 mid.  surface     5.6307E+08  5.2688E+08  4.8293E+08 -4.7074E+06  2.7593E+07  1.8848E+07  7.3757E-02
      24-
 mid.  surface     3.1715E+06  6.0745E+07 -1.7277E+08 -3.0624E+07 -3.1932E+07 -7.1316E+07  6.7081E-02
      25-
 mid.  surface     8.0306E+08  7.5548E+08  4.4708E+08  1.3560E+06  1.2397E+08 -3.2689E+07  1.1487E-01
      26-
 mid.  surface     1.2675E+09  1.1580E+09  1.0138E+09  8.3431E+06 -1.9698E+07 -2.8445E+06  8.8600E-02
      27-
 mid.  surface     2.4336E+08  2.4385E+08  3.1541E+07 -5.7506E+07 -6.5188E+07 -2.7542E+07  8.7018E-02
      28-
 mid.  surface    -2.4494E+09 -2.3126E+09 -1.8907E+09 -1.2320E+06 -1.8786E+08  1.7307E+08 -4.1616E-02
      29-
 mid.  surface    -1.0999E+09 -1.1621E+09 -1.2921E+09  3.1350E+07  1.0380E+08  8.8394E+06  3.9743E-02
      30-
 mid.  surface    -1.2281E+09 -1.3391E+09 -1.1201E+09  6.2515E+07 -4.3837E+07  2.2218E+07  3.4248E-02
      31-
 mid.  surface    -2.6812E+09 -2.5508E+09 -2.1066E+09 -4.1020E+07 -1.8691E+08  1.9493E+08 -1.8193E-02
      52-
 mid.  surface    -8.8322E+08 -8.8515E+08 -7.5194E+08 -2.7082E+06  1.0043E+08  4.3808E+07  5.8449E-02
      53-
 mid.  surface    -2.5603E+08 -2.6463E+08 -3.7531E+08  5.6160E+06  6.6250E+07  2.7977E+07  5.5453E-02
      54-
 mid.  surface    -5.3559E+08 -5.1110E+08 -7.6318E+08  8.5704E+06 -8.8847E+07 -2.3251E+06  4.2996E-02
      55-
 mid.  surface     1.9086E+08  1.7488E+08 -4.7864E+08  1.5550E+07 -8.2354E+07 -1.6951E+07  5.5852E-02
      56-
 mid.  surface    -4.1953E+08 -4.0497E+08 -5.3327E+08  1.1819E+07 -1.5448E+08 -2.1017E+07  6.3812E-02
      57-
 mid.  surface    -6.3370E+08 -6.6540E+08 -8.7214E+08  1.5754E+07 -1.3868E+08 -3.7772E+07  5.8583E-02
     124-
 mid.  surface    -4.8655E+08 -4.6552E+08 -1.1169E+09  1.1109E+07  9.2547E+07  1.4170E+07  1.6562E-01
     125-
 mid.  surface     1.2369E+09  1.2289E+09  7.1750E+08 -4.9640E+07  1.9235E+07 -2.8226E+07  1.3692E-01
     126-
 mid.  surface     6.4082E+08  6.9367E+08 -1.2650E+08 -1.3573E+07  1.3570E+08 -1.9783E+08  1.1085E-01
     127-
 mid.  surface     1.3616E+09  1.4342E+09  7.3566E+08  6.3424E+07 -5.9172E+07 -2.0307E+08  7.0132E-02
     128-
 mid.  surface     2.0771E+08  2.5428E+08 -1.5053E+09 -1.6040E+08  1.0793E+08 -4.7686E+08 -1.2670E-02
     129-
 mid.  surface    -1.4971E+09 -1.3944E+09 -2.5024E+09 -1.5723E+07 -1.2141E+08 -3.8100E+08 -8.9246E-02
     148-
 mid.  surface     2.0654E+07  3.0261E+07 -7.6381E+07 -2.6838E+06  7.9697E+07  3.4285E+07  6.8995E-02
     149-
 mid.  surface     1.1340E+09  1.1344E+09  1.1991E+08  1.8739E+07 -1.2263E+08  3.9990E+07  9.4125E-02
     150-
 mid.  surface    -6.1365E+08 -6.0491E+08 -7.9047E+08  2.1273E+07 -1.0400E+08  1.6941E+07  5.8083E-02
     164-
 mid.  surface    -1.0872E+09 -1.0579E+09 -6.7334E+08 -1.0646E+07  1.4095E+08  4.6767E+07  6.3655E-02
     165-
 mid.  surface    -1.6686E+08 -1.4055E+08 -3.5450E+08  2.8247E+06 -6.7036E+07  2.5028E+07  6.0960E-02
     166-
 mid.  surface    -3.9759E+08 -4.1221E+08 -4.7074E+08  1.3735E+07 -1.0993E+08 -7.5728E+06  6.4463E-02



 n o d a l  s t r a i n  c a l c u l a t i o n s   f o r   t i m e  s t e p      746   ( at time 1.17479E+01 )

 node (global)
          strain       eps-xx      eps-yy      eps-zz      eps-xy      eps-yz      eps-zx       
       1-
 mid.  surface     3.9542E-02  4.7253E-02 -7.5648E-02  9.2534E-03 -5.3581E-03  1.2778E-02
       2-
 mid.  surface     3.8080E-02  4.8913E-02 -1.0962E-01  4.8798E-03  1.3398E-03  2.4104E-02
       8-
 mid.  surface     3.8454E-02  4.5524E-02 -8.4256E-02 -5.4244E-03 -1.0444E-02  8.0023E-04
       9-
 mid.  surface     4.8558E-02  4.1119E-02 -9.6640E-02 -3.7908E-03 -1.4443E-02 -1.3158E-05
      10-
 mid.  surface     4.9137E-02  3.8979E-02 -8.8934E-02  2.3163E-03 -2.7947E-02 -1.1688E-03
      11-
 mid.  surface     4.5383E-02  4.2603E-02 -8.5666E-02  1.6730E-05 -3.5677E-02 -6.0304E-03
      12-
 mid.  surface     4.1197E-02  4.6143E-02 -7.3362E-02  1.1543E-03 -3.2967E-02 -1.4071E-02
      17-
 mid.  surface     4.2645E-02  4.5732E-02 -8.9616E-02  8.8276E-05 -3.4897E-02 -1.5386E-02
      18-
 mid.  surface     3.9940E-02  4.4774E-02 -8.3494E-02  1.0881E-03 -2.4388E-02 -5.4567E-03
      19-
 mid.  surface     4.0914E-02  4.6281E-02 -9.9068E-02 -4.8999E-04 -2.3928E-02 -1.4029E-02
      20-
 mid.  surface     4.8877E-02  4.6016E-02 -8.3979E-02  8.1161E-03  5.1932E-03 -1.4450E-03
      21-
 mid.  surface     3.4408E-02  4.7747E-02 -8.9599E-02  3.7977E-03 -3.8179E-03 -2.3765E-03
      22-
 mid.  surface     3.6721E-02  4.6151E-02 -6.8192E-02  2.2961E-03 -1.1133E-02 -6.6890E-03
      23-
 mid.  surface     5.1995E-02  4.4799E-02 -8.3994E-02  6.3501E-03  4.9429E-03 -1.2247E-03
      24-
 mid.  surface     2.7286E-02  3.0447E-02 -6.1701E-02 -3.0673E-03 -7.5979E-03 -2.5191E-03
      25-
 mid.  surface     4.5908E-02  2.9762E-02 -7.4194E-02 -5.3924E-04 -5.0285E-03 -7.0875E-03
      26-
 mid.  surface     4.2620E-02  3.3965E-02 -6.9018E-02  5.9869E-03 -1.6038E-02 -2.2684E-02
      27-
 mid.  surface     2.7724E-02  3.2191E-02 -6.7800E-02 -3.4777E-03 -9.0291E-03 -5.0749E-03
      28-
 mid.  surface     1.5098E-02  1.6582E-02 -3.3030E-02  1.7933E-03 -2.9873E-02 -1.6933E-02
      29-
 mid.  surface     3.1940E-02  1.5856E-02 -5.6441E-02  1.2521E-03 -2.2942E-02 -2.2202E-02
      30-
 mid.  surface     3.4245E-02  2.4201E-02 -6.5233E-02  5.6349E-03 -3.5673E-02 -3.6279E-02
      31-
 mid.  surface     1.3554E-02  2.0661E-02 -3.8719E-02  8.8472E-04 -3.1641E-02 -1.4453E-02
      52-
 mid.  surface     4.5181E-02  4.2467E-02 -8.8466E-02 -3.9796E-05  3.1826E-03 -1.2497E-03
      53-
 mid.  surface     3.9149E-02  4.4363E-02 -7.9270E-02  1.1801E-03  6.2288E-03  5.2565E-04
      54-
[...]
      31-
 mid.  surface     2.9147E-01  3.0483E-01 -5.8446E-01  7.4150E-02 -3.2481E-01 -2.6226E-01
      52-
 mid.  surface     3.9678E-01  3.2171E-01 -6.9407E-01  5.9913E-03 -4.8311E-02  7.0141E-02
      53-
 mid.  surface     3.9573E-01  3.6839E-01 -7.3283E-01 -2.6240E-02  1.7059E-01  1.1021E-01
      54-
 mid.  surface     3.7919E-01  3.4912E-01 -7.0703E-01  7.5435E-03 -1.2363E-02  5.6305E-02
      55-
 mid.  surface     3.7055E-01  3.1693E-01 -5.6964E-01 -3.0842E-02  3.4286E-01  1.4064E-01
      56-
 mid.  surface     2.9284E-01  2.8359E-01 -7.7311E-01  1.8307E-02 -6.4078E-01 -2.4266E-01
      57-
 mid.  surface     3.0455E-01  1.5065E-01 -5.2194E-01 -4.5844E-02 -1.3709E-01 -8.7014E-02
     124-
 mid.  surface     3.7220E-01  3.2797E-01 -7.5438E-01  4.6588E-03  9.7376E-02  1.4853E-01
     125-
 mid.  surface     3.6912E-01  3.8689E-01 -6.8543E-01  3.1401E-02  1.0848E-01 -8.3975E-02
     126-
 mid.  surface     2.9982E-01  2.7359E-01 -6.1258E-01 -3.2812E-02  1.3436E-01  4.5470E-02
     127-
 mid.  surface     3.0583E-01  3.2031E-01 -6.8212E-01 -5.6709E-02  1.4093E-01 -1.6165E-01
     128-
 mid.  surface     2.6750E-01  1.4091E-01 -3.8685E-01 -3.8568E-02  1.2855E-02 -2.0901E-01
     129-
 mid.  surface     2.9771E-01  2.3704E-01 -5.4386E-01 -5.7502E-02 -4.1828E-02 -2.5236E-01
     148-
 mid.  surface     4.0649E-01  4.3016E-01 -7.8279E-01 -8.7210E-03  1.6412E-01  5.3873E-02
     149-
 mid.  surface     3.9422E-01  4.6154E-01 -6.1568E-01  2.7521E-02  1.4384E-01 -4.3224E-02
     150-
 mid.  surface     2.8390E-01  4.0941E-01 -7.5997E-01 -3.5951E-02 -4.6067E-01  4.7591E-02
     164-
 mid.  surface     4.1137E-01  3.2980E-01 -8.2479E-01  2.7243E-02 -1.0838E-01  1.0316E-02
     165-
 mid.  surface     3.9211E-01  5.8913E-01 -1.0357E+00  3.8172E-02 -2.4673E-01 -6.2230E-02
     166-
 mid.  surface     2.3346E-01  5.5245E-01 -9.7100E-01 -6.2339E-02 -9.4277E-01 -9.6772E-02



 n o d a l  s t r e s s  c a l c u l a t i o n s   f o r   t i m e  s t e p     1069   ( at time 9.69364E+01 )

 node (global)
          stress       sig-xx      sig-yy      sig-zz      sig-xy      sig-yz      sig-zx       plastic
                                                                                                 strain 
       1-
 mid.  surface     1.6471E+09  1.7459E+09 -2.1818E+08  1.4694E+07 -2.0003E+07 -1.0164E+08  2.0267E+00
       2-
 mid.  surface     1.6924E+09  1.6970E+09 -3.6796E+08 -3.0454E+07 -3.1965E+07 -1.5747E+08  1.8589E+00
       8-
 mid.  surface    -6.7404E+08 -7.3887E+08  1.3462E+09  1.2740E+07 -8.4779E+07 -4.0154E+07 -1.2079E+00
       9-
 mid.  surface    -1.9454E+08 -2.6467E+08 -1.4606E+09 -2.5523E+06 -3.5231E+08 -2.9888E+07  2.0963E+00
      10-
 mid.  surface     1.0550E+09  1.0656E+09  7.5031E+08 -1.4822E+07 -2.7212E+08 -3.7047E+07  1.5835E-01
      11-
 mid.  surface    -1.8512E+09 -1.8752E+09  3.5012E+08 -3.1843E+07 -1.3154E+08  1.4495E+07 -1.6133E+00
      12-
 mid.  surface    -1.1494E+09 -1.0779E+09 -7.6203E+08  3.1658E+07 -5.4660E+06 -2.0876E+07 -7.3649E-01
      17-
 mid.  surface    -1.1229E+09 -1.1688E+09 -1.1322E+09 -1.9367E+07 -1.4637E+08 -3.9211E+06  1.4124E+00
      18-
 mid.  surface     1.0862E+09  1.0619E+09  5.6247E+08  2.6293E+07 -1.0497E+08 -3.9548E+07 -1.2730E+00
      19-
 mid.  surface    -1.7250E+09 -1.6231E+09 -1.0561E+09 -4.0508E+07 -4.2986E+07 -5.6221E+07  1.3545E+00
      20-
 mid.  surface    -4.8498E+08 -4.9844E+08 -8.8393E+08  2.0110E+07  1.3494E+08  1.1235E+07  1.3673E+00
      21-
 mid.  surface    -1.2425E+09 -1.2725E+09 -1.3792E+09 -2.7057E+07  3.6272E+07  5.6507E+07  1.6270E+00
      22-
 mid.  surface    -1.3866E+09 -1.3671E+09 -3.6509E+08  3.5690E+07  4.4539E+07  8.5709E+07 -1.4607E+00
      23-
 mid.  surface    -1.1013E+09 -1.1326E+09 -4.2996E+08  4.4427E+07  1.1264E+08  8.1266E+06 -1.0149E-01
      24-
 mid.  surface    -6.7603E+08 -6.4245E+08 -6.8447E+08 -2.1667E+07 -5.7362E+07 -9.2309E+06  1.1826E-01
      25-
 mid.  surface    -2.6963E+08 -3.2383E+08  1.1885E+08 -1.2694E+07 -1.3485E+07 -7.5523E+06  8.9050E-01
      26-
 mid.  surface    -7.6855E+08 -7.6226E+08 -7.6135E+08 -5.4718E+06 -7.2489E+07 -8.1642E+07 -7.5078E-01
      27-
 mid.  surface    -1.0661E+09 -1.1167E+09 -8.5394E+08  1.5433E+07 -7.2695E+07 -1.4839E+06 -1.6027E-01
      28-
 mid.  surface     1.3643E+09  1.3465E+09  5.1714E+08 -2.2785E+07 -5.7148E+06 -2.9484E+07  1.3325E+00
      29-
 mid.  surface    -1.0293E+09 -1.0990E+09 -1.8528E+09 -2.3354E+06  3.0564E+07 -6.6686E+07  2.8911E+00
      30-
 mid.  surface    -1.5925E+09 -1.6561E+09 -3.9808E+09 -5.8408E+07 -5.0898E+07 -1.9776E+08  1.6914E+00
      31-
 mid.  surface     8.8093E+08  7.6341E+08 -1.3285E+08 -5.4626E+06  1.4774E+07  1.7252E+07  1.3506E+00
      52-
 mid.  surface     1.5328E+09  1.5718E+09  1.5313E+09  1.6082E+07  1.7623E+08  1.4708E+07  5.2521E-01
      53-
 mid.  surface     1.2993E+09  1.3293E+09  1.0107E+09  4.0428E+07  1.8789E+08  1.8744E+07  2.4570E-01
      54-
 mid.  surface    -2.2694E+09 -2.2971E+09 -3.3129E+09  1.3002E+07 -7.0091E+07  1.4342E+07  8.6471E-01
      55-
 mid.  surface    -7.6485E+08 -7.2140E+08 -1.9398E+09  7.3527E+06 -1.2169E+08  6.7942E+06  1.3288E+00
      56-
 mid.  surface     1.6613E+09  1.5733E+09  4.6816E+08 -3.3669E+07 -8.9853E+07 -2.1464E+07  7.4739E-01
      57-
 mid.  surface     3.3844E+09  3.3935E+09  1.8711E+09 -5.3948E+07 -1.5516E+08 -1.2731E+07  1.5173E+00
     124-
 mid.  surface     1.9299E+09  1.8933E+09  7.6804E+08 -5.8673E+07 -2.7151E+07  3.9699E+07  6.2411E-01
     125-
 mid.  surface     8.6315E+08  9.4316E+08 -1.0630E+09 -2.8007E+07  3.1008E+07 -4.6623E+07 -5.8523E-01
     126-
 mid.  surface     1.2417E+09  1.2313E+09  1.2577E+09  3.9104E+07  3.1869E+07  5.3298E+07  9.1339E-01
     127-
 mid.  surface    -4.9783E+08 -3.6502E+08 -2.6280E+09 -1.3921E+07 -7.7034E+06 -1.3172E+08 -1.9621E+00
     128-
 mid.  surface    -3.0436E+08 -3.2575E+08  4.3073E+08  1.9342E+07  8.5178E+07  7.6625E+07  2.4604E+00
     129-
 mid.  surface    -3.0844E+09 -2.9538E+09 -4.2426E+09 -1.4086E+07 -7.2158E+07 -4.5305E+07 -8.9741E-01
     148-
 mid.  surface     4.4766E+08  4.6725E+08  2.2144E+09 -1.6349E+07  2.1587E+08 -1.0498E+07 -9.8035E-01
     149-
 mid.  surface    -1.2843E+09 -1.2652E+09 -1.6076E+09  2.8007E+07  5.4130E+07  1.5980E+07  9.7227E-01
     150-
 mid.  surface     2.7125E+09  2.6716E+09  2.2031E+09 -3.0460E+07 -2.1477E+07 -1.9302E+07  7.7317E-01
     164-
 mid.  surface     1.3274E+09  1.3394E+09  2.0075E+09 -2.2429E+07  1.5202E+08 -3.0990E+06  2.0943E-01
     165-
 mid.  surface    -3.0375E+09 -3.0125E+09 -3.2151E+09  2.1338E+07  1.0266E+08  1.0370E+06  7.0693E-01
     166-
 mid.  surface     6.4987E+08  6.2498E+08  1.5403E+07 -7.2728E+07  9.7964E+07 -5.2163E+07  1.1944E-01



 n o d a l  s t r a i n  c a l c u l a t i o n s   f o r   t i m e  s t e p     1069   ( at time 9.69364E+01 )

 node (global)
          strain       eps-xx      eps-yy      eps-zz      eps-xy      eps-yz      eps-zx       
       1-
 mid.  surface     3.6262E-01  4.1985E-01 -6.5099E-01  2.3489E-03 -1.5130E-02  1.2178E-02
       2-
 mid.  surface     3.9298E-01  3.8697E-01 -8.7017E-01 -2.9063E-02  5.5326E-02  1.8270E-02
       8-
 mid.  surface     4.4435E-01  4.4598E-01 -8.8627E-01  1.8008E-02 -1.1141E-01 -9.1895E-03
       9-
 mid.  surface     4.3630E-01  2.9517E-01 -8.4642E-01  6.1827E-03 -1.3142E-01 -2.7067E-02
      10-
 mid.  surface     4.0186E-01  2.4681E-01 -6.1762E-01 -1.1554E-02 -1.3043E-01 -4.5793E-03
      11-
 mid.  surface     3.6075E-01  4.0125E-01 -7.6940E-01 -1.1795E-03 -6.7074E-02  1.9970E-02
      12-
 mid.  surface     3.6606E-01  4.2030E-01 -7.8231E-01  9.6263E-03 -5.7946E-02 -2.9370E-02
      17-
 mid.  surface     3.8588E-01  4.0202E-01 -8.2471E-01 -5.0645E-02 -9.7169E-02 -2.0908E-02
      18-
 mid.  surface     4.1857E-01  3.5341E-01 -7.3539E-01 -1.6970E-02 -1.3238E-01  2.4357E-03
      19-
 mid.  surface     3.8380E-01  3.6546E-01 -8.6404E-01 -3.5143E-02 -1.3581E-02 -4.8152E-02
      20-
 mid.  surface     3.9236E-01  3.9667E-01 -8.2808E-01 -4.2599E-02 -4.4436E-03 -3.1754E-02
      21-
 mid.  surface     3.8099E-01  3.3907E-01 -8.0473E-01 -1.7042E-02  1.3998E-02 -5.4481E-02
      22-
 mid.  surface     3.6218E-01  4.1687E-01 -7.3797E-01  2.5190E-02 -2.0334E-02  4.7993E-02
      23-
 mid.  surface     3.6484E-01  4.0481E-01 -8.0899E-01 -6.8762E-04  9.8162E-02  1.5836E-02
      24-
 mid.  surface     3.9570E-01  4.0698E-01 -7.4603E-01  2.0157E-02  1.6826E-01  1.7659E-01
      25-
 mid.  surface     2.9088E-01  3.3944E-01 -6.9714E-01 -1.1346E-02  1.3108E-01  1.0747E-01
      26-
 mid.  surface     3.2292E-01  3.6624E-01 -6.8296E-01  7.5599E-03 -1.7040E-02 -2.6138E-02
      27-
 mid.  surface     4.0665E-01  3.8037E-01 -7.0145E-01  6.3088E-02  1.9175E-01  1.8793E-01
      28-
 mid.  surface     3.0257E-01  2.9262E-01 -5.5169E-01 -2.8021E-02  1.1097E-01  1.7292E-01
      29-
 mid.  surface     3.3317E-01  2.6337E-01 -5.7070E-01  1.3649E-04 -7.6666E-02 -4.8717E-03
      30-
 mid.  surface     3.4892E-01  3.1095E-01 -6.1378E-01  4.9857E-02 -4.1466E-01 -3.4150E-01
      31-
 mid.  surface     3.1249E-01  3.1536E-01 -6.2586E-01  8.1718E-02 -3.4011E-01 -2.6994E-01
      52-
 mid.  surface     4.1167E-01  3.3452E-01 -7.1383E-01  6.7005E-03 -2.7727E-02  6.9466E-02
      53-
 mid.  surface     4.1151E-01  3.8040E-01 -7.5732E-01 -2.7227E-02  1.5713E-01  1.0394E-01
      54-
 mid.  surface     3.9475E-01  3.6760E-01 -7.4311E-01  9.8569E-03  8.3401E-03  5.9160E-02
      55-
 mid.  surface     3.8642E-01  3.3104E-01 -6.0418E-01 -3.3003E-02  3.5609E-01  1.4704E-01
      56-
 mid.  surface     3.1069E-01  3.1329E-01 -8.1840E-01  2.5502E-02 -6.7197E-01 -2.6895E-01
      57-
 mid.  surface     3.1738E-01  1.7020E-01 -5.5043E-01 -4.9828E-02 -1.5117E-01 -9.5538E-02
     124-
 mid.  surface     3.8452E-01  3.4462E-01 -7.8528E-01  7.2104E-03  8.8815E-02  1.4839E-01
     125-
 mid.  surface     3.8617E-01  3.9905E-01 -7.1012E-01  3.0452E-02  1.1203E-01 -7.8478E-02
     126-
 mid.  surface     3.1646E-01  2.8616E-01 -6.5821E-01 -3.3871E-02  1.2887E-01  4.7878E-02
     127-
 mid.  surface     3.2691E-01  3.2909E-01 -7.1035E-01 -5.8684E-02  1.4106E-01 -1.6379E-01
     128-
 mid.  surface     2.7989E-01  1.5417E-01 -4.3652E-01 -3.9088E-02  1.1605E-02 -2.3530E-01
     129-
 mid.  surface     3.1918E-01  2.5157E-01 -5.7582E-01 -5.9405E-02 -4.0613E-02 -2.4967E-01
     148-
 mid.  surface     4.2181E-01  4.4614E-01 -8.1518E-01 -8.5251E-03  1.6575E-01  4.9563E-02
     149-
 mid.  surface     4.0868E-01  4.6829E-01 -6.5056E-01  2.7413E-02  1.4586E-01 -4.2877E-02
     150-
 mid.  surface     2.9402E-01  4.0693E-01 -7.8043E-01 -4.1874E-02 -4.8236E-01  5.3537E-02
     164-
 mid.  surface     4.2727E-01  3.4678E-01 -8.5540E-01  2.7270E-02 -9.6447E-02  8.6095E-04
     165-
 mid.  surface     4.0779E-01  6.0459E-01 -1.0730E+00  4.2039E-02 -2.3775E-01 -5.7697E-02
     166-
 mid.  surface     2.4372E-01  5.7524E-01 -1.0149E+00 -6.0249E-02 -9.6096E-01 -9.9443E-02



 n o d a l  s t r e s s  c a l c u l a t i o n s   f o r   t i m e  s t e p     1080   ( at time 1.00000E+02 )

 node (global)
          stress       sig-xx      sig-yy      sig-zz      sig-xy      sig-yz      sig-zx       plastic
                                                                                                 strain 
       1-
 mid.  surface     3.5000E+09  3.6387E+09  1.2281E+09 -6.6553E+07 -5.1092E+07 -8.9994E+07  2.1675E+00
       2-
 mid.  surface     3.7058E+09  3.9231E+09  1.1310E+09 -6.1213E+07 -5.7741E+07 -1.9949E+08  2.0170E+00
       8-
 mid.  surface    -6.3656E+08 -6.4359E+08  6.0162E+08  1.1454E+08 -1.6206E+08 -8.3887E+07 -1.3084E+00
       9-
 mid.  surface     1.1990E+09  1.0598E+09 -6.1943E+08 -1.1914E+07 -3.7168E+08  7.2141E+06  2.2359E+00
      10-
 mid.  surface     2.1962E+08  2.6282E+08  1.4043E+09 -2.1514E+07 -3.5153E+08  1.2486E+07  7.1039E-02
      11-
 mid.  surface    -4.6819E+08 -4.3839E+08  7.6632E+08  6.6071E+07 -3.2548E+08 -5.2335E+07 -1.7026E+00
      12-
 mid.  surface    -1.4719E+09 -1.5894E+09 -3.3272E+08  6.5949E+07 -1.4685E+07  5.4029E+07 -8.1392E-01
      17-
 mid.  surface     5.6969E+08  5.2064E+08 -1.4903E+09 -8.3050E+06 -2.7988E+08 -1.3090E+08  1.5688E+00
      18-
 mid.  surface    -2.9847E+08 -2.4873E+08 -3.9784E+08  8.4124E+06 -1.4524E+08 -3.5278E+07 -1.2663E+00
      19-
 mid.  surface    -1.0960E+09 -1.1777E+09 -1.1931E+09  5.1815E+07 -5.3302E+07 -1.6907E+07  1.3771E+00
      20-
 mid.  surface    -1.6304E+08 -1.5357E+08 -9.6459E+08 -2.5686E+06  1.8347E+08 -1.3186E+06  1.4258E+00
      21-
 mid.  surface    -1.3777E+09 -1.4057E+09 -1.5302E+09  5.5100E+06  4.1961E+07  8.5148E+07  1.6423E+00
      22-
 mid.  surface    -1.7756E+09 -1.7648E+09 -5.9694E+08  1.9354E+07  9.4982E+07  1.0082E+08 -1.5338E+00
      23-
 mid.  surface    -8.2686E+08 -8.0788E+08 -2.2921E+08  2.5145E+07  1.9418E+08  4.9786E+07 -1.4159E-01
      24-
 mid.  surface    -7.2474E+07 -1.7438E+08 -9.2823E+08  3.2546E+07 -1.3761E+08 -6.5880E+07  1.7069E-01
      25-
 mid.  surface     2.0977E+08  1.4056E+08 -5.4261E+08  7.8216E+06 -2.9135E+07 -1.0480E+08  9.4061E-01
      26-
 mid.  surface    -1.6159E+08 -1.2657E+08 -8.9737E+08  2.1967E+07  2.8620E+06 -1.9448E+08 -6.7763E-01
      27-
 mid.  surface    -1.3729E+09 -1.4500E+09 -1.2789E+09  1.0299E+08 -2.0956E+07  5.0976E+06 -1.4426E-01
      28-
 mid.  surface     2.5732E+09  2.5178E+09  9.9633E+08 -1.5623E+08 -1.1141E+08 -1.4001E+07  1.3986E+00
      29-
 mid.  surface     3.0764E+08  2.7647E+08 -1.1847E+09 -1.0972E+08 -7.8830E+07 -1.2839E+08  2.9736E+00
      30-
 mid.  surface    -7.7994E+08 -6.3494E+08 -2.2598E+09 -8.4991E+07 -2.5437E+07 -2.7717E+08  1.8107E+00
      31-
 mid.  surface     6.9525E+08  6.7837E+08  4.9482E+08  2.4670E+06  4.2478E+07  7.3254E+07  1.3569E+00
      52-
 mid.  surface    -1.8230E+08 -9.2118E+07  1.0157E+09 -5.1162E+07  2.4527E+08  9.2928E+07  4.4692E-01
      53-
 mid.  surface    -1.5287E+08 -7.2110E+07  1.9086E+08 -3.5275E+07  2.9499E+08  3.0542E+07  2.2767E-01
      54-
 mid.  surface    -2.1917E+09 -2.2650E+09 -3.0624E+09  4.0763E+05 -1.0428E+08 -1.7347E+06  9.2986E-01
      55-
 mid.  surface    -2.3075E+08 -2.8465E+08 -1.3204E+09  3.2867E+07 -1.6108E+08 -4.9324E+07  1.4104E+00
      56-
 mid.  surface     1.9811E+09  1.8296E+09  7.5296E+08 -6.5433E+07 -9.9189E+07 -1.0323E+07  8.2626E-01
      57-
 mid.  surface     4.1454E+09  4.0344E+09  2.5788E+09 -3.9585E+07 -1.7701E+08 -6.7617E+07  1.6223E+00
     124-
 mid.  surface     1.5115E+09  1.6073E+09  1.1663E+09 -5.5519E+07  2.4110E+06  1.1783E+08  6.3326E-01
     125-
 mid.  surface     8.0933E+08  8.8508E+08  4.3519E+07 -6.7755E+07  5.3636E+07 -5.8033E+06 -5.4383E-01
     126-
 mid.  surface    -2.1802E+08 -2.7045E+08  7.1407E+08  3.5977E+07  7.8467E+07  1.5026E+08  8.3349E-01
     127-
 mid.  surface    -6.4805E+08 -5.6184E+08 -1.8703E+09 -7.7058E+07  1.5933E+07 -4.7082E+07 -1.8758E+00
     128-
 mid.  surface    -3.5579E+08 -4.3638E+08  3.4479E+08  8.0542E+07  1.1288E+08  2.2301E+07  2.4262E+00
     129-
 mid.  surface    -1.9493E+09 -1.8894E+09 -3.1984E+09 -2.8930E+07 -1.0268E+08 -1.0361E+07 -7.8000E-01
     148-
 mid.  surface    -6.7522E+08 -5.9083E+08  8.5786E+08  3.8195E+06  2.2626E+08 -3.9694E+07 -1.0894E+00
     149-
 mid.  surface    -7.9151E+08 -7.8056E+08 -1.1201E+09  4.4013E+07  8.5037E+07  1.7469E+07  9.9834E-01
     150-
 mid.  surface     3.2347E+09  3.1984E+09  2.7065E+09 -2.1189E+07 -2.4831E+07 -1.2511E+07  8.0914E-01
     164-
 mid.  surface     4.2971E+08  4.8965E+08  1.4536E+09 -5.4242E+07  1.3593E+08 -7.6323E+04  1.3825E-01
     165-
 mid.  surface    -2.5613E+09 -2.5018E+09 -2.7243E+09 -9.8944E+06  1.5163E+08  1.1976E+07  7.1340E-01
     166-
 mid.  surface     9.5212E+08  9.5855E+08  3.3003E+08 -1.6174E+08  1.0465E+08 -4.5129E+06  1.4168E-01



 n o d a l  s t r a i n  c a l c u l a t i o n s   f o r   t i m e  s t e p     1080   ( at time 1.00000E+02 )

 node (global)
          strain       eps-xx      eps-yy      eps-zz      eps-xy      eps-yz      eps-zx       
       1-
 mid.  surface     3.6908E-01  4.3313E-01 -6.4704E-01  1.0291E-03 -1.2303E-02 -1.7906E-03
       2-
 mid.  surface     4.0319E-01  4.0153E-01 -9.1292E-01 -3.2568E-02  5.7905E-02  9.5569E-03
       8-
 mid.  surface     4.6279E-01  4.5040E-01 -9.1967E-01  1.8732E-02 -1.1088E-01 -1.1113E-02
       9-
 mid.  surface     4.5505E-01  3.2078E-01 -8.9969E-01  9.9989E-04 -1.1696E-01 -3.3169E-02
      10-
 mid.  surface     4.2005E-01  2.6647E-01 -6.5087E-01 -9.5601E-03 -1.4561E-01 -2.7678E-03
      11-
 mid.  surface     3.6661E-01  4.1199E-01 -7.9149E-01 -1.0276E-02 -8.0167E-02  1.0915E-02
      12-
 mid.  surface     3.7757E-01  4.3037E-01 -8.1094E-01  3.3794E-03 -6.4770E-02 -3.3294E-02
      17-
 mid.  surface     3.9763E-01  4.1916E-01 -8.3514E-01 -5.2511E-02 -1.1744E-01 -3.0791E-02
      18-
 mid.  surface     4.4080E-01  3.6743E-01 -7.7423E-01 -9.1219E-03 -1.5772E-01 -4.9079E-03
      19-
 mid.  surface     3.9897E-01  3.8119E-01 -9.1061E-01 -3.9371E-02 -2.3237E-02 -4.0441E-02
      20-
 mid.  surface     4.1238E-01  4.0538E-01 -8.5842E-01 -4.3598E-02 -6.6713E-03 -1.8715E-02
      21-
 mid.  surface     3.9930E-01  3.5421E-01 -8.4393E-01 -1.4307E-02  1.5218E-02 -5.1851E-02
      22-
 mid.  surface     3.7618E-01  4.3226E-01 -7.5419E-01  2.5720E-02 -2.3034E-02  5.6459E-02
      23-
 mid.  surface     3.8181E-01  4.1617E-01 -8.4310E-01 -3.6659E-03  9.9001E-02 -3.9489E-04
      24-
 mid.  surface     4.1221E-01  4.1424E-01 -7.7684E-01  1.5566E-02  1.9580E-01  1.7784E-01
      25-
 mid.  surface     2.9919E-01  3.4463E-01 -6.9412E-01 -1.8176E-02  1.4225E-01  1.2880E-01
      26-
 mid.  surface     3.3481E-01  3.7973E-01 -6.8433E-01  2.9354E-03 -1.9603E-03  5.6989E-03
      27-
 mid.  surface     4.1916E-01  3.8403E-01 -7.1784E-01  6.1547E-02  2.2025E-01  2.2002E-01
      28-
 mid.  surface     3.1016E-01  2.8594E-01 -5.7856E-01 -4.4702E-02  1.1564E-01  1.7905E-01
      29-
 mid.  surface     3.4682E-01  2.7184E-01 -5.6282E-01 -4.9579E-03 -7.3530E-02  1.5045E-02
      30-
 mid.  surface     3.6255E-01  3.3912E-01 -6.4332E-01  5.8289E-02 -4.6761E-01 -3.7036E-01
      31-
 mid.  surface     3.2521E-01  3.2310E-01 -6.7432E-01  8.4076E-02 -3.4882E-01 -2.6053E-01
      52-
 mid.  surface     4.2684E-01  3.4556E-01 -7.3699E-01  2.8084E-03 -5.3513E-04  8.0503E-02
      53-
 mid.  surface     4.2752E-01  3.8865E-01 -7.6612E-01 -2.7427E-02  1.5019E-01  1.1067E-01
      54-
 mid.  surface     4.1293E-01  3.8717E-01 -7.8092E-01  1.2207E-02  4.4230E-02  6.7571E-02
      55-
 mid.  surface     4.0201E-01  3.5095E-01 -6.2535E-01 -3.6055E-02  3.8036E-01  1.5112E-01
      56-
 mid.  surface     3.2642E-01  3.5234E-01 -8.5936E-01  3.8996E-02 -6.8908E-01 -2.6956E-01
      57-
 mid.  surface     3.2793E-01  1.9573E-01 -6.0057E-01 -5.8011E-02 -1.6262E-01 -9.3324E-02
     124-
 mid.  surface     3.9350E-01  3.6299E-01 -8.1802E-01  8.3888E-03  7.6275E-02  1.7886E-01
     125-
 mid.  surface     4.0089E-01  4.1569E-01 -7.2854E-01  2.9352E-02  1.1558E-01 -9.2698E-02
     126-
 mid.  surface     3.2857E-01  3.0025E-01 -7.0741E-01 -3.7039E-02  1.1615E-01  5.3402E-02
     127-
 mid.  surface     3.4521E-01  3.4267E-01 -7.5190E-01 -6.5720E-02  1.4129E-01 -1.8038E-01
     128-
 mid.  surface     3.0300E-01  1.6263E-01 -5.0001E-01 -3.6047E-02  1.2737E-03 -2.3921E-01
     129-
 mid.  surface     3.4935E-01  2.6767E-01 -6.1759E-01 -5.1636E-02 -5.1311E-02 -2.6300E-01
     148-
 mid.  surface     4.3747E-01  4.5419E-01 -8.2982E-01 -9.4783E-03  1.8498E-01  4.8147E-02
     149-
 mid.  surface     4.2290E-01  4.7821E-01 -6.5845E-01  2.6221E-02  1.6011E-01 -3.8852E-02
     150-
 mid.  surface     2.9966E-01  3.9256E-01 -7.7945E-01 -5.3832E-02 -5.0475E-01  4.8386E-02
     164-
 mid.  surface     4.4569E-01  3.5584E-01 -8.9453E-01  2.4236E-02 -4.6751E-02 -6.5929E-03
     165-
 mid.  surface     4.3026E-01  6.1950E-01 -1.1168E+00  4.9080E-02 -2.2503E-01 -7.0790E-02
     166-
 mid.  surface     2.5453E-01  5.9613E-01 -1.0548E+00 -5.5307E-02 -9.8639E-01 -1.2245E-01
