 LS-DYNA keyword deck by LS-PrePost                                      
                    ls-dyna smp d R14 R14.1.1s_1_ef50e1 date 06/16/2024

{BEGIN LEGEND}
 Entity #        Title
        1                                                                                     
        2                                                                                     
        3                                                                                     
        4                                                                                     
        5                                                                                     
        6                                                                                     
        7                                                                                     
        8                                                                                     
        9                                                                                     
       10                                                                                     
       11                                                                                     
       12                                                                                     
       13                                                                                     
       14                                                                                     
       15                                                                                     
       16                                                                                     
       17                                                                                     
       18                                                                                     
       19                                                                                     
       26                                                                                     
       27                                                                                     
       54                                                                                     
      127                                                                                     
      165                                                                                     
      220                                                                                     
      221                                                                                     
      222                                                                                     
      223                                                                                     
      248                                                                                     
      249                                                                                     
      286                                                                                     
      287                                                                                     
      288                                                                                     
      301                                                                                     
      314                                                                                     
      363                                                                                     
      364                                                                                     
      365                                                                                     
      366                                                                                     
      379                                                                                     
      404                                                                                     
      405                                                                                     
      418                                                                                     
      438                                                                                     
      439                                                                                     
      440                                                                                     
      441                                                                                     
      442                                                                                     
      443                                                                                     
      444                                                                                     
      591                                                                                     
      592                                                                                     
      595                                                                                     
      596                                                                                     
      599                                                                                     
      600                                                                                     
      603                                                                                     
      604                                                                                     
      638                                                                                     
      639                                                                                     
      641                                                                                     
      642                                                                                     
      644                                                                                     
      645                                                                                     
      647                                                                                     
      648                                                                                     
      674                                                                                     
      676                                                                                     
      678                                                                                     
      680                                                                                     
      821                                                                                     
      822                                                                                     
      823                                                                                     
      824                                                                                     
      850                                                                                     
      852                                                                                     
      854                                                                                     
      856                                                                                     
{END LEGEND}




 n o d a l   p r i n t   o u t   f o r   t i m e  s t e p       1                              ( at time 0.0000000E+00 )

 nodal point  x-disp     y-disp      z-disp      x-vel       y-vel       z-vel      x-accl      y-accl      z-accl      x-coor      y-coor      z-coor
        1  0.00000E+00 0.00000E+00 0.00000E+00 0.00000E+00 0.00000E+00 0.00000E+00 0.00000E+00 0.00000E+00 0.00000E+00 3.17500E-03 0.00000E+00-1.78000E-18
        2  0.00000E+00 0.00000E+00 0.00000E+00 0.00000E+00 0.00000E+00 0.00000E+00 0.00000E+00 0.00000E+00 0.00000E+00 2.38130E-03 0.00000E+00 0.00000E+00
        3  0.00000E+00 0.00000E+00 0.00000E+00 0.00000E+00 0.00000E+00 0.00000E+00 0.00000E+00 0.00000E+00 0.00000E+00 1.58750E-03 0.00000E+00 0.00000E+00
        4  0.00000E+00 0.00000E+00 0.00000E+00 0.00000E+00 0.00000E+00 0.00000E+00 0.00000E+00 0.00000E+00 0.00000E+00 7.93750E-04 0.00000E+00 0.00000E+00
        5  0.00000E+00 0.00000E+00 0.00000E+00 0.00000E+00 0.00000E+00 0.00000E+00 0.00000E+00 0.00000E+00 0.00000E+00 0.00000E+00 0.00000E+00 0.00000E+00
        6  0.00000E+00 0.00000E+00 0.00000E+00 0.00000E+00 0.00000E+00 0.00000E+00 0.00000E+00 0.00000E+00 0.00000E+00 4.86000E-20 7.93750E-04 0.00000E+00
        7  0.00000E+00 0.00000E+00 0.00000E+00 0.00000E+00 0.00000E+00 0.00000E+00 0.00000E+00 0.00000E+00 0.00000E+00 9.72100E-20 1.58750E-03 0.00000E+00
        8  0.00000E+00 0.00000E+00 0.00000E+00 0.00000E+00 0.00000E+00 0.00000E+00 0.00000E+00 0.00000E+00 0.00000E+00 1.45800E-19 2.38130E-03 0.00000E+00
        9  0.00000E+00 0.00000E+00 0.00000E+00 0.00000E+00 0.00000E+00 0.00000E+00 0.00000E+00 0.00000E+00 0.00000E+00 1.94400E-19 3.17500E-03 0.00000E+00
       10  0.00000E+00 0.00000E+00 0.00000E+00 0.00000E+00 0.00000E+00 0.00000E+00 0.00000E+00 0.00000E+00 0.00000E+00 1.21500E-03 2.93330E-03 0.00000E+00
       11  0.00000E+00 0.00000E+00 0.00000E+00 0.00000E+00 0.00000E+00 0.00000E+00 0.00000E+00 0.00000E+00 0.00000E+00 2.24510E-03 2.24510E-03 0.00000E+00
       12  0.00000E+00 0.00000E+00 0.00000E+00 0.00000E+00 0.00000E+00 0.00000E+00 0.00000E+00 0.00000E+00 0.00000E+00 2.93330E-03 1.21500E-03 0.00000E+00
       13  0.00000E+00 0.00000E+00 0.00000E+00 0.00000E+00 0.00000E+00 0.00000E+00 0.00000E+00 0.00000E+00 0.00000E+00 1.30830E-03 1.35190E-03 0.00000E+00
       14  0.00000E+00 0.00000E+00 0.00000E+00 0.00000E+00 0.00000E+00 0.00000E+00 0.00000E+00 0.00000E+00 0.00000E+00 1.48830E-03 7.06977E-04 0.00000E+00
       15  0.00000E+00 0.00000E+00 0.00000E+00 0.00000E+00 0.00000E+00 0.00000E+00 0.00000E+00 0.00000E+00 0.00000E+00 6.69510E-04 1.50700E-03 0.00000E+00
       16  0.00000E+00 0.00000E+00 0.00000E+00 0.00000E+00 0.00000E+00 0.00000E+00 0.00000E+00 0.00000E+00 0.00000E+00 7.53638E-04 7.82337E-04 0.00000E+00
       17  0.00000E+00 0.00000E+00 0.00000E+00 0.00000E+00 0.00000E+00 0.00000E+00 0.00000E+00 0.00000E+00 0.00000E+00 1.73630E-03 1.76750E-03 0.00000E+00
       18  0.00000E+00 0.00000E+00 0.00000E+00 0.00000E+00 0.00000E+00 0.00000E+00 0.00000E+00 0.00000E+00 0.00000E+00 9.20131E-04 2.19110E-03 0.00000E+00
       19  0.00000E+00 0.00000E+00 0.00000E+00 0.00000E+00 0.00000E+00 0.00000E+00 0.00000E+00 0.00000E+00 0.00000E+00 2.16330E-03 9.50859E-04 0.00000E+00
       26  0.00000E+00 0.00000E+00 0.00000E+00 0.00000E+00 0.00000E+00 0.00000E+00 0.00000E+00 0.00000E+00 0.00000E+00 3.15030E-03 1.31160E-03 1.88730E-03
       27  0.00000E+00 0.00000E+00 0.00000E+00 0.00000E+00 0.00000E+00 0.00000E+00 0.00000E+00 0.00000E+00 0.00000E+00 2.42050E-03 2.42360E-03 1.93700E-03
       54  0.00000E+00 0.00000E+00 0.00000E+00 0.00000E+00 0.00000E+00 0.00000E+00 0.00000E+00 0.00000E+00 0.00000E+00 1.30760E-03 3.15480E-03 1.89760E-03
      127  0.00000E+00 0.00000E+00 0.00000E+00 0.00000E+00 0.00000E+00 0.00000E+00 0.00000E+00 0.00000E+00 0.00000E+00 3.38660E-03 0.00000E+00 1.78320E-03
      165  0.00000E+00 0.00000E+00 0.00000E+00 0.00000E+00 0.00000E+00 0.00000E+00 0.00000E+00 0.00000E+00 0.00000E+00 2.39400E-19 3.38670E-03 1.78390E-03
      220  0.00000E+00 0.00000E+00 0.00000E+00 0.00000E+00 0.00000E+00 0.00000E+00 0.00000E+00 0.00000E+00 0.00000E+00 2.13900E-19 3.49250E-03 2.54000E-02
      221  0.00000E+00 0.00000E+00 0.00000E+00 0.00000E+00 0.00000E+00 0.00000E+00 0.00000E+00 0.00000E+00 0.00000E+00 1.47250E-03 3.31440E-03 2.54000E-02
      222  0.00000E+00 0.00000E+00 0.00000E+00 0.00000E+00 0.00000E+00 0.00000E+00 0.00000E+00 0.00000E+00 0.00000E+00 2.02380E-03 4.81920E-03 2.54000E-02
      223  0.00000E+00 0.00000E+00 0.00000E+00 0.00000E+00 0.00000E+00 0.00000E+00 0.00000E+00 0.00000E+00 0.00000E+00 3.20800E-19 5.23880E-03 2.54000E-02
      248  0.00000E+00 0.00000E+00 0.00000E+00 0.00000E+00 0.00000E+00 0.00000E+00 0.00000E+00 0.00000E+00 0.00000E+00 2.67340E-03 6.45320E-03 2.54000E-02
      249  0.00000E+00 0.00000E+00 0.00000E+00 0.00000E+00 0.00000E+00 0.00000E+00 0.00000E+00 0.00000E+00 0.00000E+00 4.27700E-19 6.98500E-03 2.54000E-02
      286  0.00000E+00 0.00000E+00 0.00000E+00 0.00000E+00 0.00000E+00 0.00000E+00 0.00000E+00 0.00000E+00 0.00000E+00 3.27330E-03 1.55480E-03 2.54000E-02
      287  0.00000E+00 0.00000E+00 0.00000E+00 0.00000E+00 0.00000E+00 0.00000E+00 0.00000E+00 0.00000E+00 0.00000E+00 2.87770E-03 2.97340E-03 2.54000E-02
      288  0.00000E+00 0.00000E+00 0.00000E+00 0.00000E+00 0.00000E+00 0.00000E+00 0.00000E+00 0.00000E+00 0.00000E+00 1.65770E-03 1.72080E-03 2.54000E-02
      301  0.00000E+00 0.00000E+00 0.00000E+00 0.00000E+00 0.00000E+00 0.00000E+00 0.00000E+00 0.00000E+00 0.00000E+00 3.81930E-03 3.88770E-03 2.54000E-02
      314  0.00000E+00 0.00000E+00 0.00000E+00 0.00000E+00 0.00000E+00 0.00000E+00 0.00000E+00 0.00000E+00 0.00000E+00 4.93910E-03 4.93910E-03 2.54000E-02
      363  0.00000E+00 0.00000E+00 0.00000E+00 0.00000E+00 0.00000E+00 0.00000E+00 0.00000E+00 0.00000E+00 0.00000E+00 6.45340E-03 2.67290E-03 2.54000E-02
      364  0.00000E+00 0.00000E+00 0.00000E+00 0.00000E+00 0.00000E+00 0.00000E+00 0.00000E+00 0.00000E+00 0.00000E+00 4.75810E-03 2.09120E-03 2.54000E-02
      365  0.00000E+00 0.00000E+00 0.00000E+00 0.00000E+00 0.00000E+00 0.00000E+00 0.00000E+00 0.00000E+00 0.00000E+00 5.23880E-03 0.00000E+00 2.54000E-02
      366  0.00000E+00 0.00000E+00 0.00000E+00 0.00000E+00 0.00000E+00 0.00000E+00 0.00000E+00 0.00000E+00 0.00000E+00 6.98500E-03 0.00000E+00 2.54000E-02
      379  0.00000E+00 0.00000E+00 0.00000E+00 0.00000E+00 0.00000E+00 0.00000E+00 0.00000E+00 0.00000E+00 0.00000E+00 1.06900E-19 1.74630E-03 2.54000E-02
      404  0.00000E+00 0.00000E+00 0.00000E+00 0.00000E+00 0.00000E+00 0.00000E+00 0.00000E+00 0.00000E+00 0.00000E+00 1.74630E-03 0.00000E+00 2.54000E-02
      405  0.00000E+00 0.00000E+00 0.00000E+00 0.00000E+00 0.00000E+00 0.00000E+00 0.00000E+00 0.00000E+00 0.00000E+00 0.00000E+00 0.00000E+00 2.54000E-02
      418  0.00000E+00 0.00000E+00 0.00000E+00 0.00000E+00 0.00000E+00 0.00000E+00 0.00000E+00 0.00000E+00 0.00000E+00 3.49250E-03 0.00000E+00 2.54000E-02
      438  0.00000E+00 0.00000E+00 0.00000E+00 0.00000E+00 0.00000E+00 0.00000E+00 0.00000E+00 0.00000E+00 0.00000E+00 1.27000E-02 0.00000E+00 2.54000E-02
      439  0.00000E+00 0.00000E+00 0.00000E+00 0.00000E+00 0.00000E+00 0.00000E+00 0.00000E+00 0.00000E+00 0.00000E+00 1.18836E-02 0.00000E+00 2.54000E-02
      440  0.00000E+00 0.00000E+00 0.00000E+00 0.00000E+00 0.00000E+00 0.00000E+00 0.00000E+00 0.00000E+00 0.00000E+00 1.10671E-02 0.00000E+00 2.54000E-02
      441  0.00000E+00 0.00000E+00 0.00000E+00 0.00000E+00 0.00000E+00 0.00000E+00 0.00000E+00 0.00000E+00 0.00000E+00 1.02507E-02 0.00000E+00 2.54000E-02
      442  0.00000E+00 0.00000E+00 0.00000E+00 0.00000E+00 0.00000E+00 0.00000E+00 0.00000E+00 0.00000E+00 0.00000E+00 9.43430E-03 0.00000E+00 2.54000E-02
      443  0.00000E+00 0.00000E+00 0.00000E+00 0.00000E+00 0.00000E+00 0.00000E+00 0.00000E+00 0.00000E+00 0.00000E+00 8.61790E-03 0.00000E+00 2.54000E-02
      444  0.00000E+00 0.00000E+00 0.00000E+00 0.00000E+00 0.00000E+00 0.00000E+00 0.00000E+00 0.00000E+00 0.00000E+00 7.80140E-03 0.00000E+00 2.54000E-02
      591  0.00000E+00 0.00000E+00 0.00000E+00 0.00000E+00 0.00000E+00 0.00000E+00 0.00000E+00 0.00000E+00 0.00000E+00 7.97270E-03 3.27150E-03 2.54000E-02
      592  0.00000E+00 0.00000E+00 0.00000E+00 0.00000E+00 0.00000E+00 0.00000E+00 0.00000E+00 0.00000E+00 0.00000E+00 8.73230E-03 3.57080E-03 2.54000E-02
      595  0.00000E+00 0.00000E+00 0.00000E+00 0.00000E+00 0.00000E+00 0.00000E+00 0.00000E+00 0.00000E+00 0.00000E+00 6.09600E-03 6.09150E-03 2.54000E-02
      596  0.00000E+00 0.00000E+00 0.00000E+00 0.00000E+00 0.00000E+00 0.00000E+00 0.00000E+00 0.00000E+00 0.00000E+00 6.67450E-03 6.66760E-03 2.54000E-02
      599  0.00000E+00 0.00000E+00 0.00000E+00 0.00000E+00 0.00000E+00 0.00000E+00 0.00000E+00 0.00000E+00 0.00000E+00 3.27630E-03 7.97070E-03 2.54000E-02
      600  0.00000E+00 0.00000E+00 0.00000E+00 0.00000E+00 0.00000E+00 0.00000E+00 0.00000E+00 0.00000E+00 0.00000E+00 3.57780E-03 8.72950E-03 2.54000E-02
      603  0.00000E+00 0.00000E+00 0.00000E+00 0.00000E+00 0.00000E+00 0.00000E+00 0.00000E+00 0.00000E+00 0.00000E+00 5.27700E-19 8.61790E-03 2.54000E-02
      604  0.00000E+00 0.00000E+00 0.00000E+00 0.00000E+00 0.00000E+00 0.00000E+00 0.00000E+00 0.00000E+00 0.00000E+00 5.77700E-19 9.43430E-03 2.54000E-02
      638  0.00000E+00 0.00000E+00 0.00000E+00 0.00000E+00 0.00000E+00 0.00000E+00 0.00000E+00 0.00000E+00 0.00000E+00 1.02517E-02 4.16940E-03 2.54000E-02
      639  0.00000E+00 0.00000E+00 0.00000E+00 0.00000E+00 0.00000E+00 0.00000E+00 0.00000E+00 0.00000E+00 0.00000E+00 1.10113E-02 4.46870E-03 2.54000E-02
      641  0.00000E+00 0.00000E+00 0.00000E+00 0.00000E+00 0.00000E+00 0.00000E+00 0.00000E+00 0.00000E+00 0.00000E+00 7.83140E-03 7.81990E-03 2.54000E-02
      642  0.00000E+00 0.00000E+00 0.00000E+00 0.00000E+00 0.00000E+00 0.00000E+00 0.00000E+00 0.00000E+00 0.00000E+00 8.40990E-03 8.39600E-03 2.54000E-02
      644  0.00000E+00 0.00000E+00 0.00000E+00 0.00000E+00 0.00000E+00 0.00000E+00 0.00000E+00 0.00000E+00 0.00000E+00 4.18070E-03 1.02471E-02 2.54000E-02
      645  0.00000E+00 0.00000E+00 0.00000E+00 0.00000E+00 0.00000E+00 0.00000E+00 0.00000E+00 0.00000E+00 0.00000E+00 4.48220E-03 1.10058E-02 2.54000E-02
      647  0.00000E+00 0.00000E+00 0.00000E+00 0.00000E+00 0.00000E+00 0.00000E+00 0.00000E+00 0.00000E+00 0.00000E+00 6.77700E-19 1.10671E-02 2.54000E-02
      648  0.00000E+00 0.00000E+00 0.00000E+00 0.00000E+00 0.00000E+00 0.00000E+00 0.00000E+00 0.00000E+00 0.00000E+00 7.27700E-19 1.18836E-02 2.54000E-02
      674  0.00000E+00 0.00000E+00 0.00000E+00 0.00000E+00 0.00000E+00 0.00000E+00 0.00000E+00 0.00000E+00 0.00000E+00 7.21300E-03 2.97220E-03 2.54000E-02
      676  0.00000E+00 0.00000E+00 0.00000E+00 0.00000E+00 0.00000E+00 0.00000E+00 0.00000E+00 0.00000E+00 0.00000E+00 5.51760E-03 5.51530E-03 2.54000E-02
      678  0.00000E+00 0.00000E+00 0.00000E+00 0.00000E+00 0.00000E+00 0.00000E+00 0.00000E+00 0.00000E+00 0.00000E+00 2.97480E-03 7.21200E-03 2.54000E-02
      680  0.00000E+00 0.00000E+00 0.00000E+00 0.00000E+00 0.00000E+00 0.00000E+00 0.00000E+00 0.00000E+00 0.00000E+00 4.77700E-19 7.80140E-03 2.54000E-02
      821  0.00000E+00 0.00000E+00 0.00000E+00 0.00000E+00 0.00000E+00 0.00000E+00 0.00000E+00 0.00000E+00 0.00000E+00 9.49200E-03 3.87010E-03 2.54000E-02
      822  0.00000E+00 0.00000E+00 0.00000E+00 0.00000E+00 0.00000E+00 0.00000E+00 0.00000E+00 0.00000E+00 0.00000E+00 7.25290E-03 7.24380E-03 2.54000E-02
      823  0.00000E+00 0.00000E+00 0.00000E+00 0.00000E+00 0.00000E+00 0.00000E+00 0.00000E+00 0.00000E+00 0.00000E+00 3.87930E-03 9.48830E-03 2.54000E-02
      824  0.00000E+00 0.00000E+00 0.00000E+00 0.00000E+00 0.00000E+00 0.00000E+00 0.00000E+00 0.00000E+00 0.00000E+00 6.27700E-19 1.02507E-02 2.54000E-02
      850  0.00000E+00 0.00000E+00 0.00000E+00 0.00000E+00 0.00000E+00 0.00000E+00 0.00000E+00 0.00000E+00 0.00000E+00 1.17710E-02 4.76810E-03 2.54000E-02
      852  0.00000E+00 0.00000E+00 0.00000E+00 0.00000E+00 0.00000E+00 0.00000E+00 0.00000E+00 0.00000E+00 0.00000E+00 8.98830E-03 8.97220E-03 2.54000E-02
      854  0.00000E+00 0.00000E+00 0.00000E+00 0.00000E+00 0.00000E+00 0.00000E+00 0.00000E+00 0.00000E+00 0.00000E+00 4.78370E-03 1.17646E-02 2.54000E-02
      856  0.00000E+00 0.00000E+00 0.00000E+00 0.00000E+00 0.00000E+00 0.00000E+00 0.00000E+00 0.00000E+00 0.00000E+00 7.77700E-19 1.27000E-02 2.54000E-02



 n o d a l   p r i n t   o u t   f o r   t i m e  s t e p      10                              ( at time 1.2924466E+00 )

 nodal point  x-disp     y-disp      z-disp      x-vel       y-vel       z-vel      x-accl      y-accl      z-accl      x-coor      y-coor      z-coor
        1  3.25876E-06 0.00000E+00 0.00000E+00 0.00000E+00 0.00000E+00 0.00000E+00 0.00000E+00 0.00000E+00 0.00000E+00 3.17826E-03 0.00000E+00-1.78000E-18
        2  2.09847E-06 0.00000E+00 0.00000E+00 0.00000E+00 0.00000E+00 0.00000E+00 0.00000E+00 0.00000E+00 0.00000E+00 2.38340E-03 0.00000E+00 0.00000E+00
        3  1.27746E-06 0.00000E+00 0.00000E+00 0.00000E+00 0.00000E+00 0.00000E+00 0.00000E+00 0.00000E+00 0.00000E+00 1.58878E-03 0.00000E+00 0.00000E+00
        4  6.09659E-07 0.00000E+00 0.00000E+00 0.00000E+00 0.00000E+00 0.00000E+00 0.00000E+00 0.00000E+00 0.00000E+00 7.94360E-04 0.00000E+00 0.00000E+00
        5  0.00000E+00 0.00000E+00 0.00000E+00 0.00000E+00 0.00000E+00 0.00000E+00 0.00000E+00 0.00000E+00 0.00000E+00 0.00000E+00 0.00000E+00 0.00000E+00
        6  0.00000E+00 6.15394E-07 0.00000E+00 0.00000E+00 0.00000E+00 0.00000E+00 0.00000E+00 0.00000E+00 0.00000E+00 4.86000E-20 7.94365E-04 0.00000E+00
        7  0.00000E+00 1.31633E-06 0.00000E+00 0.00000E+00 0.00000E+00 0.00000E+00 0.00000E+00 0.00000E+00 0.00000E+00 9.72100E-20 1.58882E-03 0.00000E+00
        8  0.00000E+00 2.22828E-06 0.00000E+00 0.00000E+00 0.00000E+00 0.00000E+00 0.00000E+00 0.00000E+00 0.00000E+00 1.45800E-19 2.38353E-03 0.00000E+00
        9  0.00000E+00 3.47108E-06 0.00000E+00 0.00000E+00 0.00000E+00 0.00000E+00 0.00000E+00 0.00000E+00 0.00000E+00 1.94400E-19 3.17847E-03 0.00000E+00
       10  1.22417E-06 3.20207E-06 0.00000E+00 0.00000E+00 0.00000E+00 0.00000E+00 0.00000E+00 0.00000E+00 0.00000E+00 1.21622E-03 2.93650E-03 0.00000E+00
       11  2.44233E-06 2.75952E-06 0.00000E+00 0.00000E+00 0.00000E+00 0.00000E+00 0.00000E+00 0.00000E+00 0.00000E+00 2.24754E-03 2.24786E-03 0.00000E+00
       12  3.10702E-06 1.55142E-06 0.00000E+00 0.00000E+00 0.00000E+00 0.00000E+00 0.00000E+00 0.00000E+00 0.00000E+00 2.93641E-03 1.21655E-03 0.00000E+00
       13  1.22656E-06 1.25676E-06 0.00000E+00 0.00000E+00 0.00000E+00 0.00000E+00 0.00000E+00 0.00000E+00 0.00000E+00 1.30953E-03 1.35316E-03 0.00000E+00
       14  1.27635E-06 6.31145E-07 0.00000E+00 0.00000E+00 0.00000E+00 0.00000E+00 0.00000E+00 0.00000E+00 0.00000E+00 1.48958E-03 7.07608E-04 0.00000E+00
       15  5.95037E-07 1.25082E-06 0.00000E+00 0.00000E+00 0.00000E+00 0.00000E+00 0.00000E+00 0.00000E+00 0.00000E+00 6.70105E-04 1.50825E-03 0.00000E+00
       16  6.15232E-07 6.19178E-07 0.00000E+00 0.00000E+00 0.00000E+00 0.00000E+00 0.00000E+00 0.00000E+00 0.00000E+00 7.54253E-04 7.82956E-04 0.00000E+00
       17  1.81472E-06 1.72847E-06 0.00000E+00 0.00000E+00 0.00000E+00 0.00000E+00 0.00000E+00 0.00000E+00 0.00000E+00 1.73811E-03 1.76923E-03 0.00000E+00
       18  9.11765E-07 1.99589E-06 0.00000E+00 0.00000E+00 0.00000E+00 0.00000E+00 0.00000E+00 0.00000E+00 0.00000E+00 9.21043E-04 2.19310E-03 0.00000E+00
       19  2.04300E-06 8.58035E-07 0.00000E+00 0.00000E+00 0.00000E+00 0.00000E+00 0.00000E+00 0.00000E+00 0.00000E+00 2.16534E-03 9.51717E-04 0.00000E+00
       26  2.70750E-06 1.19454E-06-8.15931E-06 0.00000E+00 0.00000E+00 0.00000E+00 0.00000E+00 0.00000E+00 0.00000E+00 3.15301E-03 1.31279E-03 1.87914E-03
       27  2.06872E-06 2.16809E-06-8.05973E-06 0.00000E+00 0.00000E+00 0.00000E+00 0.00000E+00 0.00000E+00 0.00000E+00 2.42257E-03 2.42577E-03 1.92894E-03
       54  1.08407E-06 2.68711E-06-7.71048E-06 0.00000E+00 0.00000E+00 0.00000E+00 0.00000E+00 0.00000E+00 0.00000E+00 1.30868E-03 3.15749E-03 1.88989E-03
      127  2.93002E-06 0.00000E+00-8.02463E-06 0.00000E+00 0.00000E+00 0.00000E+00 0.00000E+00 0.00000E+00 0.00000E+00 3.38953E-03 0.00000E+00 1.77518E-03
      165  0.00000E+00 2.95753E-06-7.28304E-06 0.00000E+00 0.00000E+00 0.00000E+00 0.00000E+00 0.00000E+00 0.00000E+00 2.39400E-19 3.38966E-03 1.77662E-03
      220  0.00000E+00 3.77843E-07-2.58489E-05 0.00000E+00 0.00000E+00 0.00000E+00 0.00000E+00 0.00000E+00 0.00000E+00 2.13900E-19 3.49288E-03 2.53742E-02
      221  1.01689E-07 3.18231E-07-2.58489E-05 0.00000E+00 0.00000E+00 0.00000E+00 0.00000E+00 0.00000E+00 0.00000E+00 1.47260E-03 3.31472E-03 2.53742E-02
      222  1.82316E-07 4.60455E-07-2.58489E-05 0.00000E+00 0.00000E+00 0.00000E+00 0.00000E+00 0.00000E+00 0.00000E+00 2.02398E-03 4.81966E-03 2.53742E-02
      223  0.00000E+00 5.97184E-07-2.58489E-05 0.00000E+00 0.00000E+00 0.00000E+00 0.00000E+00 0.00000E+00 0.00000E+00 3.20800E-19 5.23940E-03 2.53742E-02
      248  2.59451E-07 7.57475E-07-2.58489E-05 0.00000E+00 0.00000E+00 0.00000E+00 0.00000E+00 0.00000E+00 0.00000E+00 2.67366E-03 6.45396E-03 2.53742E-02
      249  0.00000E+00 8.76995E-07-2.58489E-05 0.00000E+00 0.00000E+00 0.00000E+00 0.00000E+00 0.00000E+00 0.00000E+00 4.27700E-19 6.98588E-03 2.53742E-02
      286  2.72628E-07 1.23192E-07-2.58489E-05 0.00000E+00 0.00000E+00 0.00000E+00 0.00000E+00 0.00000E+00 0.00000E+00 3.27357E-03 1.55492E-03 2.53742E-02
      287  2.51980E-07 3.05936E-07-2.58489E-05 0.00000E+00 0.00000E+00 0.00000E+00 0.00000E+00 0.00000E+00 0.00000E+00 2.87795E-03 2.97371E-03 2.53742E-02
      288  1.63894E-07 2.15880E-07-2.58489E-05 0.00000E+00 0.00000E+00 0.00000E+00 0.00000E+00 0.00000E+00 0.00000E+00 1.65786E-03 1.72102E-03 2.53742E-02
      301  3.61701E-07 4.43920E-07-2.58489E-05 0.00000E+00 0.00000E+00 0.00000E+00 0.00000E+00 0.00000E+00 0.00000E+00 3.81966E-03 3.88814E-03 2.53742E-02
      314  4.78517E-07 5.76136E-07-2.58489E-05 0.00000E+00 0.00000E+00 0.00000E+00 0.00000E+00 0.00000E+00 0.00000E+00 4.93958E-03 4.93968E-03 2.53742E-02
      363  6.10329E-07 3.17316E-07-2.58489E-05 0.00000E+00 0.00000E+00 0.00000E+00 0.00000E+00 0.00000E+00 0.00000E+00 6.45401E-03 2.67322E-03 2.53742E-02
      364  3.76504E-07 2.38732E-07-2.58489E-05 0.00000E+00 0.00000E+00 0.00000E+00 0.00000E+00 0.00000E+00 0.00000E+00 4.75848E-03 2.09144E-03 2.53742E-02
      365  4.82963E-07 0.00000E+00-2.58489E-05 0.00000E+00 0.00000E+00 0.00000E+00 0.00000E+00 0.00000E+00 0.00000E+00 5.23928E-03 0.00000E+00 2.53742E-02
      366  6.66778E-07 0.00000E+00-2.58489E-05 0.00000E+00 0.00000E+00 0.00000E+00 0.00000E+00 0.00000E+00 0.00000E+00 6.98567E-03 0.00000E+00 2.53742E-02
      379  0.00000E+00 1.93256E-07-2.58489E-05 0.00000E+00 0.00000E+00 0.00000E+00 0.00000E+00 0.00000E+00 0.00000E+00 1.06900E-19 1.74649E-03 2.53742E-02
      404  1.55616E-07 0.00000E+00-2.58489E-05 0.00000E+00 0.00000E+00 0.00000E+00 0.00000E+00 0.00000E+00 0.00000E+00 1.74646E-03 0.00000E+00 2.53742E-02
      405  0.00000E+00 0.00000E+00-2.58489E-05 0.00000E+00 0.00000E+00 0.00000E+00 0.00000E+00 0.00000E+00 0.00000E+00 0.00000E+00 0.00000E+00 2.53742E-02
      418  3.09467E-07 0.00000E+00-2.58489E-05 0.00000E+00 0.00000E+00 0.00000E+00 0.00000E+00 0.00000E+00 0.00000E+00 3.49281E-03 0.00000E+00 2.53742E-02
      438  9.60733E-07 0.00000E+00-2.58489E-05 0.00000E+00 0.00000E+00 0.00000E+00 0.00000E+00 0.00000E+00 0.00000E+00 1.27010E-02 0.00000E+00 2.53742E-02
      439  9.07265E-07 0.00000E+00-2.58489E-05 0.00000E+00 0.00000E+00 0.00000E+00 0.00000E+00 0.00000E+00 0.00000E+00 1.18845E-02 0.00000E+00 2.53742E-02
      440  8.61437E-07 0.00000E+00-2.58489E-05 0.00000E+00 0.00000E+00 0.00000E+00 0.00000E+00 0.00000E+00 0.00000E+00 1.10680E-02 0.00000E+00 2.53742E-02
      441  8.14964E-07 0.00000E+00-2.58489E-05 0.00000E+00 0.00000E+00 0.00000E+00 0.00000E+00 0.00000E+00 0.00000E+00 1.02515E-02 0.00000E+00 2.53742E-02
      442  7.66924E-07 0.00000E+00-2.58489E-05 0.00000E+00 0.00000E+00 0.00000E+00 0.00000E+00 0.00000E+00 0.00000E+00 9.43507E-03 0.00000E+00 2.53742E-02
      443  7.17519E-07 0.00000E+00-2.58489E-05 0.00000E+00 0.00000E+00 0.00000E+00 0.00000E+00 0.00000E+00 0.00000E+00 8.61862E-03 0.00000E+00 2.53742E-02
      444  6.71010E-07 0.00000E+00-2.58489E-05 0.00000E+00 0.00000E+00 0.00000E+00 0.00000E+00 0.00000E+00 0.00000E+00 7.80207E-03 0.00000E+00 2.53742E-02
      591  6.75547E-07 3.47393E-07-2.58489E-05 0.00000E+00 0.00000E+00 0.00000E+00 0.00000E+00 0.00000E+00 0.00000E+00 7.97338E-03 3.27185E-03 2.53742E-02
      592  7.23250E-07 3.67536E-07-2.58489E-05 0.00000E+00 0.00000E+00 0.00000E+00 0.00000E+00 0.00000E+00 0.00000E+00 8.73302E-03 3.57117E-03 2.53742E-02
      595  5.34259E-07 6.34468E-07-2.58489E-05 0.00000E+00 0.00000E+00 0.00000E+00 0.00000E+00 0.00000E+00 0.00000E+00 6.09653E-03 6.09213E-03 2.53742E-02
      596  5.73430E-07 6.74249E-07-2.58489E-05 0.00000E+00 0.00000E+00 0.00000E+00 0.00000E+00 0.00000E+00 0.00000E+00 6.67507E-03 6.66827E-03 2.53742E-02
      599  2.89061E-07 8.15773E-07-2.58489E-05 0.00000E+00 0.00000E+00 0.00000E+00 0.00000E+00 0.00000E+00 0.00000E+00 3.27659E-03 7.97152E-03 2.53742E-02
      600  3.11201E-07 8.63756E-07-2.58489E-05 0.00000E+00 0.00000E+00 0.00000E+00 0.00000E+00 0.00000E+00 0.00000E+00 3.57811E-03 8.73036E-03 2.53742E-02
      603  0.00000E+00 8.82348E-07-2.58489E-05 0.00000E+00 0.00000E+00 0.00000E+00 0.00000E+00 0.00000E+00 0.00000E+00 5.27700E-19 8.61878E-03 2.53742E-02
      604  0.00000E+00 9.28063E-07-2.58489E-05 0.00000E+00 0.00000E+00 0.00000E+00 0.00000E+00 0.00000E+00 0.00000E+00 5.77700E-19 9.43523E-03 2.53742E-02
      638  8.18670E-07 4.04688E-07-2.58489E-05 0.00000E+00 0.00000E+00 0.00000E+00 0.00000E+00 0.00000E+00 0.00000E+00 1.02525E-02 4.16980E-03 2.53742E-02
      639  8.65105E-07 4.21511E-07-2.58489E-05 0.00000E+00 0.00000E+00 0.00000E+00 0.00000E+00 0.00000E+00 0.00000E+00 1.10122E-02 4.46912E-03 2.53742E-02
      641  6.54548E-07 7.54893E-07-2.58489E-05 0.00000E+00 0.00000E+00 0.00000E+00 0.00000E+00 0.00000E+00 0.00000E+00 7.83205E-03 7.82065E-03 2.53742E-02
      642  6.94883E-07 7.94372E-07-2.58489E-05 0.00000E+00 0.00000E+00 0.00000E+00 0.00000E+00 0.00000E+00 0.00000E+00 8.41059E-03 8.39679E-03 2.53742E-02
      644  3.56730E-07 9.64626E-07-2.58489E-05 0.00000E+00 0.00000E+00 0.00000E+00 0.00000E+00 0.00000E+00 0.00000E+00 4.18106E-03 1.02481E-02 2.53742E-02
      645  3.79617E-07 1.01901E-06-2.58489E-05 0.00000E+00 0.00000E+00 0.00000E+00 0.00000E+00 0.00000E+00 0.00000E+00 4.48258E-03 1.10068E-02 2.53742E-02
      647  0.00000E+00 1.02930E-06-2.58489E-05 0.00000E+00 0.00000E+00 0.00000E+00 0.00000E+00 0.00000E+00 0.00000E+00 6.77700E-19 1.10681E-02 2.53742E-02
      648  0.00000E+00 1.09044E-06-2.58489E-05 0.00000E+00 0.00000E+00 0.00000E+00 0.00000E+00 0.00000E+00 0.00000E+00 7.27700E-19 1.18847E-02 2.53742E-02
      674  6.30311E-07 3.30435E-07-2.58489E-05 0.00000E+00 0.00000E+00 0.00000E+00 0.00000E+00 0.00000E+00 0.00000E+00 7.21363E-03 2.97253E-03 2.53742E-02
      676  4.96099E-07 6.00738E-07-2.58489E-05 0.00000E+00 0.00000E+00 0.00000E+00 0.00000E+00 0.00000E+00 0.00000E+00 5.51810E-03 5.51590E-03 2.53742E-02
      678  2.67784E-07 7.78295E-07-2.58489E-05 0.00000E+00 0.00000E+00 0.00000E+00 0.00000E+00 0.00000E+00 0.00000E+00 2.97507E-03 7.21278E-03 2.53742E-02
      680  0.00000E+00 8.57026E-07-2.58489E-05 0.00000E+00 0.00000E+00 0.00000E+00 0.00000E+00 0.00000E+00 0.00000E+00 4.77700E-19 7.80226E-03 2.53742E-02
      821  7.71017E-07 3.86831E-07-2.58489E-05 0.00000E+00 0.00000E+00 0.00000E+00 0.00000E+00 0.00000E+00 0.00000E+00 9.49277E-03 3.87049E-03 2.53742E-02
      822  6.13591E-07 7.14652E-07-2.58489E-05 0.00000E+00 0.00000E+00 0.00000E+00 0.00000E+00 0.00000E+00 0.00000E+00 7.25351E-03 7.24451E-03 2.53742E-02
      823  3.33993E-07 9.13952E-07-2.58489E-05 0.00000E+00 0.00000E+00 0.00000E+00 0.00000E+00 0.00000E+00 0.00000E+00 3.87963E-03 9.48921E-03 2.53742E-02
      824  0.00000E+00 9.78374E-07-2.58489E-05 0.00000E+00 0.00000E+00 0.00000E+00 0.00000E+00 0.00000E+00 0.00000E+00 6.27700E-19 1.02517E-02 2.53742E-02
      850  8.90752E-07 4.37354E-07-2.58489E-05 0.00000E+00 0.00000E+00 0.00000E+00 0.00000E+00 0.00000E+00 0.00000E+00 1.17719E-02 4.76854E-03 2.53742E-02
      852  6.94625E-07 8.18939E-07-2.58489E-05 0.00000E+00 0.00000E+00 0.00000E+00 0.00000E+00 0.00000E+00 0.00000E+00 8.98899E-03 8.97302E-03 2.53742E-02
      854  3.95624E-07 1.11567E-06-2.58489E-05 0.00000E+00 0.00000E+00 0.00000E+00 0.00000E+00 0.00000E+00 0.00000E+00 4.78410E-03 1.17657E-02 2.53742E-02
      856  0.00000E+00 1.23321E-06-2.58489E-05 0.00000E+00 0.00000E+00 0.00000E+00 0.00000E+00 0.00000E+00 0.00000E+00 7.77700E-19 1.27012E-02 2.53742E-02



 n o d a l   p r i n t   o u t   f o r   t i m e  s t e p     655                              ( at time 2.3042517E+00 )

 nodal point  x-disp     y-disp      z-disp      x-vel       y-vel       z-vel      x-accl      y-accl      z-accl      x-coor      y-coor      z-coor
        1  1.33535E-05 0.00000E+00 0.00000E+00 0.00000E+00 0.00000E+00 0.00000E+00 0.00000E+00 0.00000E+00 0.00000E+00 3.18835E-03 0.00000E+00-1.78000E-18
        2  9.30485E-06 0.00000E+00 0.00000E+00 0.00000E+00 0.00000E+00 0.00000E+00 0.00000E+00 0.00000E+00 0.00000E+00 2.39060E-03 0.00000E+00 0.00000E+00
        3  6.08624E-06 0.00000E+00 0.00000E+00 0.00000E+00 0.00000E+00 0.00000E+00 0.00000E+00 0.00000E+00 0.00000E+00 1.59359E-03 0.00000E+00 0.00000E+00
        4  3.07075E-06 0.00000E+00 0.00000E+00 0.00000E+00 0.00000E+00 0.00000E+00 0.00000E+00 0.00000E+00 0.00000E+00 7.96821E-04 0.00000E+00 0.00000E+00
        5  0.00000E+00 0.00000E+00 0.00000E+00 0.00000E+00 0.00000E+00 0.00000E+00 0.00000E+00 0.00000E+00 0.00000E+00 0.00000E+00 0.00000E+00 0.00000E+00
        6  0.00000E+00 2.93399E-06 0.00000E+00 0.00000E+00 0.00000E+00 0.00000E+00 0.00000E+00 0.00000E+00 0.00000E+00 4.86000E-20 7.96684E-04 0.00000E+00
        7  0.00000E+00 6.27505E-06 0.00000E+00 0.00000E+00 0.00000E+00 0.00000E+00 0.00000E+00 0.00000E+00 0.00000E+00 9.72100E-20 1.59378E-03 0.00000E+00
        8  0.00000E+00 1.02987E-05 0.00000E+00 0.00000E+00 0.00000E+00 0.00000E+00 0.00000E+00 0.00000E+00 0.00000E+00 1.45800E-19 2.39160E-03 0.00000E+00
        9  0.00000E+00 1.47471E-05 0.00000E+00 0.00000E+00 0.00000E+00 0.00000E+00 0.00000E+00 0.00000E+00 0.00000E+00 1.94400E-19 3.18975E-03 0.00000E+00
       10  6.00198E-06 1.42642E-05 0.00000E+00 0.00000E+00 0.00000E+00 0.00000E+00 0.00000E+00 0.00000E+00 0.00000E+00 1.22100E-03 2.94756E-03 0.00000E+00
       11  1.25242E-05 1.33792E-05 0.00000E+00 0.00000E+00 0.00000E+00 0.00000E+00 0.00000E+00 0.00000E+00 0.00000E+00 2.25762E-03 2.25848E-03 0.00000E+00
       12  1.53815E-05 7.48281E-06 0.00000E+00 0.00000E+00 0.00000E+00 0.00000E+00 0.00000E+00 0.00000E+00 0.00000E+00 2.94868E-03 1.22248E-03 0.00000E+00
       13  7.52357E-06 7.68107E-06 0.00000E+00 0.00000E+00 0.00000E+00 0.00000E+00 0.00000E+00 0.00000E+00 0.00000E+00 1.31582E-03 1.35958E-03 0.00000E+00
       14  7.90440E-06 4.10325E-06 0.00000E+00 0.00000E+00 0.00000E+00 0.00000E+00 0.00000E+00 0.00000E+00 0.00000E+00 1.49620E-03 7.11080E-04 0.00000E+00
       15  3.56852E-06 6.40264E-06 0.00000E+00 0.00000E+00 0.00000E+00 0.00000E+00 0.00000E+00 0.00000E+00 0.00000E+00 6.73079E-04 1.51340E-03 0.00000E+00
       16  3.81283E-06 3.14664E-06 0.00000E+00 0.00000E+00 0.00000E+00 0.00000E+00 0.00000E+00 0.00000E+00 0.00000E+00 7.57450E-04 7.85484E-04 0.00000E+00
       17  1.04438E-05 9.80752E-06 0.00000E+00 0.00000E+00 0.00000E+00 0.00000E+00 0.00000E+00 0.00000E+00 0.00000E+00 1.74674E-03 1.77731E-03 0.00000E+00
       18  4.95940E-06 9.90012E-06 0.00000E+00 0.00000E+00 0.00000E+00 0.00000E+00 0.00000E+00 0.00000E+00 0.00000E+00 9.25090E-04 2.20100E-03 0.00000E+00
       19  1.17274E-05 5.13212E-06 0.00000E+00 0.00000E+00 0.00000E+00 0.00000E+00 0.00000E+00 0.00000E+00 0.00000E+00 2.17503E-03 9.55991E-04 0.00000E+00
       26  9.86552E-06 4.14658E-06-2.11084E-05 0.00000E+00 0.00000E+00 0.00000E+00 0.00000E+00 0.00000E+00 0.00000E+00 3.16017E-03 1.31575E-03 1.86619E-03
       27  7.17419E-06 6.91788E-06-2.01664E-05 0.00000E+00 0.00000E+00 0.00000E+00 0.00000E+00 0.00000E+00 0.00000E+00 2.42767E-03 2.43052E-03 1.91683E-03
       54  3.66804E-06 8.11501E-06-1.94671E-05 0.00000E+00 0.00000E+00 0.00000E+00 0.00000E+00 0.00000E+00 0.00000E+00 1.31127E-03 3.16292E-03 1.87813E-03
      127  9.66357E-06 0.00000E+00-2.19893E-05 0.00000E+00 0.00000E+00 0.00000E+00 0.00000E+00 0.00000E+00 0.00000E+00 3.39626E-03 0.00000E+00 1.76121E-03
      165  0.00000E+00 9.06839E-06-1.83638E-05 0.00000E+00 0.00000E+00 0.00000E+00 0.00000E+00 0.00000E+00 0.00000E+00 2.39400E-19 3.39577E-03 1.76554E-03
      220  0.00000E+00 1.58854E-06-4.60850E-05 0.00000E+00 0.00000E+00 0.00000E+00 0.00000E+00 0.00000E+00 0.00000E+00 2.13900E-19 3.49409E-03 2.53539E-02
      221  1.12826E-07 9.89583E-07-4.60850E-05 0.00000E+00 0.00000E+00 0.00000E+00 0.00000E+00 0.00000E+00 0.00000E+00 1.47261E-03 3.31539E-03 2.53539E-02
      222  5.22347E-08 1.02621E-06-4.60850E-05 0.00000E+00 0.00000E+00 0.00000E+00 0.00000E+00 0.00000E+00 0.00000E+00 2.02385E-03 4.82023E-03 2.53539E-02
      223  0.00000E+00 2.22412E-06-4.60850E-05 0.00000E+00 0.00000E+00 0.00000E+00 0.00000E+00 0.00000E+00 0.00000E+00 3.20800E-19 5.24102E-03 2.53539E-02
      248  1.95867E-07 1.33418E-06-4.60850E-05 0.00000E+00 0.00000E+00 0.00000E+00 0.00000E+00 0.00000E+00 0.00000E+00 2.67360E-03 6.45453E-03 2.53539E-02
      249  0.00000E+00 2.71553E-06-4.60850E-05 0.00000E+00 0.00000E+00 0.00000E+00 0.00000E+00 0.00000E+00 0.00000E+00 4.27700E-19 6.98772E-03 2.53539E-02
      286  9.47221E-09 8.96109E-07-4.60850E-05 0.00000E+00 0.00000E+00 0.00000E+00 0.00000E+00 0.00000E+00 0.00000E+00 3.27331E-03 1.55570E-03 2.53539E-02
      287  2.29503E-07 8.91889E-07-4.60850E-05 0.00000E+00 0.00000E+00 0.00000E+00 0.00000E+00 0.00000E+00 0.00000E+00 2.87793E-03 2.97429E-03 2.53539E-02
      288 -1.22811E-07 1.06061E-06-4.60850E-05 0.00000E+00 0.00000E+00 0.00000E+00 0.00000E+00 0.00000E+00 0.00000E+00 1.65758E-03 1.72186E-03 2.53539E-02
      301  1.96255E-07 1.33847E-06-4.60850E-05 0.00000E+00 0.00000E+00 0.00000E+00 0.00000E+00 0.00000E+00 0.00000E+00 3.81950E-03 3.88904E-03 2.53539E-02
      314  5.16363E-07 1.47216E-06-4.60850E-05 0.00000E+00 0.00000E+00 0.00000E+00 0.00000E+00 0.00000E+00 0.00000E+00 4.93962E-03 4.94057E-03 2.53539E-02
      363  2.12888E-07 1.30159E-06-4.60850E-05 0.00000E+00 0.00000E+00 0.00000E+00 0.00000E+00 0.00000E+00 0.00000E+00 6.45361E-03 2.67420E-03 2.53539E-02
      364 -4.65685E-08 1.38235E-06-4.60850E-05 0.00000E+00 0.00000E+00 0.00000E+00 0.00000E+00 0.00000E+00 0.00000E+00 4.75805E-03 2.09258E-03 2.53539E-02
      365  1.13270E-06 0.00000E+00-4.60850E-05 0.00000E+00 0.00000E+00 0.00000E+00 0.00000E+00 0.00000E+00 0.00000E+00 5.23993E-03 0.00000E+00 2.53539E-02
      366  9.77884E-07 0.00000E+00-4.60850E-05 0.00000E+00 0.00000E+00 0.00000E+00 0.00000E+00 0.00000E+00 0.00000E+00 6.98598E-03 0.00000E+00 2.53539E-02
      379  0.00000E+00 1.21808E-06-4.60850E-05 0.00000E+00 0.00000E+00 0.00000E+00 0.00000E+00 0.00000E+00 0.00000E+00 1.06900E-19 1.74752E-03 2.53539E-02
      404  9.48030E-07 0.00000E+00-4.60850E-05 0.00000E+00 0.00000E+00 0.00000E+00 0.00000E+00 0.00000E+00 0.00000E+00 1.74725E-03 0.00000E+00 2.53539E-02
      405  0.00000E+00 0.00000E+00-4.60850E-05 0.00000E+00 0.00000E+00 0.00000E+00 0.00000E+00 0.00000E+00 0.00000E+00 0.00000E+00 0.00000E+00 2.53539E-02
      418  1.29458E-06 0.00000E+00-4.60850E-05 0.00000E+00 0.00000E+00 0.00000E+00 0.00000E+00 0.00000E+00 0.00000E+00 3.49379E-03 0.00000E+00 2.53539E-02
      438  1.64899E-07 0.00000E+00-4.60850E-05 0.00000E+00 0.00000E+00 0.00000E+00 0.00000E+00 0.00000E+00 0.00000E+00 1.27002E-02 0.00000E+00 2.53539E-02
      439  3.08088E-07 0.00000E+00-4.60850E-05 0.00000E+00 0.00000E+00 0.00000E+00 0.00000E+00 0.00000E+00 0.00000E+00 1.18839E-02 0.00000E+00 2.53539E-02
      440  3.30980E-07 0.00000E+00-4.60850E-05 0.00000E+00 0.00000E+00 0.00000E+00 0.00000E+00 0.00000E+00 0.00000E+00 1.10674E-02 0.00000E+00 2.53539E-02
      441  3.54160E-07 0.00000E+00-4.60850E-05 0.00000E+00 0.00000E+00 0.00000E+00 0.00000E+00 0.00000E+00 0.00000E+00 1.02511E-02 0.00000E+00 2.53539E-02
      442  3.79967E-07 0.00000E+00-4.60850E-05 0.00000E+00 0.00000E+00 0.00000E+00 0.00000E+00 0.00000E+00 0.00000E+00 9.43468E-03 0.00000E+00 2.53539E-02
      443  4.40878E-07 0.00000E+00-4.60850E-05 0.00000E+00 0.00000E+00 0.00000E+00 0.00000E+00 0.00000E+00 0.00000E+00 8.61834E-03 0.00000E+00 2.53539E-02
      444  5.59891E-07 0.00000E+00-4.60850E-05 0.00000E+00 0.00000E+00 0.00000E+00 0.00000E+00 0.00000E+00 0.00000E+00 7.80196E-03 0.00000E+00 2.53539E-02
      591  4.64659E-07 1.45017E-06-4.60850E-05 0.00000E+00 0.00000E+00 0.00000E+00 0.00000E+00 0.00000E+00 0.00000E+00 7.97316E-03 3.27295E-03 2.53539E-02
      592  5.10918E-07 1.46945E-06-4.60850E-05 0.00000E+00 0.00000E+00 0.00000E+00 0.00000E+00 0.00000E+00 0.00000E+00 8.73281E-03 3.57227E-03 2.53539E-02
      595  4.99797E-07 1.31409E-06-4.60850E-05 0.00000E+00 0.00000E+00 0.00000E+00 0.00000E+00 0.00000E+00 0.00000E+00 6.09650E-03 6.09281E-03 2.53539E-02
      596  5.76339E-07 1.28478E-06-4.60850E-05 0.00000E+00 0.00000E+00 0.00000E+00 0.00000E+00 0.00000E+00 0.00000E+00 6.67508E-03 6.66888E-03 2.53539E-02
      599  3.49550E-07 1.43026E-06-4.60850E-05 0.00000E+00 0.00000E+00 0.00000E+00 0.00000E+00 0.00000E+00 0.00000E+00 3.27665E-03 7.97213E-03 2.53539E-02
      600  4.09025E-07 1.42728E-06-4.60850E-05 0.00000E+00 0.00000E+00 0.00000E+00 0.00000E+00 0.00000E+00 0.00000E+00 3.57821E-03 8.73093E-03 2.53539E-02
      603  0.00000E+00 2.09783E-06-4.60850E-05 0.00000E+00 0.00000E+00 0.00000E+00 0.00000E+00 0.00000E+00 0.00000E+00 5.27700E-19 8.62000E-03 2.53539E-02
      604  0.00000E+00 1.92550E-06-4.60850E-05 0.00000E+00 0.00000E+00 0.00000E+00 0.00000E+00 0.00000E+00 0.00000E+00 5.77700E-19 9.43623E-03 2.53539E-02
      638  6.34167E-07 1.47577E-06-4.60850E-05 0.00000E+00 0.00000E+00 0.00000E+00 0.00000E+00 0.00000E+00 0.00000E+00 1.02523E-02 4.17088E-03 2.53539E-02
      639  6.37308E-07 1.41607E-06-4.60850E-05 0.00000E+00 0.00000E+00 0.00000E+00 0.00000E+00 0.00000E+00 0.00000E+00 1.10119E-02 4.47012E-03 2.53539E-02
      641  6.88262E-07 1.23720E-06-4.60850E-05 0.00000E+00 0.00000E+00 0.00000E+00 0.00000E+00 0.00000E+00 0.00000E+00 7.83209E-03 7.82114E-03 2.53539E-02
      642  8.38429E-07 1.31491E-06-4.60850E-05 0.00000E+00 0.00000E+00 0.00000E+00 0.00000E+00 0.00000E+00 0.00000E+00 8.41074E-03 8.39731E-03 2.53539E-02
      644  4.58583E-07 1.41761E-06-4.60850E-05 0.00000E+00 0.00000E+00 0.00000E+00 0.00000E+00 0.00000E+00 0.00000E+00 4.18116E-03 1.02485E-02 2.53539E-02
      645  3.14463E-07 1.20884E-06-4.60850E-05 0.00000E+00 0.00000E+00 0.00000E+00 0.00000E+00 0.00000E+00 0.00000E+00 4.48251E-03 1.10070E-02 2.53539E-02
      647  0.00000E+00 1.89825E-06-4.60850E-05 0.00000E+00 0.00000E+00 0.00000E+00 0.00000E+00 0.00000E+00 0.00000E+00 6.77700E-19 1.10690E-02 2.53539E-02
      648  0.00000E+00 2.38849E-06-4.60850E-05 0.00000E+00 0.00000E+00 0.00000E+00 0.00000E+00 0.00000E+00 0.00000E+00 7.27700E-19 1.18860E-02 2.53539E-02
      674  4.14822E-07 1.41270E-06-4.60850E-05 0.00000E+00 0.00000E+00 0.00000E+00 0.00000E+00 0.00000E+00 0.00000E+00 7.21341E-03 2.97361E-03 2.53539E-02
      676  4.33403E-07 1.33756E-06-4.60850E-05 0.00000E+00 0.00000E+00 0.00000E+00 0.00000E+00 0.00000E+00 0.00000E+00 5.51803E-03 5.51664E-03 2.53539E-02
      678  2.87459E-07 1.42194E-06-4.60850E-05 0.00000E+00 0.00000E+00 0.00000E+00 0.00000E+00 0.00000E+00 0.00000E+00 2.97509E-03 7.21342E-03 2.53539E-02
      680  0.00000E+00 2.30689E-06-4.60850E-05 0.00000E+00 0.00000E+00 0.00000E+00 0.00000E+00 0.00000E+00 0.00000E+00 4.77700E-19 7.80371E-03 2.53539E-02
      821  5.66578E-07 1.47884E-06-4.60850E-05 0.00000E+00 0.00000E+00 0.00000E+00 0.00000E+00 0.00000E+00 0.00000E+00 9.49257E-03 3.87158E-03 2.53539E-02
      822  6.34092E-07 1.25857E-06-4.60850E-05 0.00000E+00 0.00000E+00 0.00000E+00 0.00000E+00 0.00000E+00 0.00000E+00 7.25353E-03 7.24506E-03 2.53539E-02
      823  4.55348E-07 1.43136E-06-4.60850E-05 0.00000E+00 0.00000E+00 0.00000E+00 0.00000E+00 0.00000E+00 0.00000E+00 3.87976E-03 9.48973E-03 2.53539E-02
      824  0.00000E+00 1.83831E-06-4.60850E-05 0.00000E+00 0.00000E+00 0.00000E+00 0.00000E+00 0.00000E+00 0.00000E+00 6.27700E-19 1.02525E-02 2.53539E-02
      850  3.63790E-07 1.25934E-06-4.60850E-05 0.00000E+00 0.00000E+00 0.00000E+00 0.00000E+00 0.00000E+00 0.00000E+00 1.17714E-02 4.76936E-03 2.53539E-02
      852  5.55946E-07 1.26016E-06-4.60850E-05 0.00000E+00 0.00000E+00 0.00000E+00 0.00000E+00 0.00000E+00 0.00000E+00 8.98886E-03 8.97346E-03 2.53539E-02
      854  5.55854E-08 1.39719E-06-4.60850E-05 0.00000E+00 0.00000E+00 0.00000E+00 0.00000E+00 0.00000E+00 0.00000E+00 4.78376E-03 1.17660E-02 2.53539E-02
      856  0.00000E+00 3.56481E-06-4.60850E-05 0.00000E+00 0.00000E+00 0.00000E+00 0.00000E+00 0.00000E+00 0.00000E+00 7.77700E-19 1.27036E-02 2.53539E-02



 n o d a l   p r i n t   o u t   f o r   t i m e  s t e p     690                              ( at time 3.1619476E+00 )

 nodal point  x-disp     y-disp      z-disp      x-vel       y-vel       z-vel      x-accl      y-accl      z-accl      x-coor      y-coor      z-coor
        1  2.28993E-05 0.00000E+00 0.00000E+00 0.00000E+00 0.00000E+00 0.00000E+00 0.00000E+00 0.00000E+00 0.00000E+00 3.19790E-03 0.00000E+00-1.78000E-18
        2  1.61785E-05 0.00000E+00 0.00000E+00 0.00000E+00 0.00000E+00 0.00000E+00 0.00000E+00 0.00000E+00 0.00000E+00 2.39748E-03 0.00000E+00 0.00000E+00
        3  1.08149E-05 0.00000E+00 0.00000E+00 0.00000E+00 0.00000E+00 0.00000E+00 0.00000E+00 0.00000E+00 0.00000E+00 1.59831E-03 0.00000E+00 0.00000E+00
        4  5.56935E-06 0.00000E+00 0.00000E+00 0.00000E+00 0.00000E+00 0.00000E+00 0.00000E+00 0.00000E+00 0.00000E+00 7.99319E-04 0.00000E+00 0.00000E+00
        5  0.00000E+00 0.00000E+00 0.00000E+00 0.00000E+00 0.00000E+00 0.00000E+00 0.00000E+00 0.00000E+00 0.00000E+00 0.00000E+00 0.00000E+00 0.00000E+00
        6  0.00000E+00 5.24415E-06 0.00000E+00 0.00000E+00 0.00000E+00 0.00000E+00 0.00000E+00 0.00000E+00 0.00000E+00 4.86000E-20 7.98994E-04 0.00000E+00
        7  0.00000E+00 1.09912E-05 0.00000E+00 0.00000E+00 0.00000E+00 0.00000E+00 0.00000E+00 0.00000E+00 0.00000E+00 9.72100E-20 1.59849E-03 0.00000E+00
        8  0.00000E+00 1.77177E-05 0.00000E+00 0.00000E+00 0.00000E+00 0.00000E+00 0.00000E+00 0.00000E+00 0.00000E+00 1.45800E-19 2.39902E-03 0.00000E+00
        9  0.00000E+00 2.50385E-05 0.00000E+00 0.00000E+00 0.00000E+00 0.00000E+00 0.00000E+00 0.00000E+00 0.00000E+00 1.94400E-19 3.20004E-03 0.00000E+00
       10  1.04222E-05 2.39472E-05 0.00000E+00 0.00000E+00 0.00000E+00 0.00000E+00 0.00000E+00 0.00000E+00 0.00000E+00 1.22542E-03 2.95725E-03 0.00000E+00
       11  2.05061E-05 2.10614E-05 0.00000E+00 0.00000E+00 0.00000E+00 0.00000E+00 0.00000E+00 0.00000E+00 0.00000E+00 2.26561E-03 2.26616E-03 0.00000E+00
       12  2.52540E-05 1.18155E-05 0.00000E+00 0.00000E+00 0.00000E+00 0.00000E+00 0.00000E+00 0.00000E+00 0.00000E+00 2.95855E-03 1.22682E-03 0.00000E+00
       13  1.24699E-05 1.25399E-05 0.00000E+00 0.00000E+00 0.00000E+00 0.00000E+00 0.00000E+00 0.00000E+00 0.00000E+00 1.32077E-03 1.36444E-03 0.00000E+00
       14  1.32744E-05 6.83899E-06 0.00000E+00 0.00000E+00 0.00000E+00 0.00000E+00 0.00000E+00 0.00000E+00 0.00000E+00 1.50157E-03 7.13816E-04 0.00000E+00
       15  6.11414E-06 1.11112E-05 0.00000E+00 0.00000E+00 0.00000E+00 0.00000E+00 0.00000E+00 0.00000E+00 0.00000E+00 6.75624E-04 1.51811E-03 0.00000E+00
       16  6.53358E-06 5.58668E-06 0.00000E+00 0.00000E+00 0.00000E+00 0.00000E+00 0.00000E+00 0.00000E+00 0.00000E+00 7.60171E-04 7.87924E-04 0.00000E+00
       17  1.69475E-05 1.59649E-05 0.00000E+00 0.00000E+00 0.00000E+00 0.00000E+00 0.00000E+00 0.00000E+00 0.00000E+00 1.75325E-03 1.78346E-03 0.00000E+00
       18  8.37113E-06 1.69392E-05 0.00000E+00 0.00000E+00 0.00000E+00 0.00000E+00 0.00000E+00 0.00000E+00 0.00000E+00 9.28502E-04 2.20804E-03 0.00000E+00
       19  1.93313E-05 8.47713E-06 0.00000E+00 0.00000E+00 0.00000E+00 0.00000E+00 0.00000E+00 0.00000E+00 0.00000E+00 2.18263E-03 9.59336E-04 0.00000E+00
       26  1.68787E-05 6.85035E-06-3.19861E-05 0.00000E+00 0.00000E+00 0.00000E+00 0.00000E+00 0.00000E+00 0.00000E+00 3.16718E-03 1.31845E-03 1.85531E-03
       27  1.22633E-05 1.20843E-05-3.09879E-05 0.00000E+00 0.00000E+00 0.00000E+00 0.00000E+00 0.00000E+00 0.00000E+00 2.43276E-03 2.43568E-03 1.90601E-03
       54  6.34934E-06 1.46379E-05-3.04389E-05 0.00000E+00 0.00000E+00 0.00000E+00 0.00000E+00 0.00000E+00 0.00000E+00 1.31395E-03 3.16944E-03 1.86716E-03
      127  1.78035E-05 0.00000E+00-3.34117E-05 0.00000E+00 0.00000E+00 0.00000E+00 0.00000E+00 0.00000E+00 0.00000E+00 3.40440E-03 0.00000E+00 1.74979E-03
      165  0.00000E+00 1.64246E-05-2.88987E-05 0.00000E+00 0.00000E+00 0.00000E+00 0.00000E+00 0.00000E+00 0.00000E+00 2.39400E-19 3.40312E-03 1.75500E-03
      220  0.00000E+00 1.71207E-06-6.32390E-05 0.00000E+00 0.00000E+00 0.00000E+00 0.00000E+00 0.00000E+00 0.00000E+00 2.13900E-19 3.49421E-03 2.53368E-02
      221  1.15792E-07 9.88947E-07-6.32390E-05 0.00000E+00 0.00000E+00 0.00000E+00 0.00000E+00 0.00000E+00 0.00000E+00 1.47262E-03 3.31539E-03 2.53368E-02
      222  1.02938E-07 1.10857E-06-6.32390E-05 0.00000E+00 0.00000E+00 0.00000E+00 0.00000E+00 0.00000E+00 0.00000E+00 2.02390E-03 4.82031E-03 2.53368E-02
      223  0.00000E+00 2.44725E-06-6.32390E-05 0.00000E+00 0.00000E+00 0.00000E+00 0.00000E+00 0.00000E+00 0.00000E+00 3.20800E-19 5.24125E-03 2.53368E-02
      248  2.35066E-07 1.52347E-06-6.32390E-05 0.00000E+00 0.00000E+00 0.00000E+00 0.00000E+00 0.00000E+00 0.00000E+00 2.67364E-03 6.45472E-03 2.53368E-02
      249  0.00000E+00 2.91528E-06-6.32390E-05 0.00000E+00 0.00000E+00 0.00000E+00 0.00000E+00 0.00000E+00 0.00000E+00 4.27700E-19 6.98792E-03 2.53368E-02
      286 -8.27735E-08 6.32962E-07-6.32390E-05 0.00000E+00 0.00000E+00 0.00000E+00 0.00000E+00 0.00000E+00 0.00000E+00 3.27322E-03 1.55543E-03 2.53368E-02
      287  2.29012E-07 8.19262E-07-6.32390E-05 0.00000E+00 0.00000E+00 0.00000E+00 0.00000E+00 0.00000E+00 0.00000E+00 2.87793E-03 2.97422E-03 2.53368E-02
      288 -1.34625E-07 5.34449E-07-6.32390E-05 0.00000E+00 0.00000E+00 0.00000E+00 0.00000E+00 0.00000E+00 0.00000E+00 1.65757E-03 1.72133E-03 2.53368E-02
      301  2.32808E-07 1.30775E-06-6.32390E-05 0.00000E+00 0.00000E+00 0.00000E+00 0.00000E+00 0.00000E+00 0.00000E+00 3.81953E-03 3.88901E-03 2.53368E-02
      314  5.26996E-07 1.52486E-06-6.32390E-05 0.00000E+00 0.00000E+00 0.00000E+00 0.00000E+00 0.00000E+00 0.00000E+00 4.93963E-03 4.94062E-03 2.53368E-02
      363  2.29618E-07 1.30825E-06-6.32390E-05 0.00000E+00 0.00000E+00 0.00000E+00 0.00000E+00 0.00000E+00 0.00000E+00 6.45363E-03 2.67421E-03 2.53368E-02
      364 -7.97613E-08 1.27546E-06-6.32390E-05 0.00000E+00 0.00000E+00 0.00000E+00 0.00000E+00 0.00000E+00 0.00000E+00 4.75802E-03 2.09248E-03 2.53368E-02
      365  9.78851E-07 0.00000E+00-6.32390E-05 0.00000E+00 0.00000E+00 0.00000E+00 0.00000E+00 0.00000E+00 0.00000E+00 5.23978E-03 0.00000E+00 2.53368E-02
      366  8.71231E-07 0.00000E+00-6.32390E-05 0.00000E+00 0.00000E+00 0.00000E+00 0.00000E+00 0.00000E+00 0.00000E+00 6.98587E-03 0.00000E+00 2.53368E-02
      379  0.00000E+00 7.66457E-07-6.32390E-05 0.00000E+00 0.00000E+00 0.00000E+00 0.00000E+00 0.00000E+00 0.00000E+00 1.06900E-19 1.74707E-03 2.53368E-02
      404  7.08293E-07 0.00000E+00-6.32390E-05 0.00000E+00 0.00000E+00 0.00000E+00 0.00000E+00 0.00000E+00 0.00000E+00 1.74701E-03 0.00000E+00 2.53368E-02
      405  0.00000E+00 0.00000E+00-6.32390E-05 0.00000E+00 0.00000E+00 0.00000E+00 0.00000E+00 0.00000E+00 0.00000E+00 0.00000E+00 0.00000E+00 2.53368E-02
      418  1.02272E-06 0.00000E+00-6.32390E-05 0.00000E+00 0.00000E+00 0.00000E+00 0.00000E+00 0.00000E+00 0.00000E+00 3.49352E-03 0.00000E+00 2.53368E-02
      438  1.35428E-07 0.00000E+00-6.32390E-05 0.00000E+00 0.00000E+00 0.00000E+00 0.00000E+00 0.00000E+00 0.00000E+00 1.27001E-02 0.00000E+00 2.53368E-02
      439  2.87709E-07 0.00000E+00-6.32390E-05 0.00000E+00 0.00000E+00 0.00000E+00 0.00000E+00 0.00000E+00 0.00000E+00 1.18839E-02 0.00000E+00 2.53368E-02
      440  3.04585E-07 0.00000E+00-6.32390E-05 0.00000E+00 0.00000E+00 0.00000E+00 0.00000E+00 0.00000E+00 0.00000E+00 1.10674E-02 0.00000E+00 2.53368E-02
      441  3.24190E-07 0.00000E+00-6.32390E-05 0.00000E+00 0.00000E+00 0.00000E+00 0.00000E+00 0.00000E+00 0.00000E+00 1.02510E-02 0.00000E+00 2.53368E-02
      442  3.38331E-07 0.00000E+00-6.32390E-05 0.00000E+00 0.00000E+00 0.00000E+00 0.00000E+00 0.00000E+00 0.00000E+00 9.43464E-03 0.00000E+00 2.53368E-02
      443  3.90894E-07 0.00000E+00-6.32390E-05 0.00000E+00 0.00000E+00 0.00000E+00 0.00000E+00 0.00000E+00 0.00000E+00 8.61829E-03 0.00000E+00 2.53368E-02
      444  4.91001E-07 0.00000E+00-6.32390E-05 0.00000E+00 0.00000E+00 0.00000E+00 0.00000E+00 0.00000E+00 0.00000E+00 7.80189E-03 0.00000E+00 2.53368E-02
      591  4.60227E-07 1.42165E-06-6.32390E-05 0.00000E+00 0.00000E+00 0.00000E+00 0.00000E+00 0.00000E+00 0.00000E+00 7.97316E-03 3.27292E-03 2.53368E-02
      592  5.10617E-07 1.44136E-06-6.32390E-05 0.00000E+00 0.00000E+00 0.00000E+00 0.00000E+00 0.00000E+00 0.00000E+00 8.73281E-03 3.57224E-03 2.53368E-02
      595  5.27329E-07 1.38975E-06-6.32390E-05 0.00000E+00 0.00000E+00 0.00000E+00 0.00000E+00 0.00000E+00 0.00000E+00 6.09653E-03 6.09289E-03 2.53368E-02
      596  5.96774E-07 1.36074E-06-6.32390E-05 0.00000E+00 0.00000E+00 0.00000E+00 0.00000E+00 0.00000E+00 0.00000E+00 6.67510E-03 6.66896E-03 2.53368E-02
      599  3.80201E-07 1.58437E-06-6.32390E-05 0.00000E+00 0.00000E+00 0.00000E+00 0.00000E+00 0.00000E+00 0.00000E+00 3.27668E-03 7.97228E-03 2.53368E-02
      600  4.37727E-07 1.55997E-06-6.32390E-05 0.00000E+00 0.00000E+00 0.00000E+00 0.00000E+00 0.00000E+00 0.00000E+00 3.57824E-03 8.73106E-03 2.53368E-02
      603  0.00000E+00 2.33849E-06-6.32390E-05 0.00000E+00 0.00000E+00 0.00000E+00 0.00000E+00 0.00000E+00 0.00000E+00 5.27700E-19 8.62024E-03 2.53368E-02
      604  0.00000E+00 2.15069E-06-6.32390E-05 0.00000E+00 0.00000E+00 0.00000E+00 0.00000E+00 0.00000E+00 0.00000E+00 5.77700E-19 9.43645E-03 2.53368E-02
      638  6.35571E-07 1.44087E-06-6.32390E-05 0.00000E+00 0.00000E+00 0.00000E+00 0.00000E+00 0.00000E+00 0.00000E+00 1.02523E-02 4.17084E-03 2.53368E-02
      639  6.25067E-07 1.37801E-06-6.32390E-05 0.00000E+00 0.00000E+00 0.00000E+00 0.00000E+00 0.00000E+00 0.00000E+00 1.10119E-02 4.47008E-03 2.53368E-02
      641  7.20935E-07 1.31474E-06-6.32390E-05 0.00000E+00 0.00000E+00 0.00000E+00 0.00000E+00 0.00000E+00 0.00000E+00 7.83212E-03 7.82121E-03 2.53368E-02
      642  8.86279E-07 1.40307E-06-6.32390E-05 0.00000E+00 0.00000E+00 0.00000E+00 0.00000E+00 0.00000E+00 0.00000E+00 8.41079E-03 8.39740E-03 2.53368E-02
      644  4.84297E-07 1.51816E-06-6.32390E-05 0.00000E+00 0.00000E+00 0.00000E+00 0.00000E+00 0.00000E+00 0.00000E+00 4.18118E-03 1.02486E-02 2.53368E-02
      645  3.38699E-07 1.30121E-06-6.32390E-05 0.00000E+00 0.00000E+00 0.00000E+00 0.00000E+00 0.00000E+00 0.00000E+00 4.48254E-03 1.10071E-02 2.53368E-02
      647  0.00000E+00 2.09919E-06-6.32390E-05 0.00000E+00 0.00000E+00 0.00000E+00 0.00000E+00 0.00000E+00 0.00000E+00 6.77700E-19 1.10692E-02 2.53368E-02
      648  0.00000E+00 2.62285E-06-6.32390E-05 0.00000E+00 0.00000E+00 0.00000E+00 0.00000E+00 0.00000E+00 0.00000E+00 7.27700E-19 1.18862E-02 2.53368E-02
      674  3.96653E-07 1.40356E-06-6.32390E-05 0.00000E+00 0.00000E+00 0.00000E+00 0.00000E+00 0.00000E+00 0.00000E+00 7.21340E-03 2.97360E-03 2.53368E-02
      676  4.65282E-07 1.42961E-06-6.32390E-05 0.00000E+00 0.00000E+00 0.00000E+00 0.00000E+00 0.00000E+00 0.00000E+00 5.51807E-03 5.51673E-03 2.53368E-02
      678  3.11513E-07 1.59680E-06-6.32390E-05 0.00000E+00 0.00000E+00 0.00000E+00 0.00000E+00 0.00000E+00 0.00000E+00 2.97511E-03 7.21360E-03 2.53368E-02
      680  0.00000E+00 2.59744E-06-6.32390E-05 0.00000E+00 0.00000E+00 0.00000E+00 0.00000E+00 0.00000E+00 0.00000E+00 4.77700E-19 7.80400E-03 2.53368E-02
      821  5.66760E-07 1.44744E-06-6.32390E-05 0.00000E+00 0.00000E+00 0.00000E+00 0.00000E+00 0.00000E+00 0.00000E+00 9.49257E-03 3.87155E-03 2.53368E-02
      822  6.64426E-07 1.33630E-06-6.32390E-05 0.00000E+00 0.00000E+00 0.00000E+00 0.00000E+00 0.00000E+00 0.00000E+00 7.25356E-03 7.24514E-03 2.53368E-02
      823  4.81428E-07 1.54049E-06-6.32390E-05 0.00000E+00 0.00000E+00 0.00000E+00 0.00000E+00 0.00000E+00 0.00000E+00 3.87978E-03 9.48984E-03 2.53368E-02
      824  0.00000E+00 2.03487E-06-6.32390E-05 0.00000E+00 0.00000E+00 0.00000E+00 0.00000E+00 0.00000E+00 0.00000E+00 6.27700E-19 1.02527E-02 2.53368E-02
      850  3.46481E-07 1.22750E-06-6.32390E-05 0.00000E+00 0.00000E+00 0.00000E+00 0.00000E+00 0.00000E+00 0.00000E+00 1.17713E-02 4.76933E-03 2.53368E-02
      852  5.22239E-07 1.29131E-06-6.32390E-05 0.00000E+00 0.00000E+00 0.00000E+00 0.00000E+00 0.00000E+00 0.00000E+00 8.98882E-03 8.97349E-03 2.53368E-02
      854  1.23245E-07 1.63240E-06-6.32390E-05 0.00000E+00 0.00000E+00 0.00000E+00 0.00000E+00 0.00000E+00 0.00000E+00 4.78382E-03 1.17662E-02 2.53368E-02
      856  0.00000E+00 3.70968E-06-6.32390E-05 0.00000E+00 0.00000E+00 0.00000E+00 0.00000E+00 0.00000E+00 0.00000E+00 7.77700E-19 1.27037E-02 2.53368E-02



 n o d a l   p r i n t   o u t   f o r   t i m e  s t e p     703                              ( at time 4.9188432E+00 )

 nodal point  x-disp     y-disp      z-disp      x-vel       y-vel       z-vel      x-accl      y-accl      z-accl      x-coor      y-coor      z-coor
        1  4.38106E-05 0.00000E+00 0.00000E+00 0.00000E+00 0.00000E+00 0.00000E+00 0.00000E+00 0.00000E+00 0.00000E+00 3.21881E-03 0.00000E+00-1.78000E-18
        2  3.08700E-05 0.00000E+00 0.00000E+00 0.00000E+00 0.00000E+00 0.00000E+00 0.00000E+00 0.00000E+00 0.00000E+00 2.41217E-03 0.00000E+00 0.00000E+00
        3  2.05509E-05 0.00000E+00 0.00000E+00 0.00000E+00 0.00000E+00 0.00000E+00 0.00000E+00 0.00000E+00 0.00000E+00 1.60805E-03 0.00000E+00 0.00000E+00
        4  1.06158E-05 0.00000E+00 0.00000E+00 0.00000E+00 0.00000E+00 0.00000E+00 0.00000E+00 0.00000E+00 0.00000E+00 8.04366E-04 0.00000E+00 0.00000E+00
        5  0.00000E+00 0.00000E+00 0.00000E+00 0.00000E+00 0.00000E+00 0.00000E+00 0.00000E+00 0.00000E+00 0.00000E+00 0.00000E+00 0.00000E+00 0.00000E+00
        6  0.00000E+00 1.05631E-05 0.00000E+00 0.00000E+00 0.00000E+00 0.00000E+00 0.00000E+00 0.00000E+00 0.00000E+00 4.86000E-20 8.04313E-04 0.00000E+00
        7  0.00000E+00 2.15662E-05 0.00000E+00 0.00000E+00 0.00000E+00 0.00000E+00 0.00000E+00 0.00000E+00 0.00000E+00 9.72100E-20 1.60907E-03 0.00000E+00
        8  0.00000E+00 3.37481E-05 0.00000E+00 0.00000E+00 0.00000E+00 0.00000E+00 0.00000E+00 0.00000E+00 0.00000E+00 1.45800E-19 2.41505E-03 0.00000E+00
        9  0.00000E+00 4.66253E-05 0.00000E+00 0.00000E+00 0.00000E+00 0.00000E+00 0.00000E+00 0.00000E+00 0.00000E+00 1.94400E-19 3.22163E-03 0.00000E+00
       10  1.96124E-05 4.46333E-05 0.00000E+00 0.00000E+00 0.00000E+00 0.00000E+00 0.00000E+00 0.00000E+00 0.00000E+00 1.23461E-03 2.97793E-03 0.00000E+00
       11  3.74513E-05 3.82738E-05 0.00000E+00 0.00000E+00 0.00000E+00 0.00000E+00 0.00000E+00 0.00000E+00 0.00000E+00 2.28255E-03 2.28337E-03 0.00000E+00
       12  4.68035E-05 2.13822E-05 0.00000E+00 0.00000E+00 0.00000E+00 0.00000E+00 0.00000E+00 0.00000E+00 0.00000E+00 2.98010E-03 1.23638E-03 0.00000E+00
       13  2.34235E-05 2.35629E-05 0.00000E+00 0.00000E+00 0.00000E+00 0.00000E+00 0.00000E+00 0.00000E+00 0.00000E+00 1.33172E-03 1.37546E-03 0.00000E+00
       14  2.49948E-05 1.29372E-05 0.00000E+00 0.00000E+00 0.00000E+00 0.00000E+00 0.00000E+00 0.00000E+00 0.00000E+00 1.51329E-03 7.19914E-04 0.00000E+00
       15  1.17819E-05 2.19085E-05 0.00000E+00 0.00000E+00 0.00000E+00 0.00000E+00 0.00000E+00 0.00000E+00 0.00000E+00 6.81292E-04 1.52891E-03 0.00000E+00
       16  1.24079E-05 1.12608E-05 0.00000E+00 0.00000E+00 0.00000E+00 0.00000E+00 0.00000E+00 0.00000E+00 0.00000E+00 7.66045E-04 7.93598E-04 0.00000E+00
       17  3.11992E-05 2.98028E-05 0.00000E+00 0.00000E+00 0.00000E+00 0.00000E+00 0.00000E+00 0.00000E+00 0.00000E+00 1.76750E-03 1.79730E-03 0.00000E+00
       18  1.57958E-05 3.24681E-05 0.00000E+00 0.00000E+00 0.00000E+00 0.00000E+00 0.00000E+00 0.00000E+00 0.00000E+00 9.35927E-04 2.22357E-03 0.00000E+00
       19  3.60253E-05 1.60223E-05 0.00000E+00 0.00000E+00 0.00000E+00 0.00000E+00 0.00000E+00 0.00000E+00 0.00000E+00 2.19933E-03 9.66881E-04 0.00000E+00
       26  3.28198E-05 1.31100E-05-5.51151E-05 0.00000E+00 0.00000E+00 0.00000E+00 0.00000E+00 0.00000E+00 0.00000E+00 3.18312E-03 1.32471E-03 1.83218E-03
       27  2.46173E-05 2.35104E-05-5.37419E-05 0.00000E+00 0.00000E+00 0.00000E+00 0.00000E+00 0.00000E+00 0.00000E+00 2.44512E-03 2.44711E-03 1.88326E-03
       54  1.28120E-05 2.89811E-05-5.39245E-05 0.00000E+00 0.00000E+00 0.00000E+00 0.00000E+00 0.00000E+00 0.00000E+00 1.32041E-03 3.18378E-03 1.84368E-03
      127  3.47958E-05 0.00000E+00-5.77851E-05 0.00000E+00 0.00000E+00 0.00000E+00 0.00000E+00 0.00000E+00 0.00000E+00 3.42140E-03 0.00000E+00 1.72541E-03
      165  0.00000E+00 3.24492E-05-5.16812E-05 0.00000E+00 0.00000E+00 0.00000E+00 0.00000E+00 0.00000E+00 0.00000E+00 2.39400E-19 3.41915E-03 1.73222E-03
      220  0.00000E+00 1.98739E-06-9.83769E-05 0.00000E+00 0.00000E+00 0.00000E+00 0.00000E+00 0.00000E+00 0.00000E+00 2.13900E-19 3.49449E-03 2.53016E-02
      221  1.65096E-07 1.20140E-06-9.83769E-05 0.00000E+00 0.00000E+00 0.00000E+00 0.00000E+00 0.00000E+00 0.00000E+00 1.47267E-03 3.31560E-03 2.53016E-02
      222  9.60053E-08 1.29046E-06-9.83769E-05 0.00000E+00 0.00000E+00 0.00000E+00 0.00000E+00 0.00000E+00 0.00000E+00 2.02390E-03 4.82049E-03 2.53016E-02
      223  0.00000E+00 2.92026E-06-9.83769E-05 0.00000E+00 0.00000E+00 0.00000E+00 0.00000E+00 0.00000E+00 0.00000E+00 3.20800E-19 5.24172E-03 2.53016E-02
      248  2.40271E-07 1.69818E-06-9.83769E-05 0.00000E+00 0.00000E+00 0.00000E+00 0.00000E+00 0.00000E+00 0.00000E+00 2.67364E-03 6.45490E-03 2.53016E-02
      249  0.00000E+00 3.36818E-06-9.83769E-05 0.00000E+00 0.00000E+00 0.00000E+00 0.00000E+00 0.00000E+00 0.00000E+00 4.27700E-19 6.98837E-03 2.53016E-02
      286 -1.36569E-07 9.61569E-07-9.83769E-05 0.00000E+00 0.00000E+00 0.00000E+00 0.00000E+00 0.00000E+00 0.00000E+00 3.27316E-03 1.55576E-03 2.53016E-02
      287  3.34714E-07 7.77882E-07-9.83769E-05 0.00000E+00 0.00000E+00 0.00000E+00 0.00000E+00 0.00000E+00 0.00000E+00 2.87803E-03 2.97418E-03 2.53016E-02
      288 -5.37969E-08 8.56239E-07-9.83769E-05 0.00000E+00 0.00000E+00 0.00000E+00 0.00000E+00 0.00000E+00 0.00000E+00 1.65765E-03 1.72166E-03 2.53016E-02
      301  2.38869E-07 1.57741E-06-9.83769E-05 0.00000E+00 0.00000E+00 0.00000E+00 0.00000E+00 0.00000E+00 0.00000E+00 3.81954E-03 3.88928E-03 2.53016E-02
      314  6.14269E-07 1.78515E-06-9.83769E-05 0.00000E+00 0.00000E+00 0.00000E+00 0.00000E+00 0.00000E+00 0.00000E+00 4.93971E-03 4.94089E-03 2.53016E-02
      363  2.45954E-07 1.61226E-06-9.83769E-05 0.00000E+00 0.00000E+00 0.00000E+00 0.00000E+00 0.00000E+00 0.00000E+00 6.45365E-03 2.67451E-03 2.53016E-02
      364 -1.97131E-07 1.60671E-06-9.83769E-05 0.00000E+00 0.00000E+00 0.00000E+00 0.00000E+00 0.00000E+00 0.00000E+00 4.75790E-03 2.09281E-03 2.53016E-02
      365  1.68311E-06 0.00000E+00-9.83769E-05 0.00000E+00 0.00000E+00 0.00000E+00 0.00000E+00 0.00000E+00 0.00000E+00 5.24048E-03 0.00000E+00 2.53016E-02
      366  1.31009E-06 0.00000E+00-9.83769E-05 0.00000E+00 0.00000E+00 0.00000E+00 0.00000E+00 0.00000E+00 0.00000E+00 6.98631E-03 0.00000E+00 2.53016E-02
      379  0.00000E+00 1.18154E-06-9.83769E-05 0.00000E+00 0.00000E+00 0.00000E+00 0.00000E+00 0.00000E+00 0.00000E+00 1.06900E-19 1.74748E-03 2.53016E-02
      404  1.70850E-06 0.00000E+00-9.83769E-05 0.00000E+00 0.00000E+00 0.00000E+00 0.00000E+00 0.00000E+00 0.00000E+00 1.74801E-03 0.00000E+00 2.53016E-02
      405  0.00000E+00 0.00000E+00-9.83769E-05 0.00000E+00 0.00000E+00 0.00000E+00 0.00000E+00 0.00000E+00 0.00000E+00 0.00000E+00 0.00000E+00 2.53016E-02
      418  2.31727E-06 0.00000E+00-9.83769E-05 0.00000E+00 0.00000E+00 0.00000E+00 0.00000E+00 0.00000E+00 0.00000E+00 3.49482E-03 0.00000E+00 2.53016E-02
      438  2.02675E-07 0.00000E+00-9.83769E-05 0.00000E+00 0.00000E+00 0.00000E+00 0.00000E+00 0.00000E+00 0.00000E+00 1.27002E-02 0.00000E+00 2.53016E-02
      439  3.85677E-07 0.00000E+00-9.83769E-05 0.00000E+00 0.00000E+00 0.00000E+00 0.00000E+00 0.00000E+00 0.00000E+00 1.18840E-02 0.00000E+00 2.53016E-02
      440  4.16844E-07 0.00000E+00-9.83769E-05 0.00000E+00 0.00000E+00 0.00000E+00 0.00000E+00 0.00000E+00 0.00000E+00 1.10675E-02 0.00000E+00 2.53016E-02
      441  4.51819E-07 0.00000E+00-9.83769E-05 0.00000E+00 0.00000E+00 0.00000E+00 0.00000E+00 0.00000E+00 0.00000E+00 1.02512E-02 0.00000E+00 2.53016E-02
      442  4.90393E-07 0.00000E+00-9.83769E-05 0.00000E+00 0.00000E+00 0.00000E+00 0.00000E+00 0.00000E+00 0.00000E+00 9.43479E-03 0.00000E+00 2.53016E-02
      443  5.54207E-07 0.00000E+00-9.83769E-05 0.00000E+00 0.00000E+00 0.00000E+00 0.00000E+00 0.00000E+00 0.00000E+00 8.61845E-03 0.00000E+00 2.53016E-02
      444  7.14552E-07 0.00000E+00-9.83769E-05 0.00000E+00 0.00000E+00 0.00000E+00 0.00000E+00 0.00000E+00 0.00000E+00 7.80211E-03 0.00000E+00 2.53016E-02
      591  5.62448E-07 1.75071E-06-9.83769E-05 0.00000E+00 0.00000E+00 0.00000E+00 0.00000E+00 0.00000E+00 0.00000E+00 7.97326E-03 3.27325E-03 2.53016E-02
      592  6.06923E-07 1.73268E-06-9.83769E-05 0.00000E+00 0.00000E+00 0.00000E+00 0.00000E+00 0.00000E+00 0.00000E+00 8.73291E-03 3.57253E-03 2.53016E-02
      595  5.79170E-07 1.59971E-06-9.83769E-05 0.00000E+00 0.00000E+00 0.00000E+00 0.00000E+00 0.00000E+00 0.00000E+00 6.09658E-03 6.09310E-03 2.53016E-02
      596  6.64755E-07 1.56372E-06-9.83769E-05 0.00000E+00 0.00000E+00 0.00000E+00 0.00000E+00 0.00000E+00 0.00000E+00 6.67516E-03 6.66916E-03 2.53016E-02
      599  4.09229E-07 1.79914E-06-9.83769E-05 0.00000E+00 0.00000E+00 0.00000E+00 0.00000E+00 0.00000E+00 0.00000E+00 3.27671E-03 7.97250E-03 2.53016E-02
      600  4.71258E-07 1.77018E-06-9.83769E-05 0.00000E+00 0.00000E+00 0.00000E+00 0.00000E+00 0.00000E+00 0.00000E+00 3.57827E-03 8.73127E-03 2.53016E-02
      603  0.00000E+00 2.68062E-06-9.83769E-05 0.00000E+00 0.00000E+00 0.00000E+00 0.00000E+00 0.00000E+00 0.00000E+00 5.27700E-19 8.62058E-03 2.53016E-02
      604  0.00000E+00 2.48981E-06-9.83769E-05 0.00000E+00 0.00000E+00 0.00000E+00 0.00000E+00 0.00000E+00 0.00000E+00 5.77700E-19 9.43679E-03 2.53016E-02
      638  7.36458E-07 1.70842E-06-9.83769E-05 0.00000E+00 0.00000E+00 0.00000E+00 0.00000E+00 0.00000E+00 0.00000E+00 1.02524E-02 4.17111E-03 2.53016E-02
      639  7.21018E-07 1.63766E-06-9.83769E-05 0.00000E+00 0.00000E+00 0.00000E+00 0.00000E+00 0.00000E+00 0.00000E+00 1.10120E-02 4.47034E-03 2.53016E-02
      641  8.07283E-07 1.50467E-06-9.83769E-05 0.00000E+00 0.00000E+00 0.00000E+00 0.00000E+00 0.00000E+00 0.00000E+00 7.83221E-03 7.82140E-03 2.53016E-02
      642  9.86118E-07 1.59761E-06-9.83769E-05 0.00000E+00 0.00000E+00 0.00000E+00 0.00000E+00 0.00000E+00 0.00000E+00 8.41089E-03 8.39760E-03 2.53016E-02
      644  5.05765E-07 1.70429E-06-9.83769E-05 0.00000E+00 0.00000E+00 0.00000E+00 0.00000E+00 0.00000E+00 0.00000E+00 4.18121E-03 1.02488E-02 2.53016E-02
      645  3.35429E-07 1.48564E-06-9.83769E-05 0.00000E+00 0.00000E+00 0.00000E+00 0.00000E+00 0.00000E+00 0.00000E+00 4.48254E-03 1.10073E-02 2.53016E-02
      647  0.00000E+00 2.41628E-06-9.83769E-05 0.00000E+00 0.00000E+00 0.00000E+00 0.00000E+00 0.00000E+00 0.00000E+00 6.77700E-19 1.10695E-02 2.53016E-02
      648  0.00000E+00 2.91727E-06-9.83769E-05 0.00000E+00 0.00000E+00 0.00000E+00 0.00000E+00 0.00000E+00 0.00000E+00 7.27700E-19 1.18865E-02 2.53016E-02
      674  5.05649E-07 1.75303E-06-9.83769E-05 0.00000E+00 0.00000E+00 0.00000E+00 0.00000E+00 0.00000E+00 0.00000E+00 7.21351E-03 2.97395E-03 2.53016E-02
      676  4.99492E-07 1.63935E-06-9.83769E-05 0.00000E+00 0.00000E+00 0.00000E+00 0.00000E+00 0.00000E+00 0.00000E+00 5.51810E-03 5.51694E-03 2.53016E-02
      678  3.34720E-07 1.81789E-06-9.83769E-05 0.00000E+00 0.00000E+00 0.00000E+00 0.00000E+00 0.00000E+00 0.00000E+00 2.97513E-03 7.21382E-03 2.53016E-02
      680  0.00000E+00 2.94267E-06-9.83769E-05 0.00000E+00 0.00000E+00 0.00000E+00 0.00000E+00 0.00000E+00 0.00000E+00 4.77700E-19 7.80434E-03 2.53016E-02
      821  6.66700E-07 1.72274E-06-9.83769E-05 0.00000E+00 0.00000E+00 0.00000E+00 0.00000E+00 0.00000E+00 0.00000E+00 9.49267E-03 3.87182E-03 2.53016E-02
      822  7.39170E-07 1.52919E-06-9.83769E-05 0.00000E+00 0.00000E+00 0.00000E+00 0.00000E+00 0.00000E+00 0.00000E+00 7.25364E-03 7.24533E-03 2.53016E-02
      823  5.15300E-07 1.74014E-06-9.83769E-05 0.00000E+00 0.00000E+00 0.00000E+00 0.00000E+00 0.00000E+00 0.00000E+00 3.87982E-03 9.49004E-03 2.53016E-02
      824  0.00000E+00 2.36561E-06-9.83769E-05 0.00000E+00 0.00000E+00 0.00000E+00 0.00000E+00 0.00000E+00 0.00000E+00 6.27700E-19 1.02531E-02 2.53016E-02
      850  4.20088E-07 1.46859E-06-9.83769E-05 0.00000E+00 0.00000E+00 0.00000E+00 0.00000E+00 0.00000E+00 0.00000E+00 1.17714E-02 4.76957E-03 2.53016E-02
      852  5.69309E-07 1.46420E-06-9.83769E-05 0.00000E+00 0.00000E+00 0.00000E+00 0.00000E+00 0.00000E+00 0.00000E+00 8.98887E-03 8.97366E-03 2.53016E-02
      854  1.59957E-07 1.85927E-06-9.83769E-05 0.00000E+00 0.00000E+00 0.00000E+00 0.00000E+00 0.00000E+00 0.00000E+00 4.78386E-03 1.17665E-02 2.53016E-02
      856  0.00000E+00 3.98469E-06-9.83769E-05 0.00000E+00 0.00000E+00 0.00000E+00 0.00000E+00 0.00000E+00 0.00000E+00 7.77700E-19 1.27040E-02 2.53016E-02



 n o d a l   p r i n t   o u t   f o r   t i m e  s t e p     712                              ( at time 6.6261176E+00 )

 nodal point  x-disp     y-disp      z-disp      x-vel       y-vel       z-vel      x-accl      y-accl      z-accl      x-coor      y-coor      z-coor
        1  5.99939E-05 0.00000E+00 0.00000E+00 0.00000E+00 0.00000E+00 0.00000E+00 0.00000E+00 0.00000E+00 0.00000E+00 3.23499E-03 0.00000E+00-1.78000E-18
        2  4.20812E-05 0.00000E+00 0.00000E+00 0.00000E+00 0.00000E+00 0.00000E+00 0.00000E+00 0.00000E+00 0.00000E+00 2.42338E-03 0.00000E+00 0.00000E+00
        3  2.77521E-05 0.00000E+00 0.00000E+00 0.00000E+00 0.00000E+00 0.00000E+00 0.00000E+00 0.00000E+00 0.00000E+00 1.61525E-03 0.00000E+00 0.00000E+00
        4  1.43154E-05 0.00000E+00 0.00000E+00 0.00000E+00 0.00000E+00 0.00000E+00 0.00000E+00 0.00000E+00 0.00000E+00 8.08065E-04 0.00000E+00 0.00000E+00
        5  0.00000E+00 0.00000E+00 0.00000E+00 0.00000E+00 0.00000E+00 0.00000E+00 0.00000E+00 0.00000E+00 0.00000E+00 0.00000E+00 0.00000E+00 0.00000E+00
        6  0.00000E+00 1.47006E-05 0.00000E+00 0.00000E+00 0.00000E+00 0.00000E+00 0.00000E+00 0.00000E+00 0.00000E+00 4.86000E-20 8.08451E-04 0.00000E+00
        7  0.00000E+00 2.98438E-05 0.00000E+00 0.00000E+00 0.00000E+00 0.00000E+00 0.00000E+00 0.00000E+00 0.00000E+00 9.72100E-20 1.61734E-03 0.00000E+00
        8  0.00000E+00 4.64442E-05 0.00000E+00 0.00000E+00 0.00000E+00 0.00000E+00 0.00000E+00 0.00000E+00 0.00000E+00 1.45800E-19 2.42774E-03 0.00000E+00
        9  0.00000E+00 6.43272E-05 0.00000E+00 0.00000E+00 0.00000E+00 0.00000E+00 0.00000E+00 0.00000E+00 0.00000E+00 1.94400E-19 3.23933E-03 0.00000E+00
       10  2.68288E-05 6.12302E-05 0.00000E+00 0.00000E+00 0.00000E+00 0.00000E+00 0.00000E+00 0.00000E+00 0.00000E+00 1.24183E-03 2.99453E-03 0.00000E+00
       11  5.11759E-05 5.14608E-05 0.00000E+00 0.00000E+00 0.00000E+00 0.00000E+00 0.00000E+00 0.00000E+00 0.00000E+00 2.29628E-03 2.29656E-03 0.00000E+00
       12  6.36236E-05 2.94285E-05 0.00000E+00 0.00000E+00 0.00000E+00 0.00000E+00 0.00000E+00 0.00000E+00 0.00000E+00 2.99692E-03 1.24443E-03 0.00000E+00
       13  3.17674E-05 3.17713E-05 0.00000E+00 0.00000E+00 0.00000E+00 0.00000E+00 0.00000E+00 0.00000E+00 0.00000E+00 1.34007E-03 1.38367E-03 0.00000E+00
       14  3.40612E-05 1.75432E-05 0.00000E+00 0.00000E+00 0.00000E+00 0.00000E+00 0.00000E+00 0.00000E+00 0.00000E+00 1.52236E-03 7.24520E-04 0.00000E+00
       15  1.60791E-05 3.03356E-05 0.00000E+00 0.00000E+00 0.00000E+00 0.00000E+00 0.00000E+00 0.00000E+00 0.00000E+00 6.85589E-04 1.53734E-03 0.00000E+00
       16  1.69378E-05 1.56417E-05 0.00000E+00 0.00000E+00 0.00000E+00 0.00000E+00 0.00000E+00 0.00000E+00 0.00000E+00 7.70575E-04 7.97979E-04 0.00000E+00
       17  4.20457E-05 4.04606E-05 0.00000E+00 0.00000E+00 0.00000E+00 0.00000E+00 0.00000E+00 0.00000E+00 0.00000E+00 1.77835E-03 1.80796E-03 0.00000E+00
       18  2.15854E-05 4.47857E-05 0.00000E+00 0.00000E+00 0.00000E+00 0.00000E+00 0.00000E+00 0.00000E+00 0.00000E+00 9.41716E-04 2.23589E-03 0.00000E+00
       19  4.89241E-05 2.20221E-05 0.00000E+00 0.00000E+00 0.00000E+00 0.00000E+00 0.00000E+00 0.00000E+00 0.00000E+00 2.21222E-03 9.72881E-04 0.00000E+00
       26  4.78116E-05 2.01202E-05-7.69873E-05 0.00000E+00 0.00000E+00 0.00000E+00 0.00000E+00 0.00000E+00 0.00000E+00 3.19811E-03 1.33172E-03 1.81031E-03
       27  3.53353E-05 3.36663E-05-7.50867E-05 0.00000E+00 0.00000E+00 0.00000E+00 0.00000E+00 0.00000E+00 0.00000E+00 2.45584E-03 2.45727E-03 1.86191E-03
       54  1.85562E-05 4.26956E-05-7.44983E-05 0.00000E+00 0.00000E+00 0.00000E+00 0.00000E+00 0.00000E+00 0.00000E+00 1.32616E-03 3.19750E-03 1.82310E-03
      127  5.02493E-05 0.00000E+00-7.89573E-05 0.00000E+00 0.00000E+00 0.00000E+00 0.00000E+00 0.00000E+00 0.00000E+00 3.43685E-03 0.00000E+00 1.70424E-03
      165  0.00000E+00 4.77000E-05-7.15152E-05 0.00000E+00 0.00000E+00 0.00000E+00 0.00000E+00 0.00000E+00 0.00000E+00 2.39400E-19 3.43440E-03 1.71238E-03
      220  0.00000E+00 2.50112E-06-1.32522E-04 0.00000E+00 0.00000E+00 0.00000E+00 0.00000E+00 0.00000E+00 0.00000E+00 2.13900E-19 3.49500E-03 2.52675E-02
      221  2.52663E-07 1.43906E-06-1.32522E-04 0.00000E+00 0.00000E+00 0.00000E+00 0.00000E+00 0.00000E+00 0.00000E+00 1.47275E-03 3.31584E-03 2.52675E-02
      222  1.92396E-07 1.53933E-06-1.32522E-04 0.00000E+00 0.00000E+00 0.00000E+00 0.00000E+00 0.00000E+00 0.00000E+00 2.02399E-03 4.82074E-03 2.52675E-02
      223  0.00000E+00 3.35930E-06-1.32522E-04 0.00000E+00 0.00000E+00 0.00000E+00 0.00000E+00 0.00000E+00 0.00000E+00 3.20800E-19 5.24216E-03 2.52675E-02
      248  3.59849E-07 1.98152E-06-1.32522E-04 0.00000E+00 0.00000E+00 0.00000E+00 0.00000E+00 0.00000E+00 0.00000E+00 2.67376E-03 6.45518E-03 2.52675E-02
      249  0.00000E+00 3.72722E-06-1.32522E-04 0.00000E+00 0.00000E+00 0.00000E+00 0.00000E+00 0.00000E+00 0.00000E+00 4.27700E-19 6.98873E-03 2.52675E-02
      286 -2.82550E-07 1.04280E-06-1.32522E-04 0.00000E+00 0.00000E+00 0.00000E+00 0.00000E+00 0.00000E+00 0.00000E+00 3.27302E-03 1.55584E-03 2.52675E-02
      287  5.46026E-07 7.20698E-07-1.32522E-04 0.00000E+00 0.00000E+00 0.00000E+00 0.00000E+00 0.00000E+00 0.00000E+00 2.87825E-03 2.97412E-03 2.52675E-02
      288  2.35377E-09 8.51680E-07-1.32522E-04 0.00000E+00 0.00000E+00 0.00000E+00 0.00000E+00 0.00000E+00 0.00000E+00 1.65770E-03 1.72165E-03 2.52675E-02
      301  3.96476E-07 1.74338E-06-1.32522E-04 0.00000E+00 0.00000E+00 0.00000E+00 0.00000E+00 0.00000E+00 0.00000E+00 3.81970E-03 3.88944E-03 2.52675E-02
      314  8.24235E-07 2.02197E-06-1.32522E-04 0.00000E+00 0.00000E+00 0.00000E+00 0.00000E+00 0.00000E+00 0.00000E+00 4.93992E-03 4.94112E-03 2.52675E-02
      363  4.90427E-07 1.76780E-06-1.32522E-04 0.00000E+00 0.00000E+00 0.00000E+00 0.00000E+00 0.00000E+00 0.00000E+00 6.45389E-03 2.67467E-03 2.52675E-02
      364  6.80795E-09 1.75477E-06-1.32522E-04 0.00000E+00 0.00000E+00 0.00000E+00 0.00000E+00 0.00000E+00 0.00000E+00 4.75811E-03 2.09295E-03 2.52675E-02
      365  2.26862E-06 0.00000E+00-1.32522E-04 0.00000E+00 0.00000E+00 0.00000E+00 0.00000E+00 0.00000E+00 0.00000E+00 5.24107E-03 0.00000E+00 2.52675E-02
      366  1.68513E-06 0.00000E+00-1.32522E-04 0.00000E+00 0.00000E+00 0.00000E+00 0.00000E+00 0.00000E+00 0.00000E+00 6.98669E-03 0.00000E+00 2.52675E-02
      379  0.00000E+00 1.48866E-06-1.32522E-04 0.00000E+00 0.00000E+00 0.00000E+00 0.00000E+00 0.00000E+00 0.00000E+00 1.06900E-19 1.74779E-03 2.52675E-02
      404  2.78391E-06 0.00000E+00-1.32522E-04 0.00000E+00 0.00000E+00 0.00000E+00 0.00000E+00 0.00000E+00 0.00000E+00 1.74908E-03 0.00000E+00 2.52675E-02
      405  0.00000E+00 0.00000E+00-1.32522E-04 0.00000E+00 0.00000E+00 0.00000E+00 0.00000E+00 0.00000E+00 0.00000E+00 0.00000E+00 0.00000E+00 2.52675E-02
      418  3.71208E-06 0.00000E+00-1.32522E-04 0.00000E+00 0.00000E+00 0.00000E+00 0.00000E+00 0.00000E+00 0.00000E+00 3.49621E-03 0.00000E+00 2.52675E-02
      438  4.92858E-07 0.00000E+00-1.32522E-04 0.00000E+00 0.00000E+00 0.00000E+00 0.00000E+00 0.00000E+00 0.00000E+00 1.27005E-02 0.00000E+00 2.52675E-02
      439  6.82476E-07 0.00000E+00-1.32522E-04 0.00000E+00 0.00000E+00 0.00000E+00 0.00000E+00 0.00000E+00 0.00000E+00 1.18843E-02 0.00000E+00 2.52675E-02
      440  7.18750E-07 0.00000E+00-1.32522E-04 0.00000E+00 0.00000E+00 0.00000E+00 0.00000E+00 0.00000E+00 0.00000E+00 1.10678E-02 0.00000E+00 2.52675E-02
      441  7.43678E-07 0.00000E+00-1.32522E-04 0.00000E+00 0.00000E+00 0.00000E+00 0.00000E+00 0.00000E+00 0.00000E+00 1.02514E-02 0.00000E+00 2.52675E-02
      442  7.77568E-07 0.00000E+00-1.32522E-04 0.00000E+00 0.00000E+00 0.00000E+00 0.00000E+00 0.00000E+00 0.00000E+00 9.43508E-03 0.00000E+00 2.52675E-02
      443  8.26631E-07 0.00000E+00-1.32522E-04 0.00000E+00 0.00000E+00 0.00000E+00 0.00000E+00 0.00000E+00 0.00000E+00 8.61873E-03 0.00000E+00 2.52675E-02
      444  1.02128E-06 0.00000E+00-1.32522E-04 0.00000E+00 0.00000E+00 0.00000E+00 0.00000E+00 0.00000E+00 0.00000E+00 7.80242E-03 0.00000E+00 2.52675E-02
      591  8.13337E-07 1.93315E-06-1.32522E-04 0.00000E+00 0.00000E+00 0.00000E+00 0.00000E+00 0.00000E+00 0.00000E+00 7.97351E-03 3.27343E-03 2.52675E-02
      592  8.55857E-07 1.90352E-06-1.32522E-04 0.00000E+00 0.00000E+00 0.00000E+00 0.00000E+00 0.00000E+00 0.00000E+00 8.73316E-03 3.57270E-03 2.52675E-02
      595  7.79615E-07 1.84410E-06-1.32522E-04 0.00000E+00 0.00000E+00 0.00000E+00 0.00000E+00 0.00000E+00 0.00000E+00 6.09678E-03 6.09334E-03 2.52675E-02
      596  8.73930E-07 1.81132E-06-1.32522E-04 0.00000E+00 0.00000E+00 0.00000E+00 0.00000E+00 0.00000E+00 0.00000E+00 6.67537E-03 6.66941E-03 2.52675E-02
      599  5.08456E-07 2.10481E-06-1.32522E-04 0.00000E+00 0.00000E+00 0.00000E+00 0.00000E+00 0.00000E+00 0.00000E+00 3.27681E-03 7.97280E-03 2.52675E-02
      600  5.73155E-07 2.09664E-06-1.32522E-04 0.00000E+00 0.00000E+00 0.00000E+00 0.00000E+00 0.00000E+00 0.00000E+00 3.57837E-03 8.73160E-03 2.52675E-02
      603  0.00000E+00 3.13956E-06-1.32522E-04 0.00000E+00 0.00000E+00 0.00000E+00 0.00000E+00 0.00000E+00 0.00000E+00 5.27700E-19 8.62104E-03 2.52675E-02
      604  0.00000E+00 2.94774E-06-1.32522E-04 0.00000E+00 0.00000E+00 0.00000E+00 0.00000E+00 0.00000E+00 0.00000E+00 5.77700E-19 9.43725E-03 2.52675E-02
      638  1.00354E-06 1.87565E-06-1.32522E-04 0.00000E+00 0.00000E+00 0.00000E+00 0.00000E+00 0.00000E+00 0.00000E+00 1.02527E-02 4.17128E-03 2.52675E-02
      639  1.00143E-06 1.80783E-06-1.32522E-04 0.00000E+00 0.00000E+00 0.00000E+00 0.00000E+00 0.00000E+00 0.00000E+00 1.10123E-02 4.47051E-03 2.52675E-02
      641  1.03835E-06 1.75763E-06-1.32522E-04 0.00000E+00 0.00000E+00 0.00000E+00 0.00000E+00 0.00000E+00 0.00000E+00 7.83244E-03 7.82166E-03 2.52675E-02
      642  1.22302E-06 1.84868E-06-1.32522E-04 0.00000E+00 0.00000E+00 0.00000E+00 0.00000E+00 0.00000E+00 0.00000E+00 8.41112E-03 8.39785E-03 2.52675E-02
      644  6.22705E-07 2.05683E-06-1.32522E-04 0.00000E+00 0.00000E+00 0.00000E+00 0.00000E+00 0.00000E+00 0.00000E+00 4.18132E-03 1.02492E-02 2.52675E-02
      645  4.38857E-07 1.84975E-06-1.32522E-04 0.00000E+00 0.00000E+00 0.00000E+00 0.00000E+00 0.00000E+00 0.00000E+00 4.48264E-03 1.10076E-02 2.52675E-02
      647  0.00000E+00 2.81573E-06-1.32522E-04 0.00000E+00 0.00000E+00 0.00000E+00 0.00000E+00 0.00000E+00 0.00000E+00 6.77700E-19 1.10699E-02 2.52675E-02
      648  0.00000E+00 3.28521E-06-1.32522E-04 0.00000E+00 0.00000E+00 0.00000E+00 0.00000E+00 0.00000E+00 0.00000E+00 7.27700E-19 1.18869E-02 2.52675E-02
[...]
      249  0.00000E+00 5.46135E-06-1.93873E-03 0.00000E+00 0.00000E+00 0.00000E+00 0.00000E+00 0.00000E+00 0.00000E+00 4.27700E-19 6.99046E-03 2.34613E-02
      286  8.42417E-08 8.26216E-07-1.93873E-03 0.00000E+00 0.00000E+00 0.00000E+00 0.00000E+00 0.00000E+00 0.00000E+00 3.27338E-03 1.55563E-03 2.34613E-02
      287  6.95028E-07 9.69874E-07-1.93873E-03 0.00000E+00 0.00000E+00 0.00000E+00 0.00000E+00 0.00000E+00 0.00000E+00 2.87840E-03 2.97437E-03 2.34613E-02
      288  1.77095E-07 1.31071E-06-1.93873E-03 0.00000E+00 0.00000E+00 0.00000E+00 0.00000E+00 0.00000E+00 0.00000E+00 1.65788E-03 1.72211E-03 2.34613E-02
      301  5.90166E-07 2.52192E-06-1.93873E-03 0.00000E+00 0.00000E+00 0.00000E+00 0.00000E+00 0.00000E+00 0.00000E+00 3.81989E-03 3.89022E-03 2.34613E-02
      314  1.01762E-06 2.95853E-06-1.93873E-03 0.00000E+00 0.00000E+00 0.00000E+00 0.00000E+00 0.00000E+00 0.00000E+00 4.94012E-03 4.94206E-03 2.34613E-02
      363  5.97988E-07 2.33086E-06-1.93873E-03 0.00000E+00 0.00000E+00 0.00000E+00 0.00000E+00 0.00000E+00 0.00000E+00 6.45400E-03 2.67523E-03 2.34613E-02
      364 -7.27178E-08 1.99281E-06-1.93873E-03 0.00000E+00 0.00000E+00 0.00000E+00 0.00000E+00 0.00000E+00 0.00000E+00 4.75803E-03 2.09319E-03 2.34613E-02
      365  2.63931E-06 0.00000E+00-1.93873E-03 0.00000E+00 0.00000E+00 0.00000E+00 0.00000E+00 0.00000E+00 0.00000E+00 5.24144E-03 0.00000E+00 2.34613E-02
      366  1.69372E-06 0.00000E+00-1.93873E-03 0.00000E+00 0.00000E+00 0.00000E+00 0.00000E+00 0.00000E+00 0.00000E+00 6.98669E-03 0.00000E+00 2.34613E-02
      379  0.00000E+00 2.16014E-06-1.93873E-03 0.00000E+00 0.00000E+00 0.00000E+00 0.00000E+00 0.00000E+00 0.00000E+00 1.06900E-19 1.74846E-03 2.34613E-02
      404  1.97899E-06 0.00000E+00-1.93873E-03 0.00000E+00 0.00000E+00 0.00000E+00 0.00000E+00 0.00000E+00 0.00000E+00 1.74828E-03 0.00000E+00 2.34613E-02
      405  0.00000E+00 0.00000E+00-1.93873E-03 0.00000E+00 0.00000E+00 0.00000E+00 0.00000E+00 0.00000E+00 0.00000E+00 0.00000E+00 0.00000E+00 2.34613E-02
      418  3.42112E-06 0.00000E+00-1.93873E-03 0.00000E+00 0.00000E+00 0.00000E+00 0.00000E+00 0.00000E+00 0.00000E+00 3.49592E-03 0.00000E+00 2.34613E-02
      438  2.16422E-07 0.00000E+00-1.93873E-03 0.00000E+00 0.00000E+00 0.00000E+00 0.00000E+00 0.00000E+00 0.00000E+00 1.27002E-02 0.00000E+00 2.34613E-02
      439  4.43180E-07 0.00000E+00-1.93873E-03 0.00000E+00 0.00000E+00 0.00000E+00 0.00000E+00 0.00000E+00 0.00000E+00 1.18840E-02 0.00000E+00 2.34613E-02
      440  5.38913E-07 0.00000E+00-1.93873E-03 0.00000E+00 0.00000E+00 0.00000E+00 0.00000E+00 0.00000E+00 0.00000E+00 1.10676E-02 0.00000E+00 2.34613E-02
      441  5.67689E-07 0.00000E+00-1.93873E-03 0.00000E+00 0.00000E+00 0.00000E+00 0.00000E+00 0.00000E+00 0.00000E+00 1.02513E-02 0.00000E+00 2.34613E-02
      442  5.83877E-07 0.00000E+00-1.93873E-03 0.00000E+00 0.00000E+00 0.00000E+00 0.00000E+00 0.00000E+00 0.00000E+00 9.43488E-03 0.00000E+00 2.34613E-02
      443  6.58241E-07 0.00000E+00-1.93873E-03 0.00000E+00 0.00000E+00 0.00000E+00 0.00000E+00 0.00000E+00 0.00000E+00 8.61856E-03 0.00000E+00 2.34613E-02
      444  9.14865E-07 0.00000E+00-1.93873E-03 0.00000E+00 0.00000E+00 0.00000E+00 0.00000E+00 0.00000E+00 0.00000E+00 7.80231E-03 0.00000E+00 2.34613E-02
      591  9.12516E-07 2.56045E-06-1.93873E-03 0.00000E+00 0.00000E+00 0.00000E+00 0.00000E+00 0.00000E+00 0.00000E+00 7.97361E-03 3.27406E-03 2.34613E-02
      592  9.68796E-07 2.51830E-06-1.93873E-03 0.00000E+00 0.00000E+00 0.00000E+00 0.00000E+00 0.00000E+00 0.00000E+00 8.73327E-03 3.57332E-03 2.34613E-02
      595  1.01909E-06 2.83714E-06-1.93873E-03 0.00000E+00 0.00000E+00 0.00000E+00 0.00000E+00 0.00000E+00 0.00000E+00 6.09702E-03 6.09434E-03 2.34613E-02
      596  1.16798E-06 2.80239E-06-1.93873E-03 0.00000E+00 0.00000E+00 0.00000E+00 0.00000E+00 0.00000E+00 0.00000E+00 6.67567E-03 6.67040E-03 2.34613E-02
      599  6.39537E-07 3.00016E-06-1.93873E-03 0.00000E+00 0.00000E+00 0.00000E+00 0.00000E+00 0.00000E+00 0.00000E+00 3.27694E-03 7.97370E-03 2.34613E-02
      600  7.21292E-07 3.02472E-06-1.93873E-03 0.00000E+00 0.00000E+00 0.00000E+00 0.00000E+00 0.00000E+00 0.00000E+00 3.57852E-03 8.73252E-03 2.34613E-02
      603  0.00000E+00 4.93445E-06-1.93873E-03 0.00000E+00 0.00000E+00 0.00000E+00 0.00000E+00 0.00000E+00 0.00000E+00 5.27700E-19 8.62283E-03 2.34613E-02
      604  0.00000E+00 4.83479E-06-1.93873E-03 0.00000E+00 0.00000E+00 0.00000E+00 0.00000E+00 0.00000E+00 0.00000E+00 5.77700E-19 9.43913E-03 2.34613E-02
      638  1.10895E-06 2.46640E-06-1.93873E-03 0.00000E+00 0.00000E+00 0.00000E+00 0.00000E+00 0.00000E+00 0.00000E+00 1.02528E-02 4.17187E-03 2.34613E-02
      639  1.19009E-06 2.25469E-06-1.93873E-03 0.00000E+00 0.00000E+00 0.00000E+00 0.00000E+00 0.00000E+00 0.00000E+00 1.10125E-02 4.47095E-03 2.34613E-02
      641  1.46042E-06 2.75541E-06-1.93873E-03 0.00000E+00 0.00000E+00 0.00000E+00 0.00000E+00 0.00000E+00 0.00000E+00 7.83286E-03 7.82266E-03 2.34613E-02
      642  1.51025E-06 2.67679E-06-1.93873E-03 0.00000E+00 0.00000E+00 0.00000E+00 0.00000E+00 0.00000E+00 0.00000E+00 8.41141E-03 8.39868E-03 2.34613E-02
      644  7.83606E-07 3.03305E-06-1.93873E-03 0.00000E+00 0.00000E+00 0.00000E+00 0.00000E+00 0.00000E+00 0.00000E+00 4.18148E-03 1.02501E-02 2.34613E-02
      645  6.63286E-07 2.99850E-06-1.93873E-03 0.00000E+00 0.00000E+00 0.00000E+00 0.00000E+00 0.00000E+00 0.00000E+00 4.48286E-03 1.10088E-02 2.34613E-02
      647  0.00000E+00 4.74891E-06-1.93873E-03 0.00000E+00 0.00000E+00 0.00000E+00 0.00000E+00 0.00000E+00 0.00000E+00 6.77700E-19 1.10718E-02 2.34613E-02
      648  0.00000E+00 4.85963E-06-1.93873E-03 0.00000E+00 0.00000E+00 0.00000E+00 0.00000E+00 0.00000E+00 0.00000E+00 7.27700E-19 1.18885E-02 2.34613E-02
      674  8.55571E-07 2.54146E-06-1.93873E-03 0.00000E+00 0.00000E+00 0.00000E+00 0.00000E+00 0.00000E+00 0.00000E+00 7.21386E-03 2.97474E-03 2.34613E-02
      676  8.62578E-07 2.84263E-06-1.93873E-03 0.00000E+00 0.00000E+00 0.00000E+00 0.00000E+00 0.00000E+00 0.00000E+00 5.51846E-03 5.51814E-03 2.34613E-02
      678  5.58842E-07 3.03109E-06-1.93873E-03 0.00000E+00 0.00000E+00 0.00000E+00 0.00000E+00 0.00000E+00 0.00000E+00 2.97536E-03 7.21503E-03 2.34613E-02
      680  0.00000E+00 5.15449E-06-1.93873E-03 0.00000E+00 0.00000E+00 0.00000E+00 0.00000E+00 0.00000E+00 0.00000E+00 4.77700E-19 7.80655E-03 2.34613E-02
      821  1.03265E-06 2.52223E-06-1.93873E-03 0.00000E+00 0.00000E+00 0.00000E+00 0.00000E+00 0.00000E+00 0.00000E+00 9.49303E-03 3.87262E-03 2.34613E-02
      822  1.31011E-06 2.79288E-06-1.93873E-03 0.00000E+00 0.00000E+00 0.00000E+00 0.00000E+00 0.00000E+00 0.00000E+00 7.25421E-03 7.24659E-03 2.34613E-02
      823  7.87946E-07 3.06086E-06-1.93873E-03 0.00000E+00 0.00000E+00 0.00000E+00 0.00000E+00 0.00000E+00 0.00000E+00 3.88009E-03 9.49136E-03 2.34613E-02
      824  0.00000E+00 4.79235E-06-1.93873E-03 0.00000E+00 0.00000E+00 0.00000E+00 0.00000E+00 0.00000E+00 0.00000E+00 6.27700E-19 1.02555E-02 2.34613E-02
      850  6.56295E-07 1.88636E-06-1.93873E-03 0.00000E+00 0.00000E+00 0.00000E+00 0.00000E+00 0.00000E+00 0.00000E+00 1.17717E-02 4.76999E-03 2.34613E-02
      852  8.92005E-07 2.64154E-06-1.93873E-03 0.00000E+00 0.00000E+00 0.00000E+00 0.00000E+00 0.00000E+00 0.00000E+00 8.98919E-03 8.97484E-03 2.34613E-02
      854  6.12917E-07 3.23643E-06-1.93873E-03 0.00000E+00 0.00000E+00 0.00000E+00 0.00000E+00 0.00000E+00 0.00000E+00 4.78431E-03 1.17678E-02 2.34613E-02
      856  0.00000E+00 5.86876E-06-1.93873E-03 0.00000E+00 0.00000E+00 0.00000E+00 0.00000E+00 0.00000E+00 0.00000E+00 7.77700E-19 1.27059E-02 2.34613E-02



 n o d a l   p r i n t   o u t   f o r   t i m e  s t e p    1080                              ( at time 1.0000000E+02 )

 nodal point  x-disp     y-disp      z-disp      x-vel       y-vel       z-vel      x-accl      y-accl      z-accl      x-coor      y-coor      z-coor
        1  1.79127E-03 0.00000E+00 0.00000E+00 0.00000E+00 0.00000E+00 0.00000E+00 0.00000E+00 0.00000E+00 0.00000E+00 4.96627E-03 0.00000E+00-1.78000E-18
        2  1.33829E-03 0.00000E+00 0.00000E+00 0.00000E+00 0.00000E+00 0.00000E+00 0.00000E+00 0.00000E+00 0.00000E+00 3.71959E-03 0.00000E+00 0.00000E+00
        3  8.75411E-04 0.00000E+00 0.00000E+00 0.00000E+00 0.00000E+00 0.00000E+00 0.00000E+00 0.00000E+00 0.00000E+00 2.46291E-03 0.00000E+00 0.00000E+00
        4  4.51891E-04 0.00000E+00 0.00000E+00 0.00000E+00 0.00000E+00 0.00000E+00 0.00000E+00 0.00000E+00 0.00000E+00 1.24564E-03 0.00000E+00 0.00000E+00
        5  0.00000E+00 0.00000E+00 0.00000E+00 0.00000E+00 0.00000E+00 0.00000E+00 0.00000E+00 0.00000E+00 0.00000E+00 0.00000E+00 0.00000E+00 0.00000E+00
        6  0.00000E+00 4.04625E-04 0.00000E+00 0.00000E+00 0.00000E+00 0.00000E+00 0.00000E+00 0.00000E+00 0.00000E+00 4.86000E-20 1.19837E-03 0.00000E+00
        7  0.00000E+00 8.25987E-04 0.00000E+00 0.00000E+00 0.00000E+00 0.00000E+00 0.00000E+00 0.00000E+00 0.00000E+00 9.72100E-20 2.41349E-03 0.00000E+00
        8  0.00000E+00 1.17806E-03 0.00000E+00 0.00000E+00 0.00000E+00 0.00000E+00 0.00000E+00 0.00000E+00 0.00000E+00 1.45800E-19 3.55936E-03 0.00000E+00
        9  0.00000E+00 1.55303E-03 0.00000E+00 0.00000E+00 0.00000E+00 0.00000E+00 0.00000E+00 0.00000E+00 0.00000E+00 1.94400E-19 4.72803E-03 0.00000E+00
       10  6.73185E-04 1.42245E-03 0.00000E+00 0.00000E+00 0.00000E+00 0.00000E+00 0.00000E+00 0.00000E+00 0.00000E+00 1.88819E-03 4.35575E-03 0.00000E+00
       11  1.18155E-03 1.12905E-03 0.00000E+00 0.00000E+00 0.00000E+00 0.00000E+00 0.00000E+00 0.00000E+00 0.00000E+00 3.42665E-03 3.37415E-03 0.00000E+00
       12  1.59498E-03 6.63907E-04 0.00000E+00 0.00000E+00 0.00000E+00 0.00000E+00 0.00000E+00 0.00000E+00 0.00000E+00 4.52828E-03 1.87891E-03 0.00000E+00
       13  8.00534E-04 7.39112E-04 0.00000E+00 0.00000E+00 0.00000E+00 0.00000E+00 0.00000E+00 0.00000E+00 0.00000E+00 2.10883E-03 2.09101E-03 0.00000E+00
       14  9.16778E-04 4.22291E-04 0.00000E+00 0.00000E+00 0.00000E+00 0.00000E+00 0.00000E+00 0.00000E+00 0.00000E+00 2.40508E-03 1.12927E-03 0.00000E+00
       15  4.21984E-04 8.42428E-04 0.00000E+00 0.00000E+00 0.00000E+00 0.00000E+00 0.00000E+00 0.00000E+00 0.00000E+00 1.09149E-03 2.34943E-03 0.00000E+00
       16  5.04459E-04 4.64478E-04 0.00000E+00 0.00000E+00 0.00000E+00 0.00000E+00 0.00000E+00 0.00000E+00 0.00000E+00 1.25810E-03 1.24682E-03 0.00000E+00
       17  9.90556E-04 9.16418E-04 0.00000E+00 0.00000E+00 0.00000E+00 0.00000E+00 0.00000E+00 0.00000E+00 0.00000E+00 2.72686E-03 2.68392E-03 0.00000E+00
       18  5.29125E-04 1.14240E-03 0.00000E+00 0.00000E+00 0.00000E+00 0.00000E+00 0.00000E+00 0.00000E+00 0.00000E+00 1.44926E-03 3.33350E-03 0.00000E+00
       19  1.27343E-03 5.11947E-04 0.00000E+00 0.00000E+00 0.00000E+00 0.00000E+00 0.00000E+00 0.00000E+00 0.00000E+00 3.43673E-03 1.46281E-03 0.00000E+00
       26  1.59702E-03 6.16762E-04-9.92787E-04 0.00000E+00 0.00000E+00 0.00000E+00 0.00000E+00 0.00000E+00 0.00000E+00 4.74732E-03 1.92836E-03 8.94513E-04
       27  1.25649E-03 1.04676E-03-1.01622E-03 0.00000E+00 0.00000E+00 0.00000E+00 0.00000E+00 0.00000E+00 0.00000E+00 3.67699E-03 3.47036E-03 9.20785E-04
       54  6.96421E-04 1.41389E-03-1.02569E-03 0.00000E+00 0.00000E+00 0.00000E+00 0.00000E+00 0.00000E+00 0.00000E+00 2.00402E-03 4.56869E-03 8.71910E-04
      127  1.75767E-03 0.00000E+00-1.03643E-03 0.00000E+00 0.00000E+00 0.00000E+00 0.00000E+00 0.00000E+00 0.00000E+00 5.14427E-03 0.00000E+00 7.46773E-04
      165  0.00000E+00 1.61598E-03-1.04637E-03 0.00000E+00 0.00000E+00 0.00000E+00 0.00000E+00 0.00000E+00 0.00000E+00 2.39400E-19 5.00268E-03 7.37535E-04
      220  0.00000E+00 3.34719E-06-2.00000E-03 0.00000E+00 0.00000E+00 0.00000E+00 0.00000E+00 0.00000E+00 0.00000E+00 2.13900E-19 3.49585E-03 2.34000E-02
      221  5.09412E-07 1.49406E-06-2.00000E-03 0.00000E+00 0.00000E+00 0.00000E+00 0.00000E+00 0.00000E+00 0.00000E+00 1.47301E-03 3.31589E-03 2.34000E-02
      222  3.25644E-07 1.76377E-06-2.00000E-03 0.00000E+00 0.00000E+00 0.00000E+00 0.00000E+00 0.00000E+00 0.00000E+00 2.02413E-03 4.82096E-03 2.34000E-02
      223  0.00000E+00 4.21670E-06-2.00000E-03 0.00000E+00 0.00000E+00 0.00000E+00 0.00000E+00 0.00000E+00 0.00000E+00 3.20800E-19 5.24302E-03 2.34000E-02
      248  4.56930E-07 2.14359E-06-2.00000E-03 0.00000E+00 0.00000E+00 0.00000E+00 0.00000E+00 0.00000E+00 0.00000E+00 2.67386E-03 6.45534E-03 2.34000E-02
      249  0.00000E+00 4.47660E-06-2.00000E-03 0.00000E+00 0.00000E+00 0.00000E+00 0.00000E+00 0.00000E+00 0.00000E+00 4.27700E-19 6.98948E-03 2.34000E-02
      286  8.96385E-08 1.13180E-06-2.00000E-03 0.00000E+00 0.00000E+00 0.00000E+00 0.00000E+00 0.00000E+00 0.00000E+00 3.27339E-03 1.55593E-03 2.34000E-02
      287  9.39027E-07 2.02639E-07-2.00000E-03 0.00000E+00 0.00000E+00 0.00000E+00 0.00000E+00 0.00000E+00 0.00000E+00 2.87864E-03 2.97360E-03 2.34000E-02
      288  8.87946E-08 9.91749E-07-2.00000E-03 0.00000E+00 0.00000E+00 0.00000E+00 0.00000E+00 0.00000E+00 0.00000E+00 1.65779E-03 1.72179E-03 2.34000E-02
      301  4.75658E-07 1.54226E-06-2.00000E-03 0.00000E+00 0.00000E+00 0.00000E+00 0.00000E+00 0.00000E+00 0.00000E+00 3.81978E-03 3.88924E-03 2.34000E-02
      314  8.54568E-07 1.94952E-06-2.00000E-03 0.00000E+00 0.00000E+00 0.00000E+00 0.00000E+00 0.00000E+00 0.00000E+00 4.93995E-03 4.94105E-03 2.34000E-02
      363  8.97841E-07 1.56307E-06-2.00000E-03 0.00000E+00 0.00000E+00 0.00000E+00 0.00000E+00 0.00000E+00 0.00000E+00 6.45430E-03 2.67446E-03 2.34000E-02
      364  9.85082E-08 1.64272E-06-2.00000E-03 0.00000E+00 0.00000E+00 0.00000E+00 0.00000E+00 0.00000E+00 0.00000E+00 4.75820E-03 2.09284E-03 2.34000E-02
      365  2.60985E-06 0.00000E+00-2.00000E-03 0.00000E+00 0.00000E+00 0.00000E+00 0.00000E+00 0.00000E+00 0.00000E+00 5.24141E-03 0.00000E+00 2.34000E-02
      366  1.85577E-06 0.00000E+00-2.00000E-03 0.00000E+00 0.00000E+00 0.00000E+00 0.00000E+00 0.00000E+00 0.00000E+00 6.98686E-03 0.00000E+00 2.34000E-02
      379  0.00000E+00 1.44836E-06-2.00000E-03 0.00000E+00 0.00000E+00 0.00000E+00 0.00000E+00 0.00000E+00 0.00000E+00 1.06900E-19 1.74775E-03 2.34000E-02
      404  2.15411E-06 0.00000E+00-2.00000E-03 0.00000E+00 0.00000E+00 0.00000E+00 0.00000E+00 0.00000E+00 0.00000E+00 1.74845E-03 0.00000E+00 2.34000E-02
      405  0.00000E+00 0.00000E+00-2.00000E-03 0.00000E+00 0.00000E+00 0.00000E+00 0.00000E+00 0.00000E+00 0.00000E+00 0.00000E+00 0.00000E+00 2.34000E-02
      418  3.46152E-06 0.00000E+00-2.00000E-03 0.00000E+00 0.00000E+00 0.00000E+00 0.00000E+00 0.00000E+00 0.00000E+00 3.49596E-03 0.00000E+00 2.34000E-02
      438  6.69594E-07 0.00000E+00-2.00000E-03 0.00000E+00 0.00000E+00 0.00000E+00 0.00000E+00 0.00000E+00 0.00000E+00 1.27007E-02 0.00000E+00 2.34000E-02
      439  1.00857E-06 0.00000E+00-2.00000E-03 0.00000E+00 0.00000E+00 0.00000E+00 0.00000E+00 0.00000E+00 0.00000E+00 1.18846E-02 0.00000E+00 2.34000E-02
      440  1.07337E-06 0.00000E+00-2.00000E-03 0.00000E+00 0.00000E+00 0.00000E+00 0.00000E+00 0.00000E+00 0.00000E+00 1.10682E-02 0.00000E+00 2.34000E-02
      441  1.09412E-06 0.00000E+00-2.00000E-03 0.00000E+00 0.00000E+00 0.00000E+00 0.00000E+00 0.00000E+00 0.00000E+00 1.02518E-02 0.00000E+00 2.34000E-02
      442  1.11406E-06 0.00000E+00-2.00000E-03 0.00000E+00 0.00000E+00 0.00000E+00 0.00000E+00 0.00000E+00 0.00000E+00 9.43541E-03 0.00000E+00 2.34000E-02
      443  1.22788E-06 0.00000E+00-2.00000E-03 0.00000E+00 0.00000E+00 0.00000E+00 0.00000E+00 0.00000E+00 0.00000E+00 8.61913E-03 0.00000E+00 2.34000E-02
      444  1.35751E-06 0.00000E+00-2.00000E-03 0.00000E+00 0.00000E+00 0.00000E+00 0.00000E+00 0.00000E+00 0.00000E+00 7.80276E-03 0.00000E+00 2.34000E-02
      591  1.07352E-06 1.65125E-06-2.00000E-03 0.00000E+00 0.00000E+00 0.00000E+00 0.00000E+00 0.00000E+00 0.00000E+00 7.97377E-03 3.27315E-03 2.34000E-02
      592  1.20484E-06 1.56977E-06-2.00000E-03 0.00000E+00 0.00000E+00 0.00000E+00 0.00000E+00 0.00000E+00 0.00000E+00 8.73350E-03 3.57237E-03 2.34000E-02
      595  8.53478E-07 1.95726E-06-2.00000E-03 0.00000E+00 0.00000E+00 0.00000E+00 0.00000E+00 0.00000E+00 0.00000E+00 6.09685E-03 6.09346E-03 2.34000E-02
      596  9.78751E-07 1.90866E-06-2.00000E-03 0.00000E+00 0.00000E+00 0.00000E+00 0.00000E+00 0.00000E+00 0.00000E+00 6.67548E-03 6.66951E-03 2.34000E-02
      599  4.34334E-07 2.13725E-06-2.00000E-03 0.00000E+00 0.00000E+00 0.00000E+00 0.00000E+00 0.00000E+00 0.00000E+00 3.27673E-03 7.97284E-03 2.34000E-02
      600  5.24281E-07 2.11424E-06-2.00000E-03 0.00000E+00 0.00000E+00 0.00000E+00 0.00000E+00 0.00000E+00 0.00000E+00 3.57832E-03 8.73161E-03 2.34000E-02
      603  0.00000E+00 4.07807E-06-2.00000E-03 0.00000E+00 0.00000E+00 0.00000E+00 0.00000E+00 0.00000E+00 0.00000E+00 5.27700E-19 8.62198E-03 2.34000E-02
      604  0.00000E+00 3.88744E-06-2.00000E-03 0.00000E+00 0.00000E+00 0.00000E+00 0.00000E+00 0.00000E+00 0.00000E+00 5.77700E-19 9.43819E-03 2.34000E-02
      638  1.34805E-06 1.50420E-06-2.00000E-03 0.00000E+00 0.00000E+00 0.00000E+00 0.00000E+00 0.00000E+00 0.00000E+00 1.02530E-02 4.17090E-03 2.34000E-02
      639  1.34481E-06 1.39390E-06-2.00000E-03 0.00000E+00 0.00000E+00 0.00000E+00 0.00000E+00 0.00000E+00 0.00000E+00 1.10126E-02 4.47009E-03 2.34000E-02
      641  1.15571E-06 2.13350E-06-2.00000E-03 0.00000E+00 0.00000E+00 0.00000E+00 0.00000E+00 0.00000E+00 0.00000E+00 7.83256E-03 7.82203E-03 2.34000E-02
      642  1.39117E-06 2.25341E-06-2.00000E-03 0.00000E+00 0.00000E+00 0.00000E+00 0.00000E+00 0.00000E+00 0.00000E+00 8.41129E-03 8.39825E-03 2.34000E-02
      644  5.88509E-07 2.26002E-06-2.00000E-03 0.00000E+00 0.00000E+00 0.00000E+00 0.00000E+00 0.00000E+00 0.00000E+00 4.18129E-03 1.02494E-02 2.34000E-02
      645  3.94677E-07 2.07787E-06-2.00000E-03 0.00000E+00 0.00000E+00 0.00000E+00 0.00000E+00 0.00000E+00 0.00000E+00 4.48259E-03 1.10079E-02 2.34000E-02
      647  0.00000E+00 3.73257E-06-2.00000E-03 0.00000E+00 0.00000E+00 0.00000E+00 0.00000E+00 0.00000E+00 0.00000E+00 6.77700E-19 1.10708E-02 2.34000E-02
      648  0.00000E+00 4.13297E-06-2.00000E-03 0.00000E+00 0.00000E+00 0.00000E+00 0.00000E+00 0.00000E+00 0.00000E+00 7.27700E-19 1.18877E-02 2.34000E-02
      674  1.05495E-06 1.58914E-06-2.00000E-03 0.00000E+00 0.00000E+00 0.00000E+00 0.00000E+00 0.00000E+00 0.00000E+00 7.21405E-03 2.97379E-03 2.34000E-02
      676  7.20813E-07 1.90170E-06-2.00000E-03 0.00000E+00 0.00000E+00 0.00000E+00 0.00000E+00 0.00000E+00 0.00000E+00 5.51832E-03 5.51720E-03 2.34000E-02
      678  3.85961E-07 2.19567E-06-2.00000E-03 0.00000E+00 0.00000E+00 0.00000E+00 0.00000E+00 0.00000E+00 0.00000E+00 2.97519E-03 7.21420E-03 2.34000E-02
      680  0.00000E+00 4.22177E-06-2.00000E-03 0.00000E+00 0.00000E+00 0.00000E+00 0.00000E+00 0.00000E+00 0.00000E+00 4.77700E-19 7.80562E-03 2.34000E-02
      821  1.28338E-06 1.54461E-06-2.00000E-03 0.00000E+00 0.00000E+00 0.00000E+00 0.00000E+00 0.00000E+00 0.00000E+00 9.49328E-03 3.87164E-03 2.34000E-02
      822  1.07608E-06 1.96857E-06-2.00000E-03 0.00000E+00 0.00000E+00 0.00000E+00 0.00000E+00 0.00000E+00 0.00000E+00 7.25398E-03 7.24577E-03 2.34000E-02
      823  5.44995E-07 2.15099E-06-2.00000E-03 0.00000E+00 0.00000E+00 0.00000E+00 0.00000E+00 0.00000E+00 0.00000E+00 3.87984E-03 9.49045E-03 2.34000E-02
      824  0.00000E+00 3.77318E-06-2.00000E-03 0.00000E+00 0.00000E+00 0.00000E+00 0.00000E+00 0.00000E+00 0.00000E+00 6.27700E-19 1.02545E-02 2.34000E-02
      850  1.17197E-06 1.33552E-06-2.00000E-03 0.00000E+00 0.00000E+00 0.00000E+00 0.00000E+00 0.00000E+00 0.00000E+00 1.17722E-02 4.76944E-03 2.34000E-02
      852  1.06952E-06 2.23699E-06-2.00000E-03 0.00000E+00 0.00000E+00 0.00000E+00 0.00000E+00 0.00000E+00 0.00000E+00 8.98937E-03 8.97444E-03 2.34000E-02
      854  2.64580E-07 2.18393E-06-2.00000E-03 0.00000E+00 0.00000E+00 0.00000E+00 0.00000E+00 0.00000E+00 0.00000E+00 4.78396E-03 1.17668E-02 2.34000E-02
      856  0.00000E+00 4.59784E-06-2.00000E-03 0.00000E+00 0.00000E+00 0.00000E+00 0.00000E+00 0.00000E+00 0.00000E+00 7.77700E-19 1.27046E-02 2.34000E-02
