 LS-DYNA keyword deck by LS-PrePost                                      
                    ls-dyna smp d R14 R14.1.1s_1_ef50e1 date 06/16/2024

 n o d a l   f o r c e/e n e r g y    o u t p u t  t=   0.00000E+00

 velocity boundary condition forces/rigid body moments 

 nd#     591  xforce=   0.0000E+00   yforce=   0.0000E+00  zforce=   0.0000E+00   energy=   0.0000E+00   setid =     591 xmoment=   0.0000E+00 ymoment=   0.0000E+00 zmoment=   0.0000E+00
 nd#     592  xforce=   0.0000E+00   yforce=   0.0000E+00  zforce=   0.0000E+00   energy=   0.0000E+00   setid =     592 xmoment=   0.0000E+00 ymoment=   0.0000E+00 zmoment=   0.0000E+00
 nd#     593  xforce=   0.0000E+00   yforce=   0.0000E+00  zforce=   0.0000E+00   energy=   0.0000E+00   setid =     593 xmoment=   0.0000E+00 ymoment=   0.0000E+00 zmoment=   0.0000E+00
 nd#     594  xforce=   0.0000E+00   yforce=   0.0000E+00  zforce=   0.0000E+00   energy=   0.0000E+00   setid =     594 xmoment=   0.0000E+00 ymoment=   0.0000E+00 zmoment=   0.0000E+00
 nd#     775  xforce=   0.0000E+00   yforce=   0.0000E+00  zforce=   0.0000E+00   energy=   0.0000E+00   setid =     775 xmoment=   0.0000E+00 ymoment=   0.0000E+00 zmoment=   0.0000E+00
 nd#     776  xforce=   0.0000E+00   yforce=   0.0000E+00  zforce=   0.0000E+00   energy=   0.0000E+00   setid =     776 xmoment=   0.0000E+00 ymoment=   0.0000E+00 zmoment=   0.0000E+00
 nd#     777  xforce=   0.0000E+00   yforce=   0.0000E+00  zforce=   0.0000E+00   energy=   0.0000E+00   setid =     777 xmoment=   0.0000E+00 ymoment=   0.0000E+00 zmoment=   0.0000E+00
 nd#     778  xforce=   0.0000E+00   yforce=   0.0000E+00  zforce=   0.0000E+00   energy=   0.0000E+00   setid =     778 xmoment=   0.0000E+00 ymoment=   0.0000E+00 zmoment=   0.0000E+00
 nd#     959  xforce=   0.0000E+00   yforce=   0.0000E+00  zforce=   0.0000E+00   energy=   0.0000E+00   setid =     959 xmoment=   0.0000E+00 ymoment=   0.0000E+00 zmoment=   0.0000E+00
 nd#     960  xforce=   0.0000E+00   yforce=   0.0000E+00  zforce=   0.0000E+00   energy=   0.0000E+00   setid =     960 xmoment=   0.0000E+00 ymoment=   0.0000E+00 zmoment=   0.0000E+00
 nd#     961  xforce=   0.0000E+00   yforce=   0.0000E+00  zforce=   0.0000E+00   energy=   0.0000E+00   setid =     961 xmoment=   0.0000E+00 ymoment=   0.0000E+00 zmoment=   0.0000E+00
 nd#     962  xforce=   0.0000E+00   yforce=   0.0000E+00  zforce=   0.0000E+00   energy=   0.0000E+00   setid =     962 xmoment=   0.0000E+00 ymoment=   0.0000E+00 zmoment=   0.0000E+00
 nd#    1143  xforce=   0.0000E+00   yforce=   0.0000E+00  zforce=   0.0000E+00   energy=   0.0000E+00   setid =    1143 xmoment=   0.0000E+00 ymoment=   0.0000E+00 zmoment=   0.0000E+00
 nd#    1144  xforce=   0.0000E+00   yforce=   0.0000E+00  zforce=   0.0000E+00   energy=   0.0000E+00   setid =    1144 xmoment=   0.0000E+00 ymoment=   0.0000E+00 zmoment=   0.0000E+00
 nd#    1145  xforce=   0.0000E+00   yforce=   0.0000E+00  zforce=   0.0000E+00   energy=   0.0000E+00   setid =    1145 xmoment=   0.0000E+00 ymoment=   0.0000E+00 zmoment=   0.0000E+00
 nd#    1146  xforce=   0.0000E+00   yforce=   0.0000E+00  zforce=   0.0000E+00   energy=   0.0000E+00   setid =    1146 xmoment=   0.0000E+00 ymoment=   0.0000E+00 zmoment=   0.0000E+00
 nd#    1237  xforce=   0.0000E+00   yforce=   0.0000E+00  zforce=   0.0000E+00   energy=   0.0000E+00   setid =    1237 xmoment=   0.0000E+00 ymoment=   0.0000E+00 zmoment=   0.0000E+00
 nd#    1238  xforce=   0.0000E+00   yforce=   0.0000E+00  zforce=   0.0000E+00   energy=   0.0000E+00   setid =    1238 xmoment=   0.0000E+00 ymoment=   0.0000E+00 zmoment=   0.0000E+00
 nd#    1419  xforce=   0.0000E+00   yforce=   0.0000E+00  zforce=   0.0000E+00   energy=   0.0000E+00   setid =    1419 xmoment=   0.0000E+00 ymoment=   0.0000E+00 zmoment=   0.0000E+00
 nd#    1420  xforce=   0.0000E+00   yforce=   0.0000E+00  zforce=   0.0000E+00   energy=   0.0000E+00   setid =    1420 xmoment=   0.0000E+00 ymoment=   0.0000E+00 zmoment=   0.0000E+00
 nd#    1421  xforce=   0.0000E+00   yforce=   0.0000E+00  zforce=   0.0000E+00   energy=   0.0000E+00   setid =    1421 xmoment=   0.0000E+00 ymoment=   0.0000E+00 zmoment=   0.0000E+00
 nd#    1422  xforce=   0.0000E+00   yforce=   0.0000E+00  zforce=   0.0000E+00   energy=   0.0000E+00   setid =    1422 xmoment=   0.0000E+00 ymoment=   0.0000E+00 zmoment=   0.0000E+00
 nd#    1468  xforce=   0.0000E+00   yforce=   0.0000E+00  zforce=   0.0000E+00   energy=   0.0000E+00   setid =    1468 xmoment=   0.0000E+00 ymoment=   0.0000E+00 zmoment=   0.0000E+00
 nd#    1559  xforce=   0.0000E+00   yforce=   0.0000E+00  zforce=   0.0000E+00   energy=   0.0000E+00   setid =    1559 xmoment=   0.0000E+00 ymoment=   0.0000E+00 zmoment=   0.0000E+00
 nd#    1560  xforce=   0.0000E+00   yforce=   0.0000E+00  zforce=   0.0000E+00   energy=   0.0000E+00   setid =    1560 xmoment=   0.0000E+00 ymoment=   0.0000E+00 zmoment=   0.0000E+00
 nd#    1651  xforce=   0.0000E+00   yforce=   0.0000E+00  zforce=   0.0000E+00   energy=   0.0000E+00   setid =    1651 xmoment=   0.0000E+00 ymoment=   0.0000E+00 zmoment=   0.0000E+00
 nd#    1652  xforce=   0.0000E+00   yforce=   0.0000E+00  zforce=   0.0000E+00   energy=   0.0000E+00   setid =    1652 xmoment=   0.0000E+00 ymoment=   0.0000E+00 zmoment=   0.0000E+00
 nd#    1833  xforce=   0.0000E+00   yforce=   0.0000E+00  zforce=   0.0000E+00   energy=   0.0000E+00   setid =    1833 xmoment=   0.0000E+00 ymoment=   0.0000E+00 zmoment=   0.0000E+00
 nd#    1834  xforce=   0.0000E+00   yforce=   0.0000E+00  zforce=   0.0000E+00   energy=   0.0000E+00   setid =    1834 xmoment=   0.0000E+00 ymoment=   0.0000E+00 zmoment=   0.0000E+00
 nd#    1835  xforce=   0.0000E+00   yforce=   0.0000E+00  zforce=   0.0000E+00   energy=   0.0000E+00   setid =    1835 xmoment=   0.0000E+00 ymoment=   0.0000E+00 zmoment=   0.0000E+00
 nd#    1836  xforce=   0.0000E+00   yforce=   0.0000E+00  zforce=   0.0000E+00   energy=   0.0000E+00   setid =    1836 xmoment=   0.0000E+00 ymoment=   0.0000E+00 zmoment=   0.0000E+00
 nd#    1927  xforce=   0.0000E+00   yforce=   0.0000E+00  zforce=   0.0000E+00   energy=   0.0000E+00   setid =    1927 xmoment=   0.0000E+00 ymoment=   0.0000E+00 zmoment=   0.0000E+00
 nd#    1928  xforce=   0.0000E+00   yforce=   0.0000E+00  zforce=   0.0000E+00   energy=   0.0000E+00   setid =    1928 xmoment=   0.0000E+00 ymoment=   0.0000E+00 zmoment=   0.0000E+00
 nd#    1974  xforce=   0.0000E+00   yforce=   0.0000E+00  zforce=   0.0000E+00   energy=   0.0000E+00   setid =    1974 xmoment=   0.0000E+00 ymoment=   0.0000E+00 zmoment=   0.0000E+00
 nd#    2110  xforce=   0.0000E+00   yforce=   0.0000E+00  zforce=   0.0000E+00   energy=   0.0000E+00   setid =    2110 xmoment=   0.0000E+00 ymoment=   0.0000E+00 zmoment=   0.0000E+00
 nd#    2111  xforce=   0.0000E+00   yforce=   0.0000E+00  zforce=   0.0000E+00   energy=   0.0000E+00   setid =    2111 xmoment=   0.0000E+00 ymoment=   0.0000E+00 zmoment=   0.0000E+00
 nd#    2112  xforce=   0.0000E+00   yforce=   0.0000E+00  zforce=   0.0000E+00   energy=   0.0000E+00   setid =    2112 xmoment=   0.0000E+00 ymoment=   0.0000E+00 zmoment=   0.0000E+00
 nd#    2203  xforce=   0.0000E+00   yforce=   0.0000E+00  zforce=   0.0000E+00   energy=   0.0000E+00   setid =    2203 xmoment=   0.0000E+00 ymoment=   0.0000E+00 zmoment=   0.0000E+00
 nd#    2204  xforce=   0.0000E+00   yforce=   0.0000E+00  zforce=   0.0000E+00   energy=   0.0000E+00   setid =    2204 xmoment=   0.0000E+00 ymoment=   0.0000E+00 zmoment=   0.0000E+00
 nd#    2250  xforce=   0.0000E+00   yforce=   0.0000E+00  zforce=   0.0000E+00   energy=   0.0000E+00   setid =    2250 xmoment=   0.0000E+00 ymoment=   0.0000E+00 zmoment=   0.0000E+00
 nd#    2296  xforce=   0.0000E+00   yforce=   0.0000E+00  zforce=   0.0000E+00   energy=   0.0000E+00   setid =    2296 xmoment=   0.0000E+00 ymoment=   0.0000E+00 zmoment=   0.0000E+00
 nd#    2387  xforce=   0.0000E+00   yforce=   0.0000E+00  zforce=   0.0000E+00   energy=   0.0000E+00   setid =    2387 xmoment=   0.0000E+00 ymoment=   0.0000E+00 zmoment=   0.0000E+00
 nd#    2388  xforce=   0.0000E+00   yforce=   0.0000E+00  zforce=   0.0000E+00   energy=   0.0000E+00   setid =    2388 xmoment=   0.0000E+00 ymoment=   0.0000E+00 zmoment=   0.0000E+00
 nd#    2479  xforce=   0.0000E+00   yforce=   0.0000E+00  zforce=   0.0000E+00   energy=   0.0000E+00   setid =    2479 xmoment=   0.0000E+00 ymoment=   0.0000E+00 zmoment=   0.0000E+00
 nd#    2480  xforce=   0.0000E+00   yforce=   0.0000E+00  zforce=   0.0000E+00   energy=   0.0000E+00   setid =    2480 xmoment=   0.0000E+00 ymoment=   0.0000E+00 zmoment=   0.0000E+00
 nd#    2526  xforce=   0.0000E+00   yforce=   0.0000E+00  zforce=   0.0000E+00   energy=   0.0000E+00   setid =    2526 xmoment=   0.0000E+00 ymoment=   0.0000E+00 zmoment=   0.0000E+00
 nd#    2617  xforce=   0.0000E+00   yforce=   0.0000E+00  zforce=   0.0000E+00   energy=   0.0000E+00   setid =    2617 xmoment=   0.0000E+00 ymoment=   0.0000E+00 zmoment=   0.0000E+00
 nd#    2618  xforce=   0.0000E+00   yforce=   0.0000E+00  zforce=   0.0000E+00   energy=   0.0000E+00   setid =    2618 xmoment=   0.0000E+00 ymoment=   0.0000E+00 zmoment=   0.0000E+00
 nd#    2709  xforce=   0.0000E+00   yforce=   0.0000E+00  zforce=   0.0000E+00   energy=   0.0000E+00   setid =    2709 xmoment=   0.0000E+00 ymoment=   0.0000E+00 zmoment=   0.0000E+00
 nd#    2710  xforce=   0.0000E+00   yforce=   0.0000E+00  zforce=   0.0000E+00   energy=   0.0000E+00   setid =    2710 xmoment=   0.0000E+00 ymoment=   0.0000E+00 zmoment=   0.0000E+00
 nd#    2801  xforce=   0.0000E+00   yforce=   0.0000E+00  zforce=   0.0000E+00   energy=   0.0000E+00   setid =    2801 xmoment=   0.0000E+00 ymoment=   0.0000E+00 zmoment=   0.0000E+00
 nd#    2802  xforce=   0.0000E+00   yforce=   0.0000E+00  zforce=   0.0000E+00   energy=   0.0000E+00   setid =    2802 xmoment=   0.0000E+00 ymoment=   0.0000E+00 zmoment=   0.0000E+00
 nd#    2983  xforce=   0.0000E+00   yforce=   0.0000E+00  zforce=   0.0000E+00   energy=   0.0000E+00   setid =    2983 xmoment=   0.0000E+00 ymoment=   0.0000E+00 zmoment=   0.0000E+00
 nd#    2984  xforce=   0.0000E+00   yforce=   0.0000E+00  zforce=   0.0000E+00   energy=   0.0000E+00   setid =    2984 xmoment=   0.0000E+00 ymoment=   0.0000E+00 zmoment=   0.0000E+00
 nd#    2985  xforce=   0.0000E+00   yforce=   0.0000E+00  zforce=   0.0000E+00   energy=   0.0000E+00   setid =    2985 xmoment=   0.0000E+00 ymoment=   0.0000E+00 zmoment=   0.0000E+00
 nd#    2986  xforce=   0.0000E+00   yforce=   0.0000E+00  zforce=   0.0000E+00   energy=   0.0000E+00   setid =    2986 xmoment=   0.0000E+00 ymoment=   0.0000E+00 zmoment=   0.0000E+00
 nd#    3122  xforce=   0.0000E+00   yforce=   0.0000E+00  zforce=   0.0000E+00   energy=   0.0000E+00   setid =    3122 xmoment=   0.0000E+00 ymoment=   0.0000E+00 zmoment=   0.0000E+00
 nd#    3123  xforce=   0.0000E+00   yforce=   0.0000E+00  zforce=   0.0000E+00   energy=   0.0000E+00   setid =    3123 xmoment=   0.0000E+00 ymoment=   0.0000E+00 zmoment=   0.0000E+00
 nd#    3124  xforce=   0.0000E+00   yforce=   0.0000E+00  zforce=   0.0000E+00   energy=   0.0000E+00   setid =    3124 xmoment=   0.0000E+00 ymoment=   0.0000E+00 zmoment=   0.0000E+00
 nd#    3215  xforce=   0.0000E+00   yforce=   0.0000E+00  zforce=   0.0000E+00   energy=   0.0000E+00   setid =    3215 xmoment=   0.0000E+00 ymoment=   0.0000E+00 zmoment=   0.0000E+00
 nd#    3216  xforce=   0.0000E+00   yforce=   0.0000E+00  zforce=   0.0000E+00   energy=   0.0000E+00   setid =    3216 xmoment=   0.0000E+00 ymoment=   0.0000E+00 zmoment=   0.0000E+00
 nd#    3281  xforce=   0.0000E+00   yforce=   0.0000E+00  zforce=   0.0000E+00   energy=   0.0000E+00   setid =    3281 xmoment=   0.0000E+00 ymoment=   0.0000E+00 zmoment=   0.0000E+00
 nd#    3282  xforce=   0.0000E+00   yforce=   0.0000E+00  zforce=   0.0000E+00   energy=   0.0000E+00   setid =    3282 xmoment=   0.0000E+00 ymoment=   0.0000E+00 zmoment=   0.0000E+00
 nd#    3283  xforce=   0.0000E+00   yforce=   0.0000E+00  zforce=   0.0000E+00   energy=   0.0000E+00   setid =    3283 xmoment=   0.0000E+00 ymoment=   0.0000E+00 zmoment=   0.0000E+00
 nd#    3284  xforce=   0.0000E+00   yforce=   0.0000E+00  zforce=   0.0000E+00   energy=   0.0000E+00   setid =    3284 xmoment=   0.0000E+00 ymoment=   0.0000E+00 zmoment=   0.0000E+00
 nd#    3285  xforce=   0.0000E+00   yforce=   0.0000E+00  zforce=   0.0000E+00   energy=   0.0000E+00   setid =    3285 xmoment=   0.0000E+00 ymoment=   0.0000E+00 zmoment=   0.0000E+00
 nd#    3286  xforce=   0.0000E+00   yforce=   0.0000E+00  zforce=   0.0000E+00   energy=   0.0000E+00   setid =    3286 xmoment=   0.0000E+00 ymoment=   0.0000E+00 zmoment=   0.0000E+00
 nd#    3287  xforce=   0.0000E+00   yforce=   0.0000E+00  zforce=   0.0000E+00   energy=   0.0000E+00   setid =    3287 xmoment=   0.0000E+00 ymoment=   0.0000E+00 zmoment=   0.0000E+00
 nd#    3288  xforce=   0.0000E+00   yforce=   0.0000E+00  zforce=   0.0000E+00   energy=   0.0000E+00   setid =    3288 xmoment=   0.0000E+00 ymoment=   0.0000E+00 zmoment=   0.0000E+00
 nd#    3289  xforce=   0.0000E+00   yforce=   0.0000E+00  zforce=   0.0000E+00   energy=   0.0000E+00   setid =    3289 xmoment=   0.0000E+00 ymoment=   0.0000E+00 zmoment=   0.0000E+00
 nd#    3290  xforce=   0.0000E+00   yforce=   0.0000E+00  zforce=   0.0000E+00   energy=   0.0000E+00   setid =    3290 xmoment=   0.0000E+00 ymoment=   0.0000E+00 zmoment=   0.0000E+00
 nd#    3291  xforce=   0.0000E+00   yforce=   0.0000E+00  zforce=   0.0000E+00   energy=   0.0000E+00   setid =    3291 xmoment=   0.0000E+00 ymoment=   0.0000E+00 zmoment=   0.0000E+00
 nd#    3292  xforce=   0.0000E+00   yforce=   0.0000E+00  zforce=   0.0000E+00   energy=   0.0000E+00   setid =    3292 xmoment=   0.0000E+00 ymoment=   0.0000E+00 zmoment=   0.0000E+00
 nd#    3293  xforce=   0.0000E+00   yforce=   0.0000E+00  zforce=   0.0000E+00   energy=   0.0000E+00   setid =    3293 xmoment=   0.0000E+00 ymoment=   0.0000E+00 zmoment=   0.0000E+00
 nd#    3294  xforce=   0.0000E+00   yforce=   0.0000E+00  zforce=   0.0000E+00   energy=   0.0000E+00   setid =    3294 xmoment=   0.0000E+00 ymoment=   0.0000E+00 zmoment=   0.0000E+00
 nd#    3295  xforce=   0.0000E+00   yforce=   0.0000E+00  zforce=   0.0000E+00   energy=   0.0000E+00   setid =    3295 xmoment=   0.0000E+00 ymoment=   0.0000E+00 zmoment=   0.0000E+00
 nd#    3296  xforce=   0.0000E+00   yforce=   0.0000E+00  zforce=   0.0000E+00   energy=   0.0000E+00   setid =    3296 xmoment=   0.0000E+00 ymoment=   0.0000E+00 zmoment=   0.0000E+00
 nd#    3297  xforce=   0.0000E+00   yforce=   0.0000E+00  zforce=   0.0000E+00   energy=   0.0000E+00   setid =    3297 xmoment=   0.0000E+00 ymoment=   0.0000E+00 zmoment=   0.0000E+00
 nd#    3298  xforce=   0.0000E+00   yforce=   0.0000E+00  zforce=   0.0000E+00   energy=   0.0000E+00   setid =    3298 xmoment=   0.0000E+00 ymoment=   0.0000E+00 zmoment=   0.0000E+00
 nd#    3299  xforce=   0.0000E+00   yforce=   0.0000E+00  zforce=   0.0000E+00   energy=   0.0000E+00   setid =    3299 xmoment=   0.0000E+00 ymoment=   0.0000E+00 zmoment=   0.0000E+00
 nd#    6390  xforce=   0.0000E+00   yforce=   0.0000E+00  zforce=   0.0000E+00   energy=   0.0000E+00   setid =    6390 xmoment=   0.0000E+00 ymoment=   0.0000E+00 zmoment=   0.0000E+00
 nd#    6391  xforce=   0.0000E+00   yforce=   0.0000E+00  zforce=   0.0000E+00   energy=   0.0000E+00   setid =    6391 xmoment=   0.0000E+00 ymoment=   0.0000E+00 zmoment=   0.0000E+00
 nd#    6394  xforce=   0.0000E+00   yforce=   0.0000E+00  zforce=   0.0000E+00   energy=   0.0000E+00   setid =    6394 xmoment=   0.0000E+00 ymoment=   0.0000E+00 zmoment=   0.0000E+00
 nd#    6395  xforce=   0.0000E+00   yforce=   0.0000E+00  zforce=   0.0000E+00   energy=   0.0000E+00   setid =    6395 xmoment=   0.0000E+00 ymoment=   0.0000E+00 zmoment=   0.0000E+00
 nd#    6398  xforce=   0.0000E+00   yforce=   0.0000E+00  zforce=   0.0000E+00   energy=   0.0000E+00   setid =    6398 xmoment=   0.0000E+00 ymoment=   0.0000E+00 zmoment=   0.0000E+00
 nd#    6399  xforce=   0.0000E+00   yforce=   0.0000E+00  zforce=   0.0000E+00   energy=   0.0000E+00   setid =    6399 xmoment=   0.0000E+00 ymoment=   0.0000E+00 zmoment=   0.0000E+00
 nd#    6402  xforce=   0.0000E+00   yforce=   0.0000E+00  zforce=   0.0000E+00   energy=   0.0000E+00   setid =    6402 xmoment=   0.0000E+00 ymoment=   0.0000E+00 zmoment=   0.0000E+00
 nd#    6403  xforce=   0.0000E+00   yforce=   0.0000E+00  zforce=   0.0000E+00   energy=   0.0000E+00   setid =    6403 xmoment=   0.0000E+00 ymoment=   0.0000E+00 zmoment=   0.0000E+00
 nd#    6406  xforce=   0.0000E+00   yforce=   0.0000E+00  zforce=   0.0000E+00   energy=   0.0000E+00   setid =    6406 xmoment=   0.0000E+00 ymoment=   0.0000E+00 zmoment=   0.0000E+00
 nd#    6407  xforce=   0.0000E+00   yforce=   0.0000E+00  zforce=   0.0000E+00   energy=   0.0000E+00   setid =    6407 xmoment=   0.0000E+00 ymoment=   0.0000E+00 zmoment=   0.0000E+00
 nd#    6410  xforce=   0.0000E+00   yforce=   0.0000E+00  zforce=   0.0000E+00   energy=   0.0000E+00   setid =    6410 xmoment=   0.0000E+00 ymoment=   0.0000E+00 zmoment=   0.0000E+00
 nd#    6411  xforce=   0.0000E+00   yforce=   0.0000E+00  zforce=   0.0000E+00   energy=   0.0000E+00   setid =    6411 xmoment=   0.0000E+00 ymoment=   0.0000E+00 zmoment=   0.0000E+00
 nd#    6414  xforce=   0.0000E+00   yforce=   0.0000E+00  zforce=   0.0000E+00   energy=   0.0000E+00   setid =    6414 xmoment=   0.0000E+00 ymoment=   0.0000E+00 zmoment=   0.0000E+00
 nd#    6415  xforce=   0.0000E+00   yforce=   0.0000E+00  zforce=   0.0000E+00   energy=   0.0000E+00   setid =    6415 xmoment=   0.0000E+00 ymoment=   0.0000E+00 zmoment=   0.0000E+00
 nd#    6418  xforce=   0.0000E+00   yforce=   0.0000E+00  zforce=   0.0000E+00   energy=   0.0000E+00   setid =    6418 xmoment=   0.0000E+00 ymoment=   0.0000E+00 zmoment=   0.0000E+00
 nd#    6419  xforce=   0.0000E+00   yforce=   0.0000E+00  zforce=   0.0000E+00   energy=   0.0000E+00   setid =    6419 xmoment=   0.0000E+00 ymoment=   0.0000E+00 zmoment=   0.0000E+00
 nd#    6542  xforce=   0.0000E+00   yforce=   0.0000E+00  zforce=   0.0000E+00   energy=   0.0000E+00   setid =    6542 xmoment=   0.0000E+00 ymoment=   0.0000E+00 zmoment=   0.0000E+00
 nd#    6543  xforce=   0.0000E+00   yforce=   0.0000E+00  zforce=   0.0000E+00   energy=   0.0000E+00   setid =    6543 xmoment=   0.0000E+00 ymoment=   0.0000E+00 zmoment=   0.0000E+00
 nd#    6546  xforce=   0.0000E+00   yforce=   0.0000E+00  zforce=   0.0000E+00   energy=   0.0000E+00   setid =    6546 xmoment=   0.0000E+00 ymoment=   0.0000E+00 zmoment=   0.0000E+00
 nd#    6547  xforce=   0.0000E+00   yforce=   0.0000E+00  zforce=   0.0000E+00   energy=   0.0000E+00   setid =    6547 xmoment=   0.0000E+00 ymoment=   0.0000E+00 zmoment=   0.0000E+00
 nd#    6550  xforce=   0.0000E+00   yforce=   0.0000E+00  zforce=   0.0000E+00   energy=   0.0000E+00   setid =    6550 xmoment=   0.0000E+00 ymoment=   0.0000E+00 zmoment=   0.0000E+00
 nd#    6551  xforce=   0.0000E+00   yforce=   0.0000E+00  zforce=   0.0000E+00   energy=   0.0000E+00   setid =    6551 xmoment=   0.0000E+00 ymoment=   0.0000E+00 zmoment=   0.0000E+00
 nd#    6554  xforce=   0.0000E+00   yforce=   0.0000E+00  zforce=   0.0000E+00   energy=   0.0000E+00   setid =    6554 xmoment=   0.0000E+00 ymoment=   0.0000E+00 zmoment=   0.0000E+00
 nd#    6555  xforce=   0.0000E+00   yforce=   0.0000E+00  zforce=   0.0000E+00   energy=   0.0000E+00   setid =    6555 xmoment=   0.0000E+00 ymoment=   0.0000E+00 zmoment=   0.0000E+00
 nd#    6558  xforce=   0.0000E+00   yforce=   0.0000E+00  zforce=   0.0000E+00   energy=   0.0000E+00   setid =    6558 xmoment=   0.0000E+00 ymoment=   0.0000E+00 zmoment=   0.0000E+00
 nd#    6559  xforce=   0.0000E+00   yforce=   0.0000E+00  zforce=   0.0000E+00   energy=   0.0000E+00   setid =    6559 xmoment=   0.0000E+00 ymoment=   0.0000E+00 zmoment=   0.0000E+00
 nd#    6562  xforce=   0.0000E+00   yforce=   0.0000E+00  zforce=   0.0000E+00   energy=   0.0000E+00   setid =    6562 xmoment=   0.0000E+00 ymoment=   0.0000E+00 zmoment=   0.0000E+00
 nd#    6563  xforce=   0.0000E+00   yforce=   0.0000E+00  zforce=   0.0000E+00   energy=   0.0000E+00   setid =    6563 xmoment=   0.0000E+00 ymoment=   0.0000E+00 zmoment=   0.0000E+00
 nd#    6566  xforce=   0.0000E+00   yforce=   0.0000E+00  zforce=   0.0000E+00   energy=   0.0000E+00   setid =    6566 xmoment=   0.0000E+00 ymoment=   0.0000E+00 zmoment=   0.0000E+00
 nd#    6567  xforce=   0.0000E+00   yforce=   0.0000E+00  zforce=   0.0000E+00   energy=   0.0000E+00   setid =    6567 xmoment=   0.0000E+00 ymoment=   0.0000E+00 zmoment=   0.0000E+00
 nd#    6570  xforce=   0.0000E+00   yforce=   0.0000E+00  zforce=   0.0000E+00   energy=   0.0000E+00   setid =    6570 xmoment=   0.0000E+00 ymoment=   0.0000E+00 zmoment=   0.0000E+00
 nd#    6571  xforce=   0.0000E+00   yforce=   0.0000E+00  zforce=   0.0000E+00   energy=   0.0000E+00   setid =    6571 xmoment=   0.0000E+00 ymoment=   0.0000E+00 zmoment=   0.0000E+00
 nd#    6598  xforce=   0.0000E+00   yforce=   0.0000E+00  zforce=   0.0000E+00   energy=   0.0000E+00   setid =    6598 xmoment=   0.0000E+00 ymoment=   0.0000E+00 zmoment=   0.0000E+00
 nd#    6599  xforce=   0.0000E+00   yforce=   0.0000E+00  zforce=   0.0000E+00   energy=   0.0000E+00   setid =    6599 xmoment=   0.0000E+00 ymoment=   0.0000E+00 zmoment=   0.0000E+00
 nd#    6600  xforce=   0.0000E+00   yforce=   0.0000E+00  zforce=   0.0000E+00   energy=   0.0000E+00   setid =    6600 xmoment=   0.0000E+00 ymoment=   0.0000E+00 zmoment=   0.0000E+00
 nd#    6601  xforce=   0.0000E+00   yforce=   0.0000E+00  zforce=   0.0000E+00   energy=   0.0000E+00   setid =    6601 xmoment=   0.0000E+00 ymoment=   0.0000E+00 zmoment=   0.0000E+00
 nd#    6602  xforce=   0.0000E+00   yforce=   0.0000E+00  zforce=   0.0000E+00   energy=   0.0000E+00   setid =    6602 xmoment=   0.0000E+00 ymoment=   0.0000E+00 zmoment=   0.0000E+00
 nd#    6603  xforce=   0.0000E+00   yforce=   0.0000E+00  zforce=   0.0000E+00   energy=   0.0000E+00   setid =    6603 xmoment=   0.0000E+00 ymoment=   0.0000E+00 zmoment=   0.0000E+00
 nd#    6604  xforce=   0.0000E+00   yforce=   0.0000E+00  zforce=   0.0000E+00   energy=   0.0000E+00   setid =    6604 xmoment=   0.0000E+00 ymoment=   0.0000E+00 zmoment=   0.0000E+00
 nd#    6605  xforce=   0.0000E+00   yforce=   0.0000E+00  zforce=   0.0000E+00   energy=   0.0000E+00   setid =    6605 xmoment=   0.0000E+00 ymoment=   0.0000E+00 zmoment=   0.0000E+00
 nd#    6606  xforce=   0.0000E+00   yforce=   0.0000E+00  zforce=   0.0000E+00   energy=   0.0000E+00   setid =    6606 xmoment=   0.0000E+00 ymoment=   0.0000E+00 zmoment=   0.0000E+00
 nd#    6607  xforce=   0.0000E+00   yforce=   0.0000E+00  zforce=   0.0000E+00   energy=   0.0000E+00   setid =    6607 xmoment=   0.0000E+00 ymoment=   0.0000E+00 zmoment=   0.0000E+00
 nd#    6608  xforce=   0.0000E+00   yforce=   0.0000E+00  zforce=   0.0000E+00   energy=   0.0000E+00   setid =    6608 xmoment=   0.0000E+00 ymoment=   0.0000E+00 zmoment=   0.0000E+00
 nd#    6609  xforce=   0.0000E+00   yforce=   0.0000E+00  zforce=   0.0000E+00   energy=   0.0000E+00   setid =    6609 xmoment=   0.0000E+00 ymoment=   0.0000E+00 zmoment=   0.0000E+00
 nd#    6610  xforce=   0.0000E+00   yforce=   0.0000E+00  zforce=   0.0000E+00   energy=   0.0000E+00   setid =    6610 xmoment=   0.0000E+00 ymoment=   0.0000E+00 zmoment=   0.0000E+00
 nd#    6611  xforce=   0.0000E+00   yforce=   0.0000E+00  zforce=   0.0000E+00   energy=   0.0000E+00   setid =    6611 xmoment=   0.0000E+00 ymoment=   0.0000E+00 zmoment=   0.0000E+00
 nd#    6612  xforce=   0.0000E+00   yforce=   0.0000E+00  zforce=   0.0000E+00   energy=   0.0000E+00   setid =    6612 xmoment=   0.0000E+00 ymoment=   0.0000E+00 zmoment=   0.0000E+00
 nd#    6613  xforce=   0.0000E+00   yforce=   0.0000E+00  zforce=   0.0000E+00   energy=   0.0000E+00   setid =    6613 xmoment=   0.0000E+00 ymoment=   0.0000E+00 zmoment=   0.0000E+00
 nd#    6854  xforce=   0.0000E+00   yforce=   0.0000E+00  zforce=   0.0000E+00   energy=   0.0000E+00   setid =    6854 xmoment=   0.0000E+00 ymoment=   0.0000E+00 zmoment=   0.0000E+00
 nd#    6856  xforce=   0.0000E+00   yforce=   0.0000E+00  zforce=   0.0000E+00   energy=   0.0000E+00   setid =    6856 xmoment=   0.0000E+00 ymoment=   0.0000E+00 zmoment=   0.0000E+00
 nd#    6858  xforce=   0.0000E+00   yforce=   0.0000E+00  zforce=   0.0000E+00   energy=   0.0000E+00   setid =    6858 xmoment=   0.0000E+00 ymoment=   0.0000E+00 zmoment=   0.0000E+00
 nd#    6860  xforce=   0.0000E+00   yforce=   0.0000E+00  zforce=   0.0000E+00   energy=   0.0000E+00   setid =    6860 xmoment=   0.0000E+00 ymoment=   0.0000E+00 zmoment=   0.0000E+00
 nd#    6862  xforce=   0.0000E+00   yforce=   0.0000E+00  zforce=   0.0000E+00   energy=   0.0000E+00   setid =    6862 xmoment=   0.0000E+00 ymoment=   0.0000E+00 zmoment=   0.0000E+00
 nd#    6864  xforce=   0.0000E+00   yforce=   0.0000E+00  zforce=   0.0000E+00   energy=   0.0000E+00   setid =    6864 xmoment=   0.0000E+00 ymoment=   0.0000E+00 zmoment=   0.0000E+00
 nd#    6866  xforce=   0.0000E+00   yforce=   0.0000E+00  zforce=   0.0000E+00   energy=   0.0000E+00   setid =    6866 xmoment=   0.0000E+00 ymoment=   0.0000E+00 zmoment=   0.0000E+00
 nd#    6868  xforce=   0.0000E+00   yforce=   0.0000E+00  zforce=   0.0000E+00   energy=   0.0000E+00   setid =    6868 xmoment=   0.0000E+00 ymoment=   0.0000E+00 zmoment=   0.0000E+00
 nd#    8222  xforce=   0.0000E+00   yforce=   0.0000E+00  zforce=   0.0000E+00   energy=   0.0000E+00   setid =    8222 xmoment=   0.0000E+00 ymoment=   0.0000E+00 zmoment=   0.0000E+00
 nd#    8223  xforce=   0.0000E+00   yforce=   0.0000E+00  zforce=   0.0000E+00   energy=   0.0000E+00   setid =    8223 xmoment=   0.0000E+00 ymoment=   0.0000E+00 zmoment=   0.0000E+00
 nd#    8226  xforce=   0.0000E+00   yforce=   0.0000E+00  zforce=   0.0000E+00   energy=   0.0000E+00   setid =    8226 xmoment=   0.0000E+00 ymoment=   0.0000E+00 zmoment=   0.0000E+00
 nd#    8227  xforce=   0.0000E+00   yforce=   0.0000E+00  zforce=   0.0000E+00   energy=   0.0000E+00   setid =    8227 xmoment=   0.0000E+00 ymoment=   0.0000E+00 zmoment=   0.0000E+00
 nd#    8230  xforce=   0.0000E+00   yforce=   0.0000E+00  zforce=   0.0000E+00   energy=   0.0000E+00   setid =    8230 xmoment=   0.0000E+00 ymoment=   0.0000E+00 zmoment=   0.0000E+00
 nd#    8231  xforce=   0.0000E+00   yforce=   0.0000E+00  zforce=   0.0000E+00   energy=   0.0000E+00   setid =    8231 xmoment=   0.0000E+00 ymoment=   0.0000E+00 zmoment=   0.0000E+00
 nd#    8234  xforce=   0.0000E+00   yforce=   0.0000E+00  zforce=   0.0000E+00   energy=   0.0000E+00   setid =    8234 xmoment=   0.0000E+00 ymoment=   0.0000E+00 zmoment=   0.0000E+00
 nd#    8235  xforce=   0.0000E+00   yforce=   0.0000E+00  zforce=   0.0000E+00   energy=   0.0000E+00   setid =    8235 xmoment=   0.0000E+00 ymoment=   0.0000E+00 zmoment=   0.0000E+00
 nd#    8238  xforce=   0.0000E+00   yforce=   0.0000E+00  zforce=   0.0000E+00   energy=   0.0000E+00   setid =    8238 xmoment=   0.0000E+00 ymoment=   0.0000E+00 zmoment=   0.0000E+00
 nd#    8239  xforce=   0.0000E+00   yforce=   0.0000E+00  zforce=   0.0000E+00   energy=   0.0000E+00   setid =    8239 xmoment=   0.0000E+00 ymoment=   0.0000E+00 zmoment=   0.0000E+00
 nd#    8242  xforce=   0.0000E+00   yforce=   0.0000E+00  zforce=   0.0000E+00   energy=   0.0000E+00   setid =    8242 xmoment=   0.0000E+00 ymoment=   0.0000E+00 zmoment=   0.0000E+00
 nd#    8243  xforce=   0.0000E+00   yforce=   0.0000E+00  zforce=   0.0000E+00   energy=   0.0000E+00   setid =    8243 xmoment=   0.0000E+00 ymoment=   0.0000E+00 zmoment=   0.0000E+00
 nd#    8246  xforce=   0.0000E+00   yforce=   0.0000E+00  zforce=   0.0000E+00   energy=   0.0000E+00   setid =    8246 xmoment=   0.0000E+00 ymoment=   0.0000E+00 zmoment=   0.0000E+00
 nd#    8247  xforce=   0.0000E+00   yforce=   0.0000E+00  zforce=   0.0000E+00   energy=   0.0000E+00   setid =    8247 xmoment=   0.0000E+00 ymoment=   0.0000E+00 zmoment=   0.0000E+00
 nd#    8250  xforce=   0.0000E+00   yforce=   0.0000E+00  zforce=   0.0000E+00   energy=   0.0000E+00   setid =    8250 xmoment=   0.0000E+00 ymoment=   0.0000E+00 zmoment=   0.0000E+00
 nd#    8251  xforce=   0.0000E+00   yforce=   0.0000E+00  zforce=   0.0000E+00   energy=   0.0000E+00   setid =    8251 xmoment=   0.0000E+00 ymoment=   0.0000E+00 zmoment=   0.0000E+00
 nd#    9318  xforce=   0.0000E+00   yforce=   0.0000E+00  zforce=   0.0000E+00   energy=   0.0000E+00   setid =    9318 xmoment=   0.0000E+00 ymoment=   0.0000E+00 zmoment=   0.0000E+00
 nd#    9320  xforce=   0.0000E+00   yforce=   0.0000E+00  zforce=   0.0000E+00   energy=   0.0000E+00   setid =    9320 xmoment=   0.0000E+00 ymoment=   0.0000E+00 zmoment=   0.0000E+00
 nd#    9322  xforce=   0.0000E+00   yforce=   0.0000E+00  zforce=   0.0000E+00   energy=   0.0000E+00   setid =    9322 xmoment=   0.0000E+00 ymoment=   0.0000E+00 zmoment=   0.0000E+00
 nd#    9324  xforce=   0.0000E+00   yforce=   0.0000E+00  zforce=   0.0000E+00   energy=   0.0000E+00   setid =    9324 xmoment=   0.0000E+00 ymoment=   0.0000E+00 zmoment=   0.0000E+00
 nd#    9326  xforce=   0.0000E+00   yforce=   0.0000E+00  zforce=   0.0000E+00   energy=   0.0000E+00   setid =    9326 xmoment=   0.0000E+00 ymoment=   0.0000E+00 zmoment=   0.0000E+00
 nd#    9328  xforce=   0.0000E+00   yforce=   0.0000E+00  zforce=   0.0000E+00   energy=   0.0000E+00   setid =    9328 xmoment=   0.0000E+00 ymoment=   0.0000E+00 zmoment=   0.0000E+00
 nd#    9330  xforce=   0.0000E+00   yforce=   0.0000E+00  zforce=   0.0000E+00   energy=   0.0000E+00   setid =    9330 xmoment=   0.0000E+00 ymoment=   0.0000E+00 zmoment=   0.0000E+00
 nd#    9332  xforce=   0.0000E+00   yforce=   0.0000E+00  zforce=   0.0000E+00   energy=   0.0000E+00   setid =    9332 xmoment=   0.0000E+00 ymoment=   0.0000E+00 zmoment=   0.0000E+00
 nd#    9822  xforce=   0.0000E+00   yforce=   0.0000E+00  zforce=   0.0000E+00   energy=   0.0000E+00   setid =    9822 xmoment=   0.0000E+00 ymoment=   0.0000E+00 zmoment=   0.0000E+00
 nd#    9824  xforce=   0.0000E+00   yforce=   0.0000E+00  zforce=   0.0000E+00   energy=   0.0000E+00   setid =    9824 xmoment=   0.0000E+00 ymoment=   0.0000E+00 zmoment=   0.0000E+00
 nd#    9826  xforce=   0.0000E+00   yforce=   0.0000E+00  zforce=   0.0000E+00   energy=   0.0000E+00   setid =    9826 xmoment=   0.0000E+00 ymoment=   0.0000E+00 zmoment=   0.0000E+00
 nd#    9828  xforce=   0.0000E+00   yforce=   0.0000E+00  zforce=   0.0000E+00   energy=   0.0000E+00   setid =    9828 xmoment=   0.0000E+00 ymoment=   0.0000E+00 zmoment=   0.0000E+00
 nd#    9830  xforce=   0.0000E+00   yforce=   0.0000E+00  zforce=   0.0000E+00   energy=   0.0000E+00   setid =    9830 xmoment=   0.0000E+00 ymoment=   0.0000E+00 zmoment=   0.0000E+00
 nd#    9832  xforce=   0.0000E+00   yforce=   0.0000E+00  zforce=   0.0000E+00   energy=   0.0000E+00   setid =    9832 xmoment=   0.0000E+00 ymoment=   0.0000E+00 zmoment=   0.0000E+00
 nd#    9834  xforce=   0.0000E+00   yforce=   0.0000E+00  zforce=   0.0000E+00   energy=   0.0000E+00   setid =    9834 xmoment=   0.0000E+00 ymoment=   0.0000E+00 zmoment=   0.0000E+00
 nd#    9836  xforce=   0.0000E+00   yforce=   0.0000E+00  zforce=   0.0000E+00   energy=   0.0000E+00   setid =    9836 xmoment=   0.0000E+00 ymoment=   0.0000E+00 zmoment=   0.0000E+00
 nd#   10558  xforce=   0.0000E+00   yforce=   0.0000E+00  zforce=   0.0000E+00   energy=   0.0000E+00   setid =   10558 xmoment=   0.0000E+00 ymoment=   0.0000E+00 zmoment=   0.0000E+00
 nd#   10559  xforce=   0.0000E+00   yforce=   0.0000E+00  zforce=   0.0000E+00   energy=   0.0000E+00   setid =   10559 xmoment=   0.0000E+00 ymoment=   0.0000E+00 zmoment=   0.0000E+00
 nd#   10562  xforce=   0.0000E+00   yforce=   0.0000E+00  zforce=   0.0000E+00   energy=   0.0000E+00   setid =   10562 xmoment=   0.0000E+00 ymoment=   0.0000E+00 zmoment=   0.0000E+00
 nd#   10563  xforce=   0.0000E+00   yforce=   0.0000E+00  zforce=   0.0000E+00   energy=   0.0000E+00   setid =   10563 xmoment=   0.0000E+00 ymoment=   0.0000E+00 zmoment=   0.0000E+00
 nd#   10566  xforce=   0.0000E+00   yforce=   0.0000E+00  zforce=   0.0000E+00   energy=   0.0000E+00   setid =   10566 xmoment=   0.0000E+00 ymoment=   0.0000E+00 zmoment=   0.0000E+00
 nd#   10567  xforce=   0.0000E+00   yforce=   0.0000E+00  zforce=   0.0000E+00   energy=   0.0000E+00   setid =   10567 xmoment=   0.0000E+00 ymoment=   0.0000E+00 zmoment=   0.0000E+00
 nd#   10570  xforce=   0.0000E+00   yforce=   0.0000E+00  zforce=   0.0000E+00   energy=   0.0000E+00   setid =   10570 xmoment=   0.0000E+00 ymoment=   0.0000E+00 zmoment=   0.0000E+00
 nd#   10571  xforce=   0.0000E+00   yforce=   0.0000E+00  zforce=   0.0000E+00   energy=   0.0000E+00   setid =   10571 xmoment=   0.0000E+00 ymoment=   0.0000E+00 zmoment=   0.0000E+00
 nd#   10574  xforce=   0.0000E+00   yforce=   0.0000E+00  zforce=   0.0000E+00   energy=   0.0000E+00   setid =   10574 xmoment=   0.0000E+00 ymoment=   0.0000E+00 zmoment=   0.0000E+00
 nd#   10575  xforce=   0.0000E+00   yforce=   0.0000E+00  zforce=   0.0000E+00   energy=   0.0000E+00   setid =   10575 xmoment=   0.0000E+00 ymoment=   0.0000E+00 zmoment=   0.0000E+00
 nd#   10578  xforce=   0.0000E+00   yforce=   0.0000E+00  zforce=   0.0000E+00   energy=   0.0000E+00   setid =   10578 xmoment=   0.0000E+00 ymoment=   0.0000E+00 zmoment=   0.0000E+00
 nd#   10579  xforce=   0.0000E+00   yforce=   0.0000E+00  zforce=   0.0000E+00   energy=   0.0000E+00   setid =   10579 xmoment=   0.0000E+00 ymoment=   0.0000E+00 zmoment=   0.0000E+00
 nd#   10582  xforce=   0.0000E+00   yforce=   0.0000E+00  zforce=   0.0000E+00   energy=   0.0000E+00   setid =   10582 xmoment=   0.0000E+00 ymoment=   0.0000E+00 zmoment=   0.0000E+00
 nd#   10583  xforce=   0.0000E+00   yforce=   0.0000E+00  zforce=   0.0000E+00   energy=   0.0000E+00   setid =   10583 xmoment=   0.0000E+00 ymoment=   0.0000E+00 zmoment=   0.0000E+00
 nd#   10586  xforce=   0.0000E+00   yforce=   0.0000E+00  zforce=   0.0000E+00   energy=   0.0000E+00   setid =   10586 xmoment=   0.0000E+00 ymoment=   0.0000E+00 zmoment=   0.0000E+00
 nd#   10587  xforce=   0.0000E+00   yforce=   0.0000E+00  zforce=   0.0000E+00   energy=   0.0000E+00   setid =   10587 xmoment=   0.0000E+00 ymoment=   0.0000E+00 zmoment=   0.0000E+00
 nd#   10710  xforce=   0.0000E+00   yforce=   0.0000E+00  zforce=   0.0000E+00   energy=   0.0000E+00   setid =   10710 xmoment=   0.0000E+00 ymoment=   0.0000E+00 zmoment=   0.0000E+00
 nd#   10711  xforce=   0.0000E+00   yforce=   0.0000E+00  zforce=   0.0000E+00   energy=   0.0000E+00   setid =   10711 xmoment=   0.0000E+00 ymoment=   0.0000E+00 zmoment=   0.0000E+00
 nd#   10712  xforce=   0.0000E+00   yforce=   0.0000E+00  zforce=   0.0000E+00   energy=   0.0000E+00   setid =   10712 xmoment=   0.0000E+00 ymoment=   0.0000E+00 zmoment=   0.0000E+00
 nd#   10713  xforce=   0.0000E+00   yforce=   0.0000E+00  zforce=   0.0000E+00   energy=   0.0000E+00   setid =   10713 xmoment=   0.0000E+00 ymoment=   0.0000E+00 zmoment=   0.0000E+00
 nd#   10714  xforce=   0.0000E+00   yforce=   0.0000E+00  zforce=   0.0000E+00   energy=   0.0000E+00   setid =   10714 xmoment=   0.0000E+00 ymoment=   0.0000E+00 zmoment=   0.0000E+00
 nd#   10715  xforce=   0.0000E+00   yforce=   0.0000E+00  zforce=   0.0000E+00   energy=   0.0000E+00   setid =   10715 xmoment=   0.0000E+00 ymoment=   0.0000E+00 zmoment=   0.0000E+00
 nd#   10716  xforce=   0.0000E+00   yforce=   0.0000E+00  zforce=   0.0000E+00   energy=   0.0000E+00   setid =   10716 xmoment=   0.0000E+00 ymoment=   0.0000E+00 zmoment=   0.0000E+00
 nd#   10717  xforce=   0.0000E+00   yforce=   0.0000E+00  zforce=   0.0000E+00   energy=   0.0000E+00   setid =   10717 xmoment=   0.0000E+00 ymoment=   0.0000E+00 zmoment=   0.0000E+00
 nd#   10990  xforce=   0.0000E+00   yforce=   0.0000E+00  zforce=   0.0000E+00   energy=   0.0000E+00   setid =   10990 xmoment=   0.0000E+00 ymoment=   0.0000E+00 zmoment=   0.0000E+00
 nd#   10992  xforce=   0.0000E+00   yforce=   0.0000E+00  zforce=   0.0000E+00   energy=   0.0000E+00   setid =   10992 xmoment=   0.0000E+00 ymoment=   0.0000E+00 zmoment=   0.0000E+00
 nd#   10994  xforce=   0.0000E+00   yforce=   0.0000E+00  zforce=   0.0000E+00   energy=   0.0000E+00   setid =   10994 xmoment=   0.0000E+00 ymoment=   0.0000E+00 zmoment=   0.0000E+00
 nd#   10996  xforce=   0.0000E+00   yforce=   0.0000E+00  zforce=   0.0000E+00   energy=   0.0000E+00   setid =   10996 xmoment=   0.0000E+00 ymoment=   0.0000E+00 zmoment=   0.0000E+00
 nd#   10998  xforce=   0.0000E+00   yforce=   0.0000E+00  zforce=   0.0000E+00   energy=   0.0000E+00   setid =   10998 xmoment=   0.0000E+00 ymoment=   0.0000E+00 zmoment=   0.0000E+00
 nd#   11000  xforce=   0.0000E+00   yforce=   0.0000E+00  zforce=   0.0000E+00   energy=   0.0000E+00   setid =   11000 xmoment=   0.0000E+00 ymoment=   0.0000E+00 zmoment=   0.0000E+00
 nd#   11002  xforce=   0.0000E+00   yforce=   0.0000E+00  zforce=   0.0000E+00   energy=   0.0000E+00   setid =   11002 xmoment=   0.0000E+00 ymoment=   0.0000E+00 zmoment=   0.0000E+00
 nd#   11004  xforce=   0.0000E+00   yforce=   0.0000E+00  zforce=   0.0000E+00   energy=   0.0000E+00   setid =   11004 xmoment=   0.0000E+00 ymoment=   0.0000E+00 zmoment=   0.0000E+00
 nd#   11078  xforce=   0.0000E+00   yforce=   0.0000E+00  zforce=   0.0000E+00   energy=   0.0000E+00   setid =   11078 xmoment=   0.0000E+00 ymoment=   0.0000E+00 zmoment=   0.0000E+00
 nd#   11079  xforce=   0.0000E+00   yforce=   0.0000E+00  zforce=   0.0000E+00   energy=   0.0000E+00   setid =   11079 xmoment=   0.0000E+00 ymoment=   0.0000E+00 zmoment=   0.0000E+00
 nd#   11080  xforce=   0.0000E+00   yforce=   0.0000E+00  zforce=   0.0000E+00   energy=   0.0000E+00   setid =   11080 xmoment=   0.0000E+00 ymoment=   0.0000E+00 zmoment=   0.0000E+00
 nd#   11081  xforce=   0.0000E+00   yforce=   0.0000E+00  zforce=   0.0000E+00   energy=   0.0000E+00   setid =   11081 xmoment=   0.0000E+00 ymoment=   0.0000E+00 zmoment=   0.0000E+00
 nd#   11082  xforce=   0.0000E+00   yforce=   0.0000E+00  zforce=   0.0000E+00   energy=   0.0000E+00   setid =   11082 xmoment=   0.0000E+00 ymoment=   0.0000E+00 zmoment=   0.0000E+00
 nd#   11083  xforce=   0.0000E+00   yforce=   0.0000E+00  zforce=   0.0000E+00   energy=   0.0000E+00   setid =   11083 xmoment=   0.0000E+00 ymoment=   0.0000E+00 zmoment=   0.0000E+00
 nd#   11084  xforce=   0.0000E+00   yforce=   0.0000E+00  zforce=   0.0000E+00   energy=   0.0000E+00   setid =   11084 xmoment=   0.0000E+00 ymoment=   0.0000E+00 zmoment=   0.0000E+00
 nd#   11085  xforce=   0.0000E+00   yforce=   0.0000E+00  zforce=   0.0000E+00   energy=   0.0000E+00   setid =   11085 xmoment=   0.0000E+00 ymoment=   0.0000E+00 zmoment=   0.0000E+00
 nd#   11222  xforce=   0.0000E+00   yforce=   0.0000E+00  zforce=   0.0000E+00   energy=   0.0000E+00   setid =   11222 xmoment=   0.0000E+00 ymoment=   0.0000E+00 zmoment=   0.0000E+00
 nd#   11223  xforce=   0.0000E+00   yforce=   0.0000E+00  zforce=   0.0000E+00   energy=   0.0000E+00   setid =   11223 xmoment=   0.0000E+00 ymoment=   0.0000E+00 zmoment=   0.0000E+00
 nd#   11224  xforce=   0.0000E+00   yforce=   0.0000E+00  zforce=   0.0000E+00   energy=   0.0000E+00   setid =   11224 xmoment=   0.0000E+00 ymoment=   0.0000E+00 zmoment=   0.0000E+00
 nd#   11225  xforce=   0.0000E+00   yforce=   0.0000E+00  zforce=   0.0000E+00   energy=   0.0000E+00   setid =   11225 xmoment=   0.0000E+00 ymoment=   0.0000E+00 zmoment=   0.0000E+00
 nd#   11226  xforce=   0.0000E+00   yforce=   0.0000E+00  zforce=   0.0000E+00   energy=   0.0000E+00   setid =   11226 xmoment=   0.0000E+00 ymoment=   0.0000E+00 zmoment=   0.0000E+00
 nd#   11227  xforce=   0.0000E+00   yforce=   0.0000E+00  zforce=   0.0000E+00   energy=   0.0000E+00   setid =   11227 xmoment=   0.0000E+00 ymoment=   0.0000E+00 zmoment=   0.0000E+00
 nd#   11228  xforce=   0.0000E+00   yforce=   0.0000E+00  zforce=   0.0000E+00   energy=   0.0000E+00   setid =   11228 xmoment=   0.0000E+00 ymoment=   0.0000E+00 zmoment=   0.0000E+00
 nd#   11229  xforce=   0.0000E+00   yforce=   0.0000E+00  zforce=   0.0000E+00   energy=   0.0000E+00   setid =   11229 xmoment=   0.0000E+00 ymoment=   0.0000E+00 zmoment=   0.0000E+00
 nd#   11238  xforce=   0.0000E+00   yforce=   0.0000E+00  zforce=   0.0000E+00   energy=   0.0000E+00   setid =   11238 xmoment=   0.0000E+00 ymoment=   0.0000E+00 zmoment=   0.0000E+00
 nd#   11239  xforce=   0.0000E+00   yforce=   0.0000E+00  zforce=   0.0000E+00   energy=   0.0000E+00   setid =   11239 xmoment=   0.0000E+00 ymoment=   0.0000E+00 zmoment=   0.0000E+00
 nd#   11240  xforce=   0.0000E+00   yforce=   0.0000E+00  zforce=   0.0000E+00   energy=   0.0000E+00   setid =   11240 xmoment=   0.0000E+00 ymoment=   0.0000E+00 zmoment=   0.0000E+00
 nd#   11241  xforce=   0.0000E+00   yforce=   0.0000E+00  zforce=   0.0000E+00   energy=   0.0000E+00   setid =   11241 xmoment=   0.0000E+00 ymoment=   0.0000E+00 zmoment=   0.0000E+00
 nd#   11242  xforce=   0.0000E+00   yforce=   0.0000E+00  zforce=   0.0000E+00   energy=   0.0000E+00   setid =   11242 xmoment=   0.0000E+00 ymoment=   0.0000E+00 zmoment=   0.0000E+00
 nd#   11243  xforce=   0.0000E+00   yforce=   0.0000E+00  zforce=   0.0000E+00   energy=   0.0000E+00   setid =   11243 xmoment=   0.0000E+00 ymoment=   0.0000E+00 zmoment=   0.0000E+00
 nd#   11244  xforce=   0.0000E+00   yforce=   0.0000E+00  zforce=   0.0000E+00   energy=   0.0000E+00   setid =   11244 xmoment=   0.0000E+00 ymoment=   0.0000E+00 zmoment=   0.0000E+00
 nd#   11245  xforce=   0.0000E+00   yforce=   0.0000E+00  zforce=   0.0000E+00   energy=   0.0000E+00   setid =   11245 xmoment=   0.0000E+00 ymoment=   0.0000E+00 zmoment=   0.0000E+00
 nd#   11246  xforce=   0.0000E+00   yforce=   0.0000E+00  zforce=   0.0000E+00   energy=   0.0000E+00   setid =   11246 xmoment=   0.0000E+00 ymoment=   0.0000E+00 zmoment=   0.0000E+00
 nd#   11247  xforce=   0.0000E+00   yforce=   0.0000E+00  zforce=   0.0000E+00   energy=   0.0000E+00   setid =   11247 xmoment=   0.0000E+00 ymoment=   0.0000E+00 zmoment=   0.0000E+00
 nd#   11248  xforce=   0.0000E+00   yforce=   0.0000E+00  zforce=   0.0000E+00   energy=   0.0000E+00   setid =   11248 xmoment=   0.0000E+00 ymoment=   0.0000E+00 zmoment=   0.0000E+00
 nd#   11249  xforce=   0.0000E+00   yforce=   0.0000E+00  zforce=   0.0000E+00   energy=   0.0000E+00   setid =   11249 xmoment=   0.0000E+00 ymoment=   0.0000E+00 zmoment=   0.0000E+00
 nd#   11250  xforce=   0.0000E+00   yforce=   0.0000E+00  zforce=   0.0000E+00   energy=   0.0000E+00   setid =   11250 xmoment=   0.0000E+00 ymoment=   0.0000E+00 zmoment=   0.0000E+00
 nd#   11251  xforce=   0.0000E+00   yforce=   0.0000E+00  zforce=   0.0000E+00   energy=   0.0000E+00   setid =   11251 xmoment=   0.0000E+00 ymoment=   0.0000E+00 zmoment=   0.0000E+00
 nd#   11252  xforce=   0.0000E+00   yforce=   0.0000E+00  zforce=   0.0000E+00   energy=   0.0000E+00   setid =   11252 xmoment=   0.0000E+00 ymoment=   0.0000E+00 zmoment=   0.0000E+00
 nd#   11253  xforce=   0.0000E+00   yforce=   0.0000E+00  zforce=   0.0000E+00   energy=   0.0000E+00   setid =   11253 xmoment=   0.0000E+00 ymoment=   0.0000E+00 zmoment=   0.0000E+00
              xtotal=   0.0000E+00   ytotal=   0.0000E+00  ztotal=   0.0000E+00   etotal=   0.0000E+00

 n o d a l   f o r c e/e n e r g y    o u t p u t  t=   2.50000E+00

 velocity boundary condition forces/rigid body moments 

 nd#     591  xforce=   0.0000E+00   yforce=   0.0000E+00  zforce=  -8.8478E+00   energy=   1.1060E-04   setid =     591 xmoment=   0.0000E+00 ymoment=   0.0000E+00 zmoment=   0.0000E+00
 nd#     592  xforce=   0.0000E+00   yforce=   0.0000E+00  zforce=  -8.5310E+00   energy=   1.0664E-04   setid =     592 xmoment=   0.0000E+00 ymoment=   0.0000E+00 zmoment=   0.0000E+00
 nd#     593  xforce=   0.0000E+00   yforce=   0.0000E+00  zforce=  -8.9339E+00   energy=   1.1167E-04   setid =     593 xmoment=   0.0000E+00 ymoment=   0.0000E+00 zmoment=   0.0000E+00
 nd#     594  xforce=   0.0000E+00   yforce=   0.0000E+00  zforce=  -9.2661E+00   energy=   1.1583E-04   setid =     594 xmoment=   0.0000E+00 ymoment=   0.0000E+00 zmoment=   0.0000E+00
 nd#     775  xforce=   0.0000E+00   yforce=   0.0000E+00  zforce=  -4.1024E+00   energy=   5.1280E-05   setid =     775 xmoment=   0.0000E+00 ymoment=   0.0000E+00 zmoment=   0.0000E+00
 nd#     776  xforce=   0.0000E+00   yforce=   0.0000E+00  zforce=  -7.4201E+00   energy=   9.2751E-05   setid =     776 xmoment=   0.0000E+00 ymoment=   0.0000E+00 zmoment=   0.0000E+00
 nd#     777  xforce=   0.0000E+00   yforce=   0.0000E+00  zforce=  -5.5904E+00   energy=   6.9880E-05   setid =     777 xmoment=   0.0000E+00 ymoment=   0.0000E+00 zmoment=   0.0000E+00
 nd#     778  xforce=   0.0000E+00   yforce=   0.0000E+00  zforce=  -2.9747E+00   energy=   3.7184E-05   setid =     778 xmoment=   0.0000E+00 ymoment=   0.0000E+00 zmoment=   0.0000E+00
 nd#     959  xforce=   0.0000E+00   yforce=   0.0000E+00  zforce=  -7.8270E+00   energy=   9.7837E-05   setid =     959 xmoment=   0.0000E+00 ymoment=   0.0000E+00 zmoment=   0.0000E+00
 nd#     960  xforce=   0.0000E+00   yforce=   0.0000E+00  zforce=  -6.3187E+00   energy=   7.8984E-05   setid =     960 xmoment=   0.0000E+00 ymoment=   0.0000E+00 zmoment=   0.0000E+00
 nd#     961  xforce=   0.0000E+00   yforce=   0.0000E+00  zforce=  -6.6273E+00   energy=   8.2841E-05   setid =     961 xmoment=   0.0000E+00 ymoment=   0.0000E+00 zmoment=   0.0000E+00
 nd#     962  xforce=   0.0000E+00   yforce=   0.0000E+00  zforce=  -8.3119E+00   energy=   1.0390E-04   setid =     962 xmoment=   0.0000E+00 ymoment=   0.0000E+00 zmoment=   0.0000E+00
 nd#    1143  xforce=   0.0000E+00   yforce=   0.0000E+00  zforce=  -7.9335E+00   energy=   9.9169E-05   setid =    1143 xmoment=   0.0000E+00 ymoment=   0.0000E+00 zmoment=   0.0000E+00
 nd#    1144  xforce=   0.0000E+00   yforce=   0.0000E+00  zforce=  -6.1420E+00   energy=   7.6776E-05   setid =    1144 xmoment=   0.0000E+00 ymoment=   0.0000E+00 zmoment=   0.0000E+00
 nd#    1145  xforce=   0.0000E+00   yforce=   0.0000E+00  zforce=  -6.6700E+00   energy=   8.3375E-05   setid =    1145 xmoment=   0.0000E+00 ymoment=   0.0000E+00 zmoment=   0.0000E+00
 nd#    1146  xforce=   0.0000E+00   yforce=   0.0000E+00  zforce=  -8.2758E+00   energy=   1.0345E-04   setid =    1146 xmoment=   0.0000E+00 ymoment=   0.0000E+00 zmoment=   0.0000E+00
 nd#    1237  xforce=   0.0000E+00   yforce=   0.0000E+00  zforce=  -9.2794E+00   energy=   1.1599E-04   setid =    1237 xmoment=   0.0000E+00 ymoment=   0.0000E+00 zmoment=   0.0000E+00
 nd#    1238  xforce=   0.0000E+00   yforce=   0.0000E+00  zforce=  -9.4599E+00   energy=   1.1825E-04   setid =    1238 xmoment=   0.0000E+00 ymoment=   0.0000E+00 zmoment=   0.0000E+00
 nd#    1419  xforce=   0.0000E+00   yforce=   0.0000E+00  zforce=  -6.6888E+00   energy=   8.3610E-05   setid =    1419 xmoment=   0.0000E+00 ymoment=   0.0000E+00 zmoment=   0.0000E+00
 nd#    1420  xforce=   0.0000E+00   yforce=   0.0000E+00  zforce=  -5.8985E+00   energy=   7.3731E-05   setid =    1420 xmoment=   0.0000E+00 ymoment=   0.0000E+00 zmoment=   0.0000E+00
 nd#    1421  xforce=   0.0000E+00   yforce=   0.0000E+00  zforce=  -7.1617E+00   energy=   8.9521E-05   setid =    1421 xmoment=   0.0000E+00 ymoment=   0.0000E+00 zmoment=   0.0000E+00
 nd#    1422  xforce=   0.0000E+00   yforce=   0.0000E+00  zforce=  -7.7593E+00   energy=   9.6991E-05   setid =    1422 xmoment=   0.0000E+00 ymoment=   0.0000E+00 zmoment=   0.0000E+00
 nd#    1468  xforce=   0.0000E+00   yforce=   0.0000E+00  zforce=  -5.9071E+00   energy=   7.3838E-05   setid =    1468 xmoment=   0.0000E+00 ymoment=   0.0000E+00 zmoment=   0.0000E+00
 nd#    1559  xforce=   0.0000E+00   yforce=   0.0000E+00  zforce=  -3.5543E+00   energy=   4.4429E-05   setid =    1559 xmoment=   0.0000E+00 ymoment=   0.0000E+00 zmoment=   0.0000E+00
 nd#    1560  xforce=   0.0000E+00   yforce=   0.0000E+00  zforce=  -4.1005E+00   energy=   5.1257E-05   setid =    1560 xmoment=   0.0000E+00 ymoment=   0.0000E+00 zmoment=   0.0000E+00
 nd#    1651  xforce=   0.0000E+00   yforce=   0.0000E+00  zforce=  -3.5385E+00   energy=   4.4232E-05   setid =    1651 xmoment=   0.0000E+00 ymoment=   0.0000E+00 zmoment=   0.0000E+00
 nd#    1652  xforce=   0.0000E+00   yforce=   0.0000E+00  zforce=  -4.3336E+00   energy=   5.4170E-05   setid =    1652 xmoment=   0.0000E+00 ymoment=   0.0000E+00 zmoment=   0.0000E+00
 nd#    1833  xforce=   0.0000E+00   yforce=   0.0000E+00  zforce=  -6.1837E+00   energy=   7.7297E-05   setid =    1833 xmoment=   0.0000E+00 ymoment=   0.0000E+00 zmoment=   0.0000E+00
 nd#    1834  xforce=   0.0000E+00   yforce=   0.0000E+00  zforce=  -5.3967E+00   energy=   6.7458E-05   setid =    1834 xmoment=   0.0000E+00 ymoment=   0.0000E+00 zmoment=   0.0000E+00
 nd#    1835  xforce=   0.0000E+00   yforce=   0.0000E+00  zforce=  -6.1071E+00   energy=   7.6339E-05   setid =    1835 xmoment=   0.0000E+00 ymoment=   0.0000E+00 zmoment=   0.0000E+00
 nd#    1836  xforce=   0.0000E+00   yforce=   0.0000E+00  zforce=  -6.7192E+00   energy=   8.3990E-05   setid =    1836 xmoment=   0.0000E+00 ymoment=   0.0000E+00 zmoment=   0.0000E+00
 nd#    1927  xforce=   0.0000E+00   yforce=   0.0000E+00  zforce=  -6.5820E+00   energy=   8.2275E-05   setid =    1927 xmoment=   0.0000E+00 ymoment=   0.0000E+00 zmoment=   0.0000E+00
 nd#    1928  xforce=   0.0000E+00   yforce=   0.0000E+00  zforce=  -3.5602E+00   energy=   4.4502E-05   setid =    1928 xmoment=   0.0000E+00 ymoment=   0.0000E+00 zmoment=   0.0000E+00
 nd#    1974  xforce=   0.0000E+00   yforce=   0.0000E+00  zforce=  -4.6320E+00   energy=   5.7900E-05   setid =    1974 xmoment=   0.0000E+00 ymoment=   0.0000E+00 zmoment=   0.0000E+00
 nd#    2110  xforce=   0.0000E+00   yforce=   0.0000E+00  zforce=  -5.2261E+00   energy=   6.5326E-05   setid =    2110 xmoment=   0.0000E+00 ymoment=   0.0000E+00 zmoment=   0.0000E+00
 nd#    2111  xforce=   0.0000E+00   yforce=   0.0000E+00  zforce=  -4.5882E+00   energy=   5.7353E-05   setid =    2111 xmoment=   0.0000E+00 ymoment=   0.0000E+00 zmoment=   0.0000E+00
 nd#    2112  xforce=   0.0000E+00   yforce=   0.0000E+00  zforce=  -6.3861E+00   energy=   7.9826E-05   setid =    2112 xmoment=   0.0000E+00 ymoment=   0.0000E+00 zmoment=   0.0000E+00
 nd#    2203  xforce=   0.0000E+00   yforce=   0.0000E+00  zforce=  -8.4982E+00   energy=   1.0623E-04   setid =    2203 xmoment=   0.0000E+00 ymoment=   0.0000E+00 zmoment=   0.0000E+00
 nd#    2204  xforce=   0.0000E+00   yforce=   0.0000E+00  zforce=  -9.1331E+00   energy=   1.1416E-04   setid =    2204 xmoment=   0.0000E+00 ymoment=   0.0000E+00 zmoment=   0.0000E+00
 nd#    2250  xforce=   0.0000E+00   yforce=   0.0000E+00  zforce=  -9.3154E+00   energy=   1.1644E-04   setid =    2250 xmoment=   0.0000E+00 ymoment=   0.0000E+00 zmoment=   0.0000E+00
 nd#    2296  xforce=   0.0000E+00   yforce=   0.0000E+00  zforce=  -7.9165E+00   energy=   9.8956E-05   setid =    2296 xmoment=   0.0000E+00 ymoment=   0.0000E+00 zmoment=   0.0000E+00
 nd#    2387  xforce=   0.0000E+00   yforce=   0.0000E+00  zforce=  -4.8327E+00   energy=   6.0409E-05   setid =    2387 xmoment=   0.0000E+00 ymoment=   0.0000E+00 zmoment=   0.0000E+00
 nd#    2388  xforce=   0.0000E+00   yforce=   0.0000E+00  zforce=  -4.7623E+00   energy=   5.9528E-05   setid =    2388 xmoment=   0.0000E+00 ymoment=   0.0000E+00 zmoment=   0.0000E+00
 nd#    2479  xforce=   0.0000E+00   yforce=   0.0000E+00  zforce=  -8.3845E+00   energy=   1.0481E-04   setid =    2479 xmoment=   0.0000E+00 ymoment=   0.0000E+00 zmoment=   0.0000E+00
 nd#    2480  xforce=   0.0000E+00   yforce=   0.0000E+00  zforce=  -8.3640E+00   energy=   1.0455E-04   setid =    2480 xmoment=   0.0000E+00 ymoment=   0.0000E+00 zmoment=   0.0000E+00
 nd#    2526  xforce=   0.0000E+00   yforce=   0.0000E+00  zforce=  -4.8151E+00   energy=   6.0189E-05   setid =    2526 xmoment=   0.0000E+00 ymoment=   0.0000E+00 zmoment=   0.0000E+00
 nd#    2617  xforce=   0.0000E+00   yforce=   0.0000E+00  zforce=  -3.2776E+00   energy=   4.0970E-05   setid =    2617 xmoment=   0.0000E+00 ymoment=   0.0000E+00 zmoment=   0.0000E+00
 nd#    2618  xforce=   0.0000E+00   yforce=   0.0000E+00  zforce=  -3.6637E+00   energy=   4.5796E-05   setid =    2618 xmoment=   0.0000E+00 ymoment=   0.0000E+00 zmoment=   0.0000E+00
 nd#    2709  xforce=   0.0000E+00   yforce=   0.0000E+00  zforce=  -5.1894E+00   energy=   6.4868E-05   setid =    2709 xmoment=   0.0000E+00 ymoment=   0.0000E+00 zmoment=   0.0000E+00
 nd#    2710  xforce=   0.0000E+00   yforce=   0.0000E+00  zforce=  -2.9093E+00   energy=   3.6366E-05   setid =    2710 xmoment=   0.0000E+00 ymoment=   0.0000E+00 zmoment=   0.0000E+00
 nd#    2801  xforce=   0.0000E+00   yforce=   0.0000E+00  zforce=  -5.3656E+00   energy=   6.7070E-05   setid =    2801 xmoment=   0.0000E+00 ymoment=   0.0000E+00 zmoment=   0.0000E+00
 nd#    2802  xforce=   0.0000E+00   yforce=   0.0000E+00  zforce=  -4.6581E+00   energy=   5.8226E-05   setid =    2802 xmoment=   0.0000E+00 ymoment=   0.0000E+00 zmoment=   0.0000E+00
 nd#    2983  xforce=   0.0000E+00   yforce=   0.0000E+00  zforce=  -3.7045E+00   energy=   4.6307E-05   setid =    2983 xmoment=   0.0000E+00 ymoment=   0.0000E+00 zmoment=   0.0000E+00
 nd#    2984  xforce=   0.0000E+00   yforce=   0.0000E+00  zforce=  -6.9346E+00   energy=   8.6683E-05   setid =    2984 xmoment=   0.0000E+00 ymoment=   0.0000E+00 zmoment=   0.0000E+00
 nd#    2985  xforce=   0.0000E+00   yforce=   0.0000E+00  zforce=  -3.8865E+00   energy=   4.8581E-05   setid =    2985 xmoment=   0.0000E+00 ymoment=   0.0000E+00 zmoment=   0.0000E+00
 nd#    2986  xforce=   0.0000E+00   yforce=   0.0000E+00  zforce=  -2.0912E+00   energy=   2.6141E-05   setid =    2986 xmoment=   0.0000E+00 ymoment=   0.0000E+00 zmoment=   0.0000E+00
 nd#    3122  xforce=   0.0000E+00   yforce=   0.0000E+00  zforce=  -2.8221E+00   energy=   3.5277E-05   setid =    3122 xmoment=   0.0000E+00 ymoment=   0.0000E+00 zmoment=   0.0000E+00
 nd#    3123  xforce=   0.0000E+00   yforce=   0.0000E+00  zforce=  -4.1827E+00   energy=   5.2284E-05   setid =    3123 xmoment=   0.0000E+00 ymoment=   0.0000E+00 zmoment=   0.0000E+00
 nd#    3124  xforce=   0.0000E+00   yforce=   0.0000E+00  zforce=  -5.3730E+00   energy=   6.7162E-05   setid =    3124 xmoment=   0.0000E+00 ymoment=   0.0000E+00 zmoment=   0.0000E+00
 nd#    3215  xforce=   0.0000E+00   yforce=   0.0000E+00  zforce=  -3.4506E+00   energy=   4.3132E-05   setid =    3215 xmoment=   0.0000E+00 ymoment=   0.0000E+00 zmoment=   0.0000E+00
 nd#    3216  xforce=   0.0000E+00   yforce=   0.0000E+00  zforce=  -4.0461E+00   energy=   5.0576E-05   setid =    3216 xmoment=   0.0000E+00 ymoment=   0.0000E+00 zmoment=   0.0000E+00
 nd#    3281  xforce=   0.0000E+00   yforce=   0.0000E+00  zforce=  -2.2872E+00   energy=   2.8591E-05   setid =    3281 xmoment=   0.0000E+00 ymoment=   0.0000E+00 zmoment=   0.0000E+00
 nd#    3282  xforce=   0.0000E+00   yforce=   0.0000E+00  zforce=  -9.6787E+00   energy=   1.2098E-04   setid =    3282 xmoment=   0.0000E+00 ymoment=   0.0000E+00 zmoment=   0.0000E+00
 nd#    3283  xforce=   0.0000E+00   yforce=   0.0000E+00  zforce=  -9.5514E+00   energy=   1.1939E-04   setid =    3283 xmoment=   0.0000E+00 ymoment=   0.0000E+00 zmoment=   0.0000E+00
 nd#    3284  xforce=   0.0000E+00   yforce=   0.0000E+00  zforce=  -9.1506E+00   energy=   1.1438E-04   setid =    3284 xmoment=   0.0000E+00 ymoment=   0.0000E+00 zmoment=   0.0000E+00
 nd#    3285  xforce=   0.0000E+00   yforce=   0.0000E+00  zforce=  -8.8389E+00   energy=   1.1049E-04   setid =    3285 xmoment=   0.0000E+00 ymoment=   0.0000E+00 zmoment=   0.0000E+00
 nd#    3286  xforce=   0.0000E+00   yforce=   0.0000E+00  zforce=  -8.5488E+00   energy=   1.0686E-04   setid =    3286 xmoment=   0.0000E+00 ymoment=   0.0000E+00 zmoment=   0.0000E+00
 nd#    3287  xforce=   0.0000E+00   yforce=   0.0000E+00  zforce=  -8.2599E+00   energy=   1.0325E-04   setid =    3287 xmoment=   0.0000E+00 ymoment=   0.0000E+00 zmoment=   0.0000E+00
 nd#    3288  xforce=   0.0000E+00   yforce=   0.0000E+00  zforce=  -7.9689E+00   energy=   9.9612E-05   setid =    3288 xmoment=   0.0000E+00 ymoment=   0.0000E+00 zmoment=   0.0000E+00
 nd#    3289  xforce=   0.0000E+00   yforce=   0.0000E+00  zforce=  -7.6766E+00   energy=   9.5958E-05   setid =    3289 xmoment=   0.0000E+00 ymoment=   0.0000E+00 zmoment=   0.0000E+00
 nd#    3290  xforce=   0.0000E+00   yforce=   0.0000E+00  zforce=  -7.3788E+00   energy=   9.2234E-05   setid =    3290 xmoment=   0.0000E+00 ymoment=   0.0000E+00 zmoment=   0.0000E+00
 nd#    3291  xforce=   0.0000E+00   yforce=   0.0000E+00  zforce=  -7.0775E+00   energy=   8.8469E-05   setid =    3291 xmoment=   0.0000E+00 ymoment=   0.0000E+00 zmoment=   0.0000E+00
 nd#    3292  xforce=   0.0000E+00   yforce=   0.0000E+00  zforce=  -6.7728E+00   energy=   8.4660E-05   setid =    3292 xmoment=   0.0000E+00 ymoment=   0.0000E+00 zmoment=   0.0000E+00
 nd#    3293  xforce=   0.0000E+00   yforce=   0.0000E+00  zforce=  -6.4630E+00   energy=   8.0788E-05   setid =    3293 xmoment=   0.0000E+00 ymoment=   0.0000E+00 zmoment=   0.0000E+00
 nd#    3294  xforce=   0.0000E+00   yforce=   0.0000E+00  zforce=  -6.1474E+00   energy=   7.6842E-05   setid =    3294 xmoment=   0.0000E+00 ymoment=   0.0000E+00 zmoment=   0.0000E+00
 nd#    3295  xforce=   0.0000E+00   yforce=   0.0000E+00  zforce=  -5.8287E+00   energy=   7.2859E-05   setid =    3295 xmoment=   0.0000E+00 ymoment=   0.0000E+00 zmoment=   0.0000E+00
 nd#    3296  xforce=   0.0000E+00   yforce=   0.0000E+00  zforce=  -5.5057E+00   energy=   6.8821E-05   setid =    3296 xmoment=   0.0000E+00 ymoment=   0.0000E+00 zmoment=   0.0000E+00
 nd#    3297  xforce=   0.0000E+00   yforce=   0.0000E+00  zforce=  -5.1765E+00   energy=   6.4706E-05   setid =    3297 xmoment=   0.0000E+00 ymoment=   0.0000E+00 zmoment=   0.0000E+00
 nd#    3298  xforce=   0.0000E+00   yforce=   0.0000E+00  zforce=  -4.8445E+00   energy=   6.0556E-05   setid =    3298 xmoment=   0.0000E+00 ymoment=   0.0000E+00 zmoment=   0.0000E+00
 nd#    3299  xforce=   0.0000E+00   yforce=   0.0000E+00  zforce=  -4.5231E+00   energy=   5.6539E-05   setid =    3299 xmoment=   0.0000E+00 ymoment=   0.0000E+00 zmoment=   0.0000E+00
 nd#    6390  xforce=   0.0000E+00   yforce=   0.0000E+00  zforce=  -1.4151E+01   energy=   1.7689E-04   setid =    6390 xmoment=   0.0000E+00 ymoment=   0.0000E+00 zmoment=   0.0000E+00
 nd#    6391  xforce=   0.0000E+00   yforce=   0.0000E+00  zforce=  -1.4758E+01   energy=   1.8447E-04   setid =    6391 xmoment=   0.0000E+00 ymoment=   0.0000E+00 zmoment=   0.0000E+00
 nd#    6394  xforce=   0.0000E+00   yforce=   0.0000E+00  zforce=  -1.4238E+01   energy=   1.7797E-04   setid =    6394 xmoment=   0.0000E+00 ymoment=   0.0000E+00 zmoment=   0.0000E+00
 nd#    6395  xforce=   0.0000E+00   yforce=   0.0000E+00  zforce=  -1.4856E+01   energy=   1.8570E-04   setid =    6395 xmoment=   0.0000E+00 ymoment=   0.0000E+00 zmoment=   0.0000E+00
 nd#    6398  xforce=   0.0000E+00   yforce=   0.0000E+00  zforce=  -1.4227E+01   energy=   1.7784E-04   setid =    6398 xmoment=   0.0000E+00 ymoment=   0.0000E+00 zmoment=   0.0000E+00
 nd#    6399  xforce=   0.0000E+00   yforce=   0.0000E+00  zforce=  -1.4867E+01   energy=   1.8583E-04   setid =    6399 xmoment=   0.0000E+00 ymoment=   0.0000E+00 zmoment=   0.0000E+00
 nd#    6402  xforce=   0.0000E+00   yforce=   0.0000E+00  zforce=  -1.4231E+01   energy=   1.7789E-04   setid =    6402 xmoment=   0.0000E+00 ymoment=   0.0000E+00 zmoment=   0.0000E+00
 nd#    6403  xforce=   0.0000E+00   yforce=   0.0000E+00  zforce=  -1.4882E+01   energy=   1.8602E-04   setid =    6403 xmoment=   0.0000E+00 ymoment=   0.0000E+00 zmoment=   0.0000E+00
 nd#    6406  xforce=   0.0000E+00   yforce=   0.0000E+00  zforce=  -1.4234E+01   energy=   1.7793E-04   setid =    6406 xmoment=   0.0000E+00 ymoment=   0.0000E+00 zmoment=   0.0000E+00
 nd#    6407  xforce=   0.0000E+00   yforce=   0.0000E+00  zforce=  -1.4893E+01   energy=   1.8617E-04   setid =    6407 xmoment=   0.0000E+00 ymoment=   0.0000E+00 zmoment=   0.0000E+00
 nd#    6410  xforce=   0.0000E+00   yforce=   0.0000E+00  zforce=  -1.4220E+01   energy=   1.7775E-04   setid =    6410 xmoment=   0.0000E+00 ymoment=   0.0000E+00 zmoment=   0.0000E+00
 nd#    6411  xforce=   0.0000E+00   yforce=   0.0000E+00  zforce=  -1.4875E+01   energy=   1.8594E-04   setid =    6411 xmoment=   0.0000E+00 ymoment=   0.0000E+00 zmoment=   0.0000E+00
 nd#    6414  xforce=   0.0000E+00   yforce=   0.0000E+00  zforce=  -1.4211E+01   energy=   1.7764E-04   setid =    6414 xmoment=   0.0000E+00 ymoment=   0.0000E+00 zmoment=   0.0000E+00
 nd#    6415  xforce=   0.0000E+00   yforce=   0.0000E+00  zforce=  -1.4855E+01   energy=   1.8569E-04   setid =    6415 xmoment=   0.0000E+00 ymoment=   0.0000E+00 zmoment=   0.0000E+00
 nd#    6418  xforce=   0.0000E+00   yforce=   0.0000E+00  zforce=  -7.1274E+00   energy=   8.9093E-05   setid =    6418 xmoment=   0.0000E+00 ymoment=   0.0000E+00 zmoment=   0.0000E+00
 nd#    6419  xforce=   0.0000E+00   yforce=   0.0000E+00  zforce=  -7.4460E+00   energy=   9.3075E-05   setid =    6419 xmoment=   0.0000E+00 ymoment=   0.0000E+00 zmoment=   0.0000E+00
 nd#    6542  xforce=   0.0000E+00   yforce=   0.0000E+00  zforce=  -1.6537E+01   energy=   2.0671E-04   setid =    6542 xmoment=   0.0000E+00 ymoment=   0.0000E+00 zmoment=   0.0000E+00
 nd#    6543  xforce=   0.0000E+00   yforce=   0.0000E+00  zforce=  -1.7121E+01   energy=   2.1401E-04   setid =    6543 xmoment=   0.0000E+00 ymoment=   0.0000E+00 zmoment=   0.0000E+00
 nd#    6546  xforce=   0.0000E+00   yforce=   0.0000E+00  zforce=  -1.6675E+01   energy=   2.0844E-04   setid =    6546 xmoment=   0.0000E+00 ymoment=   0.0000E+00 zmoment=   0.0000E+00
 nd#    6547  xforce=   0.0000E+00   yforce=   0.0000E+00  zforce=  -1.7274E+01   energy=   2.1593E-04   setid =    6547 xmoment=   0.0000E+00 ymoment=   0.0000E+00 zmoment=   0.0000E+00
 nd#    6550  xforce=   0.0000E+00   yforce=   0.0000E+00  zforce=  -1.6754E+01   energy=   2.0942E-04   setid =    6550 xmoment=   0.0000E+00 ymoment=   0.0000E+00 zmoment=   0.0000E+00
 nd#    6551  xforce=   0.0000E+00   yforce=   0.0000E+00  zforce=  -1.7375E+01   energy=   2.1719E-04   setid =    6551 xmoment=   0.0000E+00 ymoment=   0.0000E+00 zmoment=   0.0000E+00
 nd#    6554  xforce=   0.0000E+00   yforce=   0.0000E+00  zforce=  -1.6810E+01   energy=   2.1013E-04   setid =    6554 xmoment=   0.0000E+00 ymoment=   0.0000E+00 zmoment=   0.0000E+00
 nd#    6555  xforce=   0.0000E+00   yforce=   0.0000E+00  zforce=  -1.7446E+01   energy=   2.1808E-04   setid =    6555 xmoment=   0.0000E+00 ymoment=   0.0000E+00 zmoment=   0.0000E+00
 nd#    6558  xforce=   0.0000E+00   yforce=   0.0000E+00  zforce=  -1.6856E+01   energy=   2.1069E-04   setid =    6558 xmoment=   0.0000E+00 ymoment=   0.0000E+00 zmoment=   0.0000E+00
 nd#    6559  xforce=   0.0000E+00   yforce=   0.0000E+00  zforce=  -1.7505E+01   energy=   2.1881E-04   setid =    6559 xmoment=   0.0000E+00 ymoment=   0.0000E+00 zmoment=   0.0000E+00
 nd#    6562  xforce=   0.0000E+00   yforce=   0.0000E+00  zforce=  -1.6831E+01   energy=   2.1039E-04   setid =    6562 xmoment=   0.0000E+00 ymoment=   0.0000E+00 zmoment=   0.0000E+00
 nd#    6563  xforce=   0.0000E+00   yforce=   0.0000E+00  zforce=  -1.7481E+01   energy=   2.1851E-04   setid =    6563 xmoment=   0.0000E+00 ymoment=   0.0000E+00 zmoment=   0.0000E+00
 nd#    6566  xforce=   0.0000E+00   yforce=   0.0000E+00  zforce=  -1.6784E+01   energy=   2.0980E-04   setid =    6566 xmoment=   0.0000E+00 ymoment=   0.0000E+00 zmoment=   0.0000E+00
 nd#    6567  xforce=   0.0000E+00   yforce=   0.0000E+00  zforce=  -1.7428E+01   energy=   2.1785E-04   setid =    6567 xmoment=   0.0000E+00 ymoment=   0.0000E+00 zmoment=   0.0000E+00
 nd#    6570  xforce=   0.0000E+00   yforce=   0.0000E+00  zforce=  -8.4012E+00   energy=   1.0501E-04   setid =    6570 xmoment=   0.0000E+00 ymoment=   0.0000E+00 zmoment=   0.0000E+00
 nd#    6571  xforce=   0.0000E+00   yforce=   0.0000E+00  zforce=  -8.7216E+00   energy=   1.0902E-04   setid =    6571 xmoment=   0.0000E+00 ymoment=   0.0000E+00 zmoment=   0.0000E+00
 nd#    6598  xforce=   0.0000E+00   yforce=   0.0000E+00  zforce=  -1.8338E+01   energy=   2.2923E-04   setid =    6598 xmoment=   0.0000E+00 ymoment=   0.0000E+00 zmoment=   0.0000E+00
 nd#    6599  xforce=   0.0000E+00   yforce=   0.0000E+00  zforce=  -1.9151E+01   energy=   2.3939E-04   setid =    6599 xmoment=   0.0000E+00 ymoment=   0.0000E+00 zmoment=   0.0000E+00
 nd#    6600  xforce=   0.0000E+00   yforce=   0.0000E+00  zforce=  -1.8522E+01   energy=   2.3153E-04   setid =    6600 xmoment=   0.0000E+00 ymoment=   0.0000E+00 zmoment=   0.0000E+00
 nd#    6601  xforce=   0.0000E+00   yforce=   0.0000E+00  zforce=  -1.9358E+01   energy=   2.4198E-04   setid =    6601 xmoment=   0.0000E+00 ymoment=   0.0000E+00 zmoment=   0.0000E+00
 nd#    6602  xforce=   0.0000E+00   yforce=   0.0000E+00  zforce=  -1.8680E+01   energy=   2.3350E-04   setid =    6602 xmoment=   0.0000E+00 ymoment=   0.0000E+00 zmoment=   0.0000E+00
 nd#    6603  xforce=   0.0000E+00   yforce=   0.0000E+00  zforce=  -1.9554E+01   energy=   2.4442E-04   setid =    6603 xmoment=   0.0000E+00 ymoment=   0.0000E+00 zmoment=   0.0000E+00
 nd#    6604  xforce=   0.0000E+00   yforce=   0.0000E+00  zforce=  -1.8788E+01   energy=   2.3485E-04   setid =    6604 xmoment=   0.0000E+00 ymoment=   0.0000E+00 zmoment=   0.0000E+00
 nd#    6605  xforce=   0.0000E+00   yforce=   0.0000E+00  zforce=  -1.9693E+01   energy=   2.4616E-04   setid =    6605 xmoment=   0.0000E+00 ymoment=   0.0000E+00 zmoment=   0.0000E+00
 nd#    6606  xforce=   0.0000E+00   yforce=   0.0000E+00  zforce=  -1.8879E+01   energy=   2.3599E-04   setid =    6606 xmoment=   0.0000E+00 ymoment=   0.0000E+00 zmoment=   0.0000E+00
 nd#    6607  xforce=   0.0000E+00   yforce=   0.0000E+00  zforce=  -1.9800E+01   energy=   2.4750E-04   setid =    6607 xmoment=   0.0000E+00 ymoment=   0.0000E+00 zmoment=   0.0000E+00
 nd#    6608  xforce=   0.0000E+00   yforce=   0.0000E+00  zforce=  -1.8858E+01   energy=   2.3572E-04   setid =    6608 xmoment=   0.0000E+00 ymoment=   0.0000E+00 zmoment=   0.0000E+00
 nd#    6609  xforce=   0.0000E+00   yforce=   0.0000E+00  zforce=  -1.9779E+01   energy=   2.4723E-04   setid =    6609 xmoment=   0.0000E+00 ymoment=   0.0000E+00 zmoment=   0.0000E+00
 nd#    6610  xforce=   0.0000E+00   yforce=   0.0000E+00  zforce=  -1.8794E+01   energy=   2.3493E-04   setid =    6610 xmoment=   0.0000E+00 ymoment=   0.0000E+00 zmoment=   0.0000E+00
 nd#    6611  xforce=   0.0000E+00   yforce=   0.0000E+00  zforce=  -1.9707E+01   energy=   2.4634E-04   setid =    6611 xmoment=   0.0000E+00 ymoment=   0.0000E+00 zmoment=   0.0000E+00
 nd#    6612  xforce=   0.0000E+00   yforce=   0.0000E+00  zforce=  -9.4000E+00   energy=   1.1750E-04   setid =    6612 xmoment=   0.0000E+00 ymoment=   0.0000E+00 zmoment=   0.0000E+00
 nd#    6613  xforce=   0.0000E+00   yforce=   0.0000E+00  zforce=  -9.8531E+00   energy=   1.2316E-04   setid =    6613 xmoment=   0.0000E+00 ymoment=   0.0000E+00 zmoment=   0.0000E+00
 nd#    6854  xforce=   0.0000E+00   yforce=   0.0000E+00  zforce=  -1.7707E+01   energy=   2.2134E-04   setid =    6854 xmoment=   0.0000E+00 ymoment=   0.0000E+00 zmoment=   0.0000E+00
 nd#    6856  xforce=   0.0000E+00   yforce=   0.0000E+00  zforce=  -1.7876E+01   energy=   2.2345E-04   setid =    6856 xmoment=   0.0000E+00 ymoment=   0.0000E+00 zmoment=   0.0000E+00
 nd#    6858  xforce=   0.0000E+00   yforce=   0.0000E+00  zforce=  -1.8005E+01   energy=   2.2506E-04   setid =    6858 xmoment=   0.0000E+00 ymoment=   0.0000E+00 zmoment=   0.0000E+00
 nd#    6860  xforce=   0.0000E+00   yforce=   0.0000E+00  zforce=  -1.8093E+01   energy=   2.2616E-04   setid =    6860 xmoment=   0.0000E+00 ymoment=   0.0000E+00 zmoment=   0.0000E+00
 nd#    6862  xforce=   0.0000E+00   yforce=   0.0000E+00  zforce=  -1.8168E+01   energy=   2.2710E-04   setid =    6862 xmoment=   0.0000E+00 ymoment=   0.0000E+00 zmoment=   0.0000E+00
 nd#    6864  xforce=   0.0000E+00   yforce=   0.0000E+00  zforce=  -1.8145E+01   energy=   2.2681E-04   setid =    6864 xmoment=   0.0000E+00 ymoment=   0.0000E+00 zmoment=   0.0000E+00
 nd#    6866  xforce=   0.0000E+00   yforce=   0.0000E+00  zforce=  -1.8086E+01   energy=   2.2607E-04   setid =    6866 xmoment=   0.0000E+00 ymoment=   0.0000E+00 zmoment=   0.0000E+00
 nd#    6868  xforce=   0.0000E+00   yforce=   0.0000E+00  zforce=  -9.0482E+00   energy=   1.1310E-04   setid =    6868 xmoment=   0.0000E+00 ymoment=   0.0000E+00 zmoment=   0.0000E+00
 nd#    8222  xforce=   0.0000E+00   yforce=   0.0000E+00  zforce=  -1.0310E+01   energy=   1.2888E-04   setid =    8222 xmoment=   0.0000E+00 ymoment=   0.0000E+00 zmoment=   0.0000E+00
 nd#    8223  xforce=   0.0000E+00   yforce=   0.0000E+00  zforce=  -1.0977E+01   energy=   1.3721E-04   setid =    8223 xmoment=   0.0000E+00 ymoment=   0.0000E+00 zmoment=   0.0000E+00
 nd#    8226  xforce=   0.0000E+00   yforce=   0.0000E+00  zforce=  -1.0326E+01   energy=   1.2908E-04   setid =    8226 xmoment=   0.0000E+00 ymoment=   0.0000E+00 zmoment=   0.0000E+00
 nd#    8227  xforce=   0.0000E+00   yforce=   0.0000E+00  zforce=  -1.1002E+01   energy=   1.3753E-04   setid =    8227 xmoment=   0.0000E+00 ymoment=   0.0000E+00 zmoment=   0.0000E+00
 nd#    8230  xforce=   0.0000E+00   yforce=   0.0000E+00  zforce=  -1.0174E+01   energy=   1.2717E-04   setid =    8230 xmoment=   0.0000E+00 ymoment=   0.0000E+00 zmoment=   0.0000E+00
 nd#    8231  xforce=   0.0000E+00   yforce=   0.0000E+00  zforce=  -1.0878E+01   energy=   1.3597E-04   setid =    8231 xmoment=   0.0000E+00 ymoment=   0.0000E+00 zmoment=   0.0000E+00
 nd#    8234  xforce=   0.0000E+00   yforce=   0.0000E+00  zforce=  -1.0131E+01   energy=   1.2664E-04   setid =    8234 xmoment=   0.0000E+00 ymoment=   0.0000E+00 zmoment=   0.0000E+00
 nd#    8235  xforce=   0.0000E+00   yforce=   0.0000E+00  zforce=  -1.0838E+01   energy=   1.3547E-04   setid =    8235 xmoment=   0.0000E+00 ymoment=   0.0000E+00 zmoment=   0.0000E+00
 nd#    8238  xforce=   0.0000E+00   yforce=   0.0000E+00  zforce=  -1.0075E+01   energy=   1.2594E-04   setid =    8238 xmoment=   0.0000E+00 ymoment=   0.0000E+00 zmoment=   0.0000E+00
 nd#    8239  xforce=   0.0000E+00   yforce=   0.0000E+00  zforce=  -1.0799E+01   energy=   1.3498E-04   setid =    8239 xmoment=   0.0000E+00 ymoment=   0.0000E+00 zmoment=   0.0000E+00
 nd#    8242  xforce=   0.0000E+00   yforce=   0.0000E+00  zforce=  -1.0133E+01   energy=   1.2666E-04   setid =    8242 xmoment=   0.0000E+00 ymoment=   0.0000E+00 zmoment=   0.0000E+00
 nd#    8243  xforce=   0.0000E+00   yforce=   0.0000E+00  zforce=  -1.0837E+01   energy=   1.3546E-04   setid =    8243 xmoment=   0.0000E+00 ymoment=   0.0000E+00 zmoment=   0.0000E+00
 nd#    8246  xforce=   0.0000E+00   yforce=   0.0000E+00  zforce=  -1.0222E+01   energy=   1.2777E-04   setid =    8246 xmoment=   0.0000E+00 ymoment=   0.0000E+00 zmoment=   0.0000E+00
 nd#    8247  xforce=   0.0000E+00   yforce=   0.0000E+00  zforce=  -1.0907E+01   energy=   1.3634E-04   setid =    8247 xmoment=   0.0000E+00 ymoment=   0.0000E+00 zmoment=   0.0000E+00
 nd#    8250  xforce=   0.0000E+00   yforce=   0.0000E+00  zforce=  -5.1710E+00   energy=   6.4638E-05   setid =    8250 xmoment=   0.0000E+00 ymoment=   0.0000E+00 zmoment=   0.0000E+00
 nd#    8251  xforce=   0.0000E+00   yforce=   0.0000E+00  zforce=  -5.5040E+00   energy=   6.8800E-05   setid =    8251 xmoment=   0.0000E+00 ymoment=   0.0000E+00 zmoment=   0.0000E+00
 nd#    9318  xforce=   0.0000E+00   yforce=   0.0000E+00  zforce=  -1.9447E+01   energy=   2.4309E-04   setid =    9318 xmoment=   0.0000E+00 ymoment=   0.0000E+00 zmoment=   0.0000E+00
 nd#    9320  xforce=   0.0000E+00   yforce=   0.0000E+00  zforce=  -1.9744E+01   energy=   2.4680E-04   setid =    9320 xmoment=   0.0000E+00 ymoment=   0.0000E+00 zmoment=   0.0000E+00
 nd#    9322  xforce=   0.0000E+00   yforce=   0.0000E+00  zforce=  -2.0037E+01   energy=   2.5047E-04   setid =    9322 xmoment=   0.0000E+00 ymoment=   0.0000E+00 zmoment=   0.0000E+00
 nd#    9324  xforce=   0.0000E+00   yforce=   0.0000E+00  zforce=  -2.0236E+01   energy=   2.5295E-04   setid =    9324 xmoment=   0.0000E+00 ymoment=   0.0000E+00 zmoment=   0.0000E+00
 nd#    9326  xforce=   0.0000E+00   yforce=   0.0000E+00  zforce=  -2.0326E+01   energy=   2.5408E-04   setid =    9326 xmoment=   0.0000E+00 ymoment=   0.0000E+00 zmoment=   0.0000E+00
 nd#    9328  xforce=   0.0000E+00   yforce=   0.0000E+00  zforce=  -2.0240E+01   energy=   2.5301E-04   setid =    9328 xmoment=   0.0000E+00 ymoment=   0.0000E+00 zmoment=   0.0000E+00
 nd#    9330  xforce=   0.0000E+00   yforce=   0.0000E+00  zforce=  -2.0113E+01   energy=   2.5142E-04   setid =    9330 xmoment=   0.0000E+00 ymoment=   0.0000E+00 zmoment=   0.0000E+00
 nd#    9332  xforce=   0.0000E+00   yforce=   0.0000E+00  zforce=  -1.0043E+01   energy=   1.2554E-04   setid =    9332 xmoment=   0.0000E+00 ymoment=   0.0000E+00 zmoment=   0.0000E+00
 nd#    9822  xforce=   0.0000E+00   yforce=   0.0000E+00  zforce=  -9.6340E+00   energy=   1.2043E-04   setid =    9822 xmoment=   0.0000E+00 ymoment=   0.0000E+00 zmoment=   0.0000E+00
 nd#    9824  xforce=   0.0000E+00   yforce=   0.0000E+00  zforce=  -9.6411E+00   energy=   1.2051E-04   setid =    9824 xmoment=   0.0000E+00 ymoment=   0.0000E+00 zmoment=   0.0000E+00
 nd#    9826  xforce=   0.0000E+00   yforce=   0.0000E+00  zforce=  -9.4500E+00   energy=   1.1813E-04   setid =    9826 xmoment=   0.0000E+00 ymoment=   0.0000E+00 zmoment=   0.0000E+00
 nd#    9828  xforce=   0.0000E+00   yforce=   0.0000E+00  zforce=  -9.4096E+00   energy=   1.1762E-04   setid =    9828 xmoment=   0.0000E+00 ymoment=   0.0000E+00 zmoment=   0.0000E+00
 nd#    9830  xforce=   0.0000E+00   yforce=   0.0000E+00  zforce=  -9.3331E+00   energy=   1.1666E-04   setid =    9830 xmoment=   0.0000E+00 ymoment=   0.0000E+00 zmoment=   0.0000E+00
 nd#    9832  xforce=   0.0000E+00   yforce=   0.0000E+00  zforce=  -9.4158E+00   energy=   1.1770E-04   setid =    9832 xmoment=   0.0000E+00 ymoment=   0.0000E+00 zmoment=   0.0000E+00
 nd#    9834  xforce=   0.0000E+00   yforce=   0.0000E+00  zforce=  -9.5161E+00   energy=   1.1895E-04   setid =    9834 xmoment=   0.0000E+00 ymoment=   0.0000E+00 zmoment=   0.0000E+00
 nd#    9836  xforce=   0.0000E+00   yforce=   0.0000E+00  zforce=  -4.8296E+00   energy=   6.0370E-05   setid =    9836 xmoment=   0.0000E+00 ymoment=   0.0000E+00 zmoment=   0.0000E+00
 nd#   10558  xforce=   0.0000E+00   yforce=   0.0000E+00  zforce=  -1.1631E+01   energy=   1.4539E-04   setid =   10558 xmoment=   0.0000E+00 ymoment=   0.0000E+00 zmoment=   0.0000E+00
 nd#   10559  xforce=   0.0000E+00   yforce=   0.0000E+00  zforce=  -1.2275E+01   energy=   1.5344E-04   setid =   10559 xmoment=   0.0000E+00 ymoment=   0.0000E+00 zmoment=   0.0000E+00
 nd#   10562  xforce=   0.0000E+00   yforce=   0.0000E+00  zforce=  -1.1668E+01   energy=   1.4585E-04   setid =   10562 xmoment=   0.0000E+00 ymoment=   0.0000E+00 zmoment=   0.0000E+00
 nd#   10563  xforce=   0.0000E+00   yforce=   0.0000E+00  zforce=  -1.2325E+01   energy=   1.5407E-04   setid =   10563 xmoment=   0.0000E+00 ymoment=   0.0000E+00 zmoment=   0.0000E+00
 nd#   10566  xforce=   0.0000E+00   yforce=   0.0000E+00  zforce=  -1.1569E+01   energy=   1.4462E-04   setid =   10566 xmoment=   0.0000E+00 ymoment=   0.0000E+00 zmoment=   0.0000E+00
 nd#   10567  xforce=   0.0000E+00   yforce=   0.0000E+00  zforce=  -1.2250E+01   energy=   1.5313E-04   setid =   10567 xmoment=   0.0000E+00 ymoment=   0.0000E+00 zmoment=   0.0000E+00
 nd#   10570  xforce=   0.0000E+00   yforce=   0.0000E+00  zforce=  -1.1536E+01   energy=   1.4420E-04   setid =   10570 xmoment=   0.0000E+00 ymoment=   0.0000E+00 zmoment=   0.0000E+00
 nd#   10571  xforce=   0.0000E+00   yforce=   0.0000E+00  zforce=  -1.2224E+01   energy=   1.5281E-04   setid =   10571 xmoment=   0.0000E+00 ymoment=   0.0000E+00 zmoment=   0.0000E+00
 nd#   10574  xforce=   0.0000E+00   yforce=   0.0000E+00  zforce=  -1.1506E+01   energy=   1.4382E-04   setid =   10574 xmoment=   0.0000E+00 ymoment=   0.0000E+00 zmoment=   0.0000E+00
 nd#   10575  xforce=   0.0000E+00   yforce=   0.0000E+00  zforce=  -1.2202E+01   energy=   1.5253E-04   setid =   10575 xmoment=   0.0000E+00 ymoment=   0.0000E+00 zmoment=   0.0000E+00
 nd#   10578  xforce=   0.0000E+00   yforce=   0.0000E+00  zforce=  -1.1529E+01   energy=   1.4412E-04   setid =   10578 xmoment=   0.0000E+00 ymoment=   0.0000E+00 zmoment=   0.0000E+00
 nd#   10579  xforce=   0.0000E+00   yforce=   0.0000E+00  zforce=  -1.2213E+01   energy=   1.5266E-04   setid =   10579 xmoment=   0.0000E+00 ymoment=   0.0000E+00 zmoment=   0.0000E+00
 nd#   10582  xforce=   0.0000E+00   yforce=   0.0000E+00  zforce=  -1.1582E+01   energy=   1.4478E-04   setid =   10582 xmoment=   0.0000E+00 ymoment=   0.0000E+00 zmoment=   0.0000E+00
 nd#   10583  xforce=   0.0000E+00   yforce=   0.0000E+00  zforce=  -1.2248E+01   energy=   1.5310E-04   setid =   10583 xmoment=   0.0000E+00 ymoment=   0.0000E+00 zmoment=   0.0000E+00
 nd#   10586  xforce=   0.0000E+00   yforce=   0.0000E+00  zforce=  -5.8338E+00   energy=   7.2922E-05   setid =   10586 xmoment=   0.0000E+00 ymoment=   0.0000E+00 zmoment=   0.0000E+00
 nd#   10587  xforce=   0.0000E+00   yforce=   0.0000E+00  zforce=  -6.1608E+00   energy=   7.7010E-05   setid =   10587 xmoment=   0.0000E+00 ymoment=   0.0000E+00 zmoment=   0.0000E+00
 nd#   10710  xforce=   0.0000E+00   yforce=   0.0000E+00  zforce=  -1.5949E+01   energy=   1.9936E-04   setid =   10710 xmoment=   0.0000E+00 ymoment=   0.0000E+00 zmoment=   0.0000E+00
 nd#   10711  xforce=   0.0000E+00   yforce=   0.0000E+00  zforce=  -1.6075E+01   energy=   2.0093E-04   setid =   10711 xmoment=   0.0000E+00 ymoment=   0.0000E+00 zmoment=   0.0000E+00
 nd#   10712  xforce=   0.0000E+00   yforce=   0.0000E+00  zforce=  -1.6130E+01   energy=   2.0163E-04   setid =   10712 xmoment=   0.0000E+00 ymoment=   0.0000E+00 zmoment=   0.0000E+00
 nd#   10713  xforce=   0.0000E+00   yforce=   0.0000E+00  zforce=  -1.6171E+01   energy=   2.0214E-04   setid =   10713 xmoment=   0.0000E+00 ymoment=   0.0000E+00 zmoment=   0.0000E+00
 nd#   10714  xforce=   0.0000E+00   yforce=   0.0000E+00  zforce=  -1.6204E+01   energy=   2.0255E-04   setid =   10714 xmoment=   0.0000E+00 ymoment=   0.0000E+00 zmoment=   0.0000E+00
 nd#   10715  xforce=   0.0000E+00   yforce=   0.0000E+00  zforce=  -1.6180E+01   energy=   2.0225E-04   setid =   10715 xmoment=   0.0000E+00 ymoment=   0.0000E+00 zmoment=   0.0000E+00
 nd#   10716  xforce=   0.0000E+00   yforce=   0.0000E+00  zforce=  -1.6141E+01   energy=   2.0176E-04   setid =   10716 xmoment=   0.0000E+00 ymoment=   0.0000E+00 zmoment=   0.0000E+00
 nd#   10717  xforce=   0.0000E+00   yforce=   0.0000E+00  zforce=  -8.0830E+00   energy=   1.0104E-04   setid =   10717 xmoment=   0.0000E+00 ymoment=   0.0000E+00 zmoment=   0.0000E+00
 nd#   10990  xforce=   0.0000E+00   yforce=   0.0000E+00  zforce=  -8.9933E+00   energy=   1.1242E-04   setid =   10990 xmoment=   0.0000E+00 ymoment=   0.0000E+00 zmoment=   0.0000E+00
[...]
 nd#    6612  xforce=   0.0000E+00   yforce=   0.0000E+00  zforce=  -5.1605E+01   energy=   1.9972E-03   setid =    6612 xmoment=   0.0000E+00 ymoment=   0.0000E+00 zmoment=   0.0000E+00
 nd#    6613  xforce=   0.0000E+00   yforce=   0.0000E+00  zforce=  -3.8676E+01   energy=   1.8113E-03   setid =    6613 xmoment=   0.0000E+00 ymoment=   0.0000E+00 zmoment=   0.0000E+00
 nd#    6854  xforce=   0.0000E+00   yforce=   0.0000E+00  zforce=  -1.1041E+02   energy=   3.3651E-03   setid =    6854 xmoment=   0.0000E+00 ymoment=   0.0000E+00 zmoment=   0.0000E+00
 nd#    6856  xforce=   0.0000E+00   yforce=   0.0000E+00  zforce=  -1.2032E+02   energy=   4.4050E-03   setid =    6856 xmoment=   0.0000E+00 ymoment=   0.0000E+00 zmoment=   0.0000E+00
 nd#    6858  xforce=   0.0000E+00   yforce=   0.0000E+00  zforce=  -1.1859E+02   energy=   4.7231E-03   setid =    6858 xmoment=   0.0000E+00 ymoment=   0.0000E+00 zmoment=   0.0000E+00
 nd#    6860  xforce=   0.0000E+00   yforce=   0.0000E+00  zforce=  -1.1149E+02   energy=   4.8595E-03   setid =    6860 xmoment=   0.0000E+00 ymoment=   0.0000E+00 zmoment=   0.0000E+00
 nd#    6862  xforce=   0.0000E+00   yforce=   0.0000E+00  zforce=  -1.3702E+02   energy=   5.6686E-03   setid =    6862 xmoment=   0.0000E+00 ymoment=   0.0000E+00 zmoment=   0.0000E+00
 nd#    6864  xforce=   0.0000E+00   yforce=   0.0000E+00  zforce=  -8.1429E+01   energy=   4.9085E-03   setid =    6864 xmoment=   0.0000E+00 ymoment=   0.0000E+00 zmoment=   0.0000E+00
 nd#    6866  xforce=   0.0000E+00   yforce=   0.0000E+00  zforce=  -1.3118E+02   energy=   5.8086E-03   setid =    6866 xmoment=   0.0000E+00 ymoment=   0.0000E+00 zmoment=   0.0000E+00
 nd#    6868  xforce=   0.0000E+00   yforce=   0.0000E+00  zforce=  -5.2514E+01   energy=   2.1650E-03   setid =    6868 xmoment=   0.0000E+00 ymoment=   0.0000E+00 zmoment=   0.0000E+00
 nd#    8222  xforce=   0.0000E+00   yforce=   0.0000E+00  zforce=  -5.2339E+01   energy=   1.3395E-03   setid =    8222 xmoment=   0.0000E+00 ymoment=   0.0000E+00 zmoment=   0.0000E+00
 nd#    8223  xforce=   0.0000E+00   yforce=   0.0000E+00  zforce=  -5.5777E+01   energy=   1.5161E-03   setid =    8223 xmoment=   0.0000E+00 ymoment=   0.0000E+00 zmoment=   0.0000E+00
 nd#    8226  xforce=   0.0000E+00   yforce=   0.0000E+00  zforce=  -5.8743E+01   energy=   3.6643E-03   setid =    8226 xmoment=   0.0000E+00 ymoment=   0.0000E+00 zmoment=   0.0000E+00
 nd#    8227  xforce=   0.0000E+00   yforce=   0.0000E+00  zforce=  -6.3156E+01   energy=   3.7214E-03   setid =    8227 xmoment=   0.0000E+00 ymoment=   0.0000E+00 zmoment=   0.0000E+00
 nd#    8230  xforce=   0.0000E+00   yforce=   0.0000E+00  zforce=  -5.5997E+01   energy=   2.8720E-03   setid =    8230 xmoment=   0.0000E+00 ymoment=   0.0000E+00 zmoment=   0.0000E+00
 nd#    8231  xforce=   0.0000E+00   yforce=   0.0000E+00  zforce=  -6.0357E+01   energy=   3.0068E-03   setid =    8231 xmoment=   0.0000E+00 ymoment=   0.0000E+00 zmoment=   0.0000E+00
 nd#    8234  xforce=   0.0000E+00   yforce=   0.0000E+00  zforce=  -5.4460E+01   energy=   3.0818E-03   setid =    8234 xmoment=   0.0000E+00 ymoment=   0.0000E+00 zmoment=   0.0000E+00
 nd#    8235  xforce=   0.0000E+00   yforce=   0.0000E+00  zforce=  -5.8015E+01   energy=   3.2173E-03   setid =    8235 xmoment=   0.0000E+00 ymoment=   0.0000E+00 zmoment=   0.0000E+00
 nd#    8238  xforce=   0.0000E+00   yforce=   0.0000E+00  zforce=  -6.7244E+01   energy=   3.2922E-03   setid =    8238 xmoment=   0.0000E+00 ymoment=   0.0000E+00 zmoment=   0.0000E+00
 nd#    8239  xforce=   0.0000E+00   yforce=   0.0000E+00  zforce=  -7.1407E+01   energy=   3.4314E-03   setid =    8239 xmoment=   0.0000E+00 ymoment=   0.0000E+00 zmoment=   0.0000E+00
 nd#    8242  xforce=   0.0000E+00   yforce=   0.0000E+00  zforce=  -4.3330E+01   energy=   2.8448E-03   setid =    8242 xmoment=   0.0000E+00 ymoment=   0.0000E+00 zmoment=   0.0000E+00
 nd#    8243  xforce=   0.0000E+00   yforce=   0.0000E+00  zforce=  -4.7516E+01   energy=   3.0076E-03   setid =    8243 xmoment=   0.0000E+00 ymoment=   0.0000E+00 zmoment=   0.0000E+00
 nd#    8246  xforce=   0.0000E+00   yforce=   0.0000E+00  zforce=  -6.3160E+01   energy=   3.1120E-03   setid =    8246 xmoment=   0.0000E+00 ymoment=   0.0000E+00 zmoment=   0.0000E+00
 nd#    8247  xforce=   0.0000E+00   yforce=   0.0000E+00  zforce=  -6.7711E+01   energy=   3.2728E-03   setid =    8247 xmoment=   0.0000E+00 ymoment=   0.0000E+00 zmoment=   0.0000E+00
 nd#    8250  xforce=   0.0000E+00   yforce=   0.0000E+00  zforce=  -2.5768E+01   energy=   1.5522E-03   setid =    8250 xmoment=   0.0000E+00 ymoment=   0.0000E+00 zmoment=   0.0000E+00
 nd#    8251  xforce=   0.0000E+00   yforce=   0.0000E+00  zforce=  -2.7884E+01   energy=   1.5998E-03   setid =    8251 xmoment=   0.0000E+00 ymoment=   0.0000E+00 zmoment=   0.0000E+00
 nd#    9318  xforce=   0.0000E+00   yforce=   0.0000E+00  zforce=  -1.1541E+02   energy=   2.2638E-03   setid =    9318 xmoment=   0.0000E+00 ymoment=   0.0000E+00 zmoment=   0.0000E+00
 nd#    9320  xforce=   0.0000E+00   yforce=   0.0000E+00  zforce=  -1.0847E+02   energy=   3.0722E-03   setid =    9320 xmoment=   0.0000E+00 ymoment=   0.0000E+00 zmoment=   0.0000E+00
 nd#    9322  xforce=   0.0000E+00   yforce=   0.0000E+00  zforce=  -1.2867E+02   energy=   4.0989E-03   setid =    9322 xmoment=   0.0000E+00 ymoment=   0.0000E+00 zmoment=   0.0000E+00
 nd#    9324  xforce=   0.0000E+00   yforce=   0.0000E+00  zforce=  -4.8327E+01   energy=   4.1064E-03   setid =    9324 xmoment=   0.0000E+00 ymoment=   0.0000E+00 zmoment=   0.0000E+00
 nd#    9326  xforce=   0.0000E+00   yforce=   0.0000E+00  zforce=  -6.9520E+01   energy=   4.9120E-03   setid =    9326 xmoment=   0.0000E+00 ymoment=   0.0000E+00 zmoment=   0.0000E+00
 nd#    9328  xforce=   0.0000E+00   yforce=   0.0000E+00  zforce=  -1.0226E+02   energy=   3.9264E-03   setid =    9328 xmoment=   0.0000E+00 ymoment=   0.0000E+00 zmoment=   0.0000E+00
 nd#    9330  xforce=   0.0000E+00   yforce=   0.0000E+00  zforce=  -1.0469E+02   energy=   2.9967E-03   setid =    9330 xmoment=   0.0000E+00 ymoment=   0.0000E+00 zmoment=   0.0000E+00
 nd#    9332  xforce=   0.0000E+00   yforce=   0.0000E+00  zforce=  -6.0730E+01   energy=   4.4546E-04   setid =    9332 xmoment=   0.0000E+00 ymoment=   0.0000E+00 zmoment=   0.0000E+00
 nd#    9822  xforce=   0.0000E+00   yforce=   0.0000E+00  zforce=  -5.0415E+01   energy=   1.1402E-03   setid =    9822 xmoment=   0.0000E+00 ymoment=   0.0000E+00 zmoment=   0.0000E+00
 nd#    9824  xforce=   0.0000E+00   yforce=   0.0000E+00  zforce=  -5.4177E+01   energy=   3.5974E-03   setid =    9824 xmoment=   0.0000E+00 ymoment=   0.0000E+00 zmoment=   0.0000E+00
 nd#    9826  xforce=   0.0000E+00   yforce=   0.0000E+00  zforce=  -5.1802E+01   energy=   2.7340E-03   setid =    9826 xmoment=   0.0000E+00 ymoment=   0.0000E+00 zmoment=   0.0000E+00
 nd#    9828  xforce=   0.0000E+00   yforce=   0.0000E+00  zforce=  -5.0714E+01   energy=   2.9396E-03   setid =    9828 xmoment=   0.0000E+00 ymoment=   0.0000E+00 zmoment=   0.0000E+00
 nd#    9830  xforce=   0.0000E+00   yforce=   0.0000E+00  zforce=  -6.2900E+01   energy=   3.1545E-03   setid =    9830 xmoment=   0.0000E+00 ymoment=   0.0000E+00 zmoment=   0.0000E+00
 nd#    9832  xforce=   0.0000E+00   yforce=   0.0000E+00  zforce=  -3.9191E+01   energy=   2.6547E-03   setid =    9832 xmoment=   0.0000E+00 ymoment=   0.0000E+00 zmoment=   0.0000E+00
 nd#    9834  xforce=   0.0000E+00   yforce=   0.0000E+00  zforce=  -5.8781E+01   energy=   2.9292E-03   setid =    9834 xmoment=   0.0000E+00 ymoment=   0.0000E+00 zmoment=   0.0000E+00
 nd#    9836  xforce=   0.0000E+00   yforce=   0.0000E+00  zforce=  -2.3651E+01   energy=   1.4890E-03   setid =    9836 xmoment=   0.0000E+00 ymoment=   0.0000E+00 zmoment=   0.0000E+00
 nd#   10558  xforce=   0.0000E+00   yforce=   0.0000E+00  zforce=  -5.9360E+01   energy=   1.6843E-03   setid =   10558 xmoment=   0.0000E+00 ymoment=   0.0000E+00 zmoment=   0.0000E+00
 nd#   10559  xforce=   0.0000E+00   yforce=   0.0000E+00  zforce=  -6.3044E+01   energy=   1.8457E-03   setid =   10559 xmoment=   0.0000E+00 ymoment=   0.0000E+00 zmoment=   0.0000E+00
 nd#   10562  xforce=   0.0000E+00   yforce=   0.0000E+00  zforce=  -6.7399E+01   energy=   3.7823E-03   setid =   10562 xmoment=   0.0000E+00 ymoment=   0.0000E+00 zmoment=   0.0000E+00
 nd#   10563  xforce=   0.0000E+00   yforce=   0.0000E+00  zforce=  -7.2160E+01   energy=   3.8299E-03   setid =   10563 xmoment=   0.0000E+00 ymoment=   0.0000E+00 zmoment=   0.0000E+00
 nd#   10566  xforce=   0.0000E+00   yforce=   0.0000E+00  zforce=  -6.4784E+01   energy=   3.1552E-03   setid =   10566 xmoment=   0.0000E+00 ymoment=   0.0000E+00 zmoment=   0.0000E+00
 nd#   10567  xforce=   0.0000E+00   yforce=   0.0000E+00  zforce=  -7.0116E+01   energy=   3.2934E-03   setid =   10567 xmoment=   0.0000E+00 ymoment=   0.0000E+00 zmoment=   0.0000E+00
 nd#   10570  xforce=   0.0000E+00   yforce=   0.0000E+00  zforce=  -6.1981E+01   energy=   3.3646E-03   setid =   10570 xmoment=   0.0000E+00 ymoment=   0.0000E+00 zmoment=   0.0000E+00
 nd#   10571  xforce=   0.0000E+00   yforce=   0.0000E+00  zforce=  -6.5705E+01   energy=   3.4899E-03   setid =   10571 xmoment=   0.0000E+00 ymoment=   0.0000E+00 zmoment=   0.0000E+00
 nd#   10574  xforce=   0.0000E+00   yforce=   0.0000E+00  zforce=  -7.6980E+01   energy=   3.5865E-03   setid =   10574 xmoment=   0.0000E+00 ymoment=   0.0000E+00 zmoment=   0.0000E+00
 nd#   10575  xforce=   0.0000E+00   yforce=   0.0000E+00  zforce=  -8.2161E+01   energy=   3.7297E-03   setid =   10575 xmoment=   0.0000E+00 ymoment=   0.0000E+00 zmoment=   0.0000E+00
 nd#   10578  xforce=   0.0000E+00   yforce=   0.0000E+00  zforce=  -5.1366E+01   energy=   3.1795E-03   setid =   10578 xmoment=   0.0000E+00 ymoment=   0.0000E+00 zmoment=   0.0000E+00
 nd#   10579  xforce=   0.0000E+00   yforce=   0.0000E+00  zforce=  -5.4347E+01   energy=   3.3182E-03   setid =   10579 xmoment=   0.0000E+00 ymoment=   0.0000E+00 zmoment=   0.0000E+00
 nd#   10582  xforce=   0.0000E+00   yforce=   0.0000E+00  zforce=  -7.2253E+01   energy=   3.4570E-03   setid =   10582 xmoment=   0.0000E+00 ymoment=   0.0000E+00 zmoment=   0.0000E+00
 nd#   10583  xforce=   0.0000E+00   yforce=   0.0000E+00  zforce=  -7.6767E+01   energy=   3.6116E-03   setid =   10583 xmoment=   0.0000E+00 ymoment=   0.0000E+00 zmoment=   0.0000E+00
 nd#   10586  xforce=   0.0000E+00   yforce=   0.0000E+00  zforce=  -2.9936E+01   energy=   1.6572E-03   setid =   10586 xmoment=   0.0000E+00 ymoment=   0.0000E+00 zmoment=   0.0000E+00
 nd#   10587  xforce=   0.0000E+00   yforce=   0.0000E+00  zforce=  -3.1836E+01   energy=   1.7042E-03   setid =   10587 xmoment=   0.0000E+00 ymoment=   0.0000E+00 zmoment=   0.0000E+00
 nd#   10710  xforce=   0.0000E+00   yforce=   0.0000E+00  zforce=  -8.9646E+01   energy=   2.8672E-03   setid =   10710 xmoment=   0.0000E+00 ymoment=   0.0000E+00 zmoment=   0.0000E+00
 nd#   10711  xforce=   0.0000E+00   yforce=   0.0000E+00  zforce=  -9.8104E+01   energy=   4.1589E-03   setid =   10711 xmoment=   0.0000E+00 ymoment=   0.0000E+00 zmoment=   0.0000E+00
 nd#   10712  xforce=   0.0000E+00   yforce=   0.0000E+00  zforce=  -1.0258E+02   energy=   4.2011E-03   setid =   10712 xmoment=   0.0000E+00 ymoment=   0.0000E+00 zmoment=   0.0000E+00
 nd#   10713  xforce=   0.0000E+00   yforce=   0.0000E+00  zforce=  -8.9975E+01   energy=   4.3167E-03   setid =   10713 xmoment=   0.0000E+00 ymoment=   0.0000E+00 zmoment=   0.0000E+00
 nd#   10714  xforce=   0.0000E+00   yforce=   0.0000E+00  zforce=  -1.2348E+02   energy=   4.8313E-03   setid =   10714 xmoment=   0.0000E+00 ymoment=   0.0000E+00 zmoment=   0.0000E+00
 nd#   10715  xforce=   0.0000E+00   yforce=   0.0000E+00  zforce=  -7.5586E+01   energy=   4.2018E-03   setid =   10715 xmoment=   0.0000E+00 ymoment=   0.0000E+00 zmoment=   0.0000E+00
 nd#   10716  xforce=   0.0000E+00   yforce=   0.0000E+00  zforce=  -1.1034E+02   energy=   4.7914E-03   setid =   10716 xmoment=   0.0000E+00 ymoment=   0.0000E+00 zmoment=   0.0000E+00
 nd#   10717  xforce=   0.0000E+00   yforce=   0.0000E+00  zforce=  -4.4318E+01   energy=   2.0056E-03   setid =   10717 xmoment=   0.0000E+00 ymoment=   0.0000E+00 zmoment=   0.0000E+00
 nd#   10990  xforce=   0.0000E+00   yforce=   0.0000E+00  zforce=  -4.8706E+01   energy=   9.4817E-04   setid =   10990 xmoment=   0.0000E+00 ymoment=   0.0000E+00 zmoment=   0.0000E+00
 nd#   10992  xforce=   0.0000E+00   yforce=   0.0000E+00  zforce=  -5.0548E+01   energy=   3.5303E-03   setid =   10992 xmoment=   0.0000E+00 ymoment=   0.0000E+00 zmoment=   0.0000E+00
 nd#   10994  xforce=   0.0000E+00   yforce=   0.0000E+00  zforce=  -4.8464E+01   energy=   2.6449E-03   setid =   10994 xmoment=   0.0000E+00 ymoment=   0.0000E+00 zmoment=   0.0000E+00
 nd#   10996  xforce=   0.0000E+00   yforce=   0.0000E+00  zforce=  -4.7253E+01   energy=   2.8305E-03   setid =   10996 xmoment=   0.0000E+00 ymoment=   0.0000E+00 zmoment=   0.0000E+00
 nd#   10998  xforce=   0.0000E+00   yforce=   0.0000E+00  zforce=  -5.9760E+01   energy=   3.0456E-03   setid =   10998 xmoment=   0.0000E+00 ymoment=   0.0000E+00 zmoment=   0.0000E+00
 nd#   11000  xforce=   0.0000E+00   yforce=   0.0000E+00  zforce=  -3.5199E+01   energy=   2.4748E-03   setid =   11000 xmoment=   0.0000E+00 ymoment=   0.0000E+00 zmoment=   0.0000E+00
 nd#   11002  xforce=   0.0000E+00   yforce=   0.0000E+00  zforce=  -5.4512E+01   energy=   2.7463E-03   setid =   11002 xmoment=   0.0000E+00 ymoment=   0.0000E+00 zmoment=   0.0000E+00
 nd#   11004  xforce=   0.0000E+00   yforce=   0.0000E+00  zforce=  -2.1413E+01   energy=   1.4058E-03   setid =   11004 xmoment=   0.0000E+00 ymoment=   0.0000E+00 zmoment=   0.0000E+00
 nd#   11078  xforce=   0.0000E+00   yforce=   0.0000E+00  zforce=  -6.7271E+01   energy=   2.0025E-03   setid =   11078 xmoment=   0.0000E+00 ymoment=   0.0000E+00 zmoment=   0.0000E+00
 nd#   11079  xforce=   0.0000E+00   yforce=   0.0000E+00  zforce=  -7.6714E+01   energy=   3.8796E-03   setid =   11079 xmoment=   0.0000E+00 ymoment=   0.0000E+00 zmoment=   0.0000E+00
 nd#   11080  xforce=   0.0000E+00   yforce=   0.0000E+00  zforce=  -7.5348E+01   energy=   3.4356E-03   setid =   11080 xmoment=   0.0000E+00 ymoment=   0.0000E+00 zmoment=   0.0000E+00
 nd#   11081  xforce=   0.0000E+00   yforce=   0.0000E+00  zforce=  -7.0167E+01   energy=   3.6245E-03   setid =   11081 xmoment=   0.0000E+00 ymoment=   0.0000E+00 zmoment=   0.0000E+00
 nd#   11082  xforce=   0.0000E+00   yforce=   0.0000E+00  zforce=  -8.8522E+01   energy=   3.8868E-03   setid =   11082 xmoment=   0.0000E+00 ymoment=   0.0000E+00 zmoment=   0.0000E+00
 nd#   11083  xforce=   0.0000E+00   yforce=   0.0000E+00  zforce=  -5.7842E+01   energy=   3.4693E-03   setid =   11083 xmoment=   0.0000E+00 ymoment=   0.0000E+00 zmoment=   0.0000E+00
 nd#   11084  xforce=   0.0000E+00   yforce=   0.0000E+00  zforce=  -8.2653E+01   energy=   3.7823E-03   setid =   11084 xmoment=   0.0000E+00 ymoment=   0.0000E+00 zmoment=   0.0000E+00
 nd#   11085  xforce=   0.0000E+00   yforce=   0.0000E+00  zforce=  -3.4106E+01   energy=   1.7537E-03   setid =   11085 xmoment=   0.0000E+00 ymoment=   0.0000E+00 zmoment=   0.0000E+00
 nd#   11222  xforce=   0.0000E+00   yforce=   0.0000E+00  zforce=  -7.1440E+01   energy=   2.1824E-03   setid =   11222 xmoment=   0.0000E+00 ymoment=   0.0000E+00 zmoment=   0.0000E+00
 nd#   11223  xforce=   0.0000E+00   yforce=   0.0000E+00  zforce=  -8.0642E+01   energy=   3.9451E-03   setid =   11223 xmoment=   0.0000E+00 ymoment=   0.0000E+00 zmoment=   0.0000E+00
 nd#   11224  xforce=   0.0000E+00   yforce=   0.0000E+00  zforce=  -8.0054E+01   energy=   3.5914E-03   setid =   11224 xmoment=   0.0000E+00 ymoment=   0.0000E+00 zmoment=   0.0000E+00
 nd#   11225  xforce=   0.0000E+00   yforce=   0.0000E+00  zforce=  -7.3505E+01   energy=   3.7669E-03   setid =   11225 xmoment=   0.0000E+00 ymoment=   0.0000E+00 zmoment=   0.0000E+00
 nd#   11226  xforce=   0.0000E+00   yforce=   0.0000E+00  zforce=  -9.4435E+01   energy=   4.0544E-03   setid =   11226 xmoment=   0.0000E+00 ymoment=   0.0000E+00 zmoment=   0.0000E+00
 nd#   11227  xforce=   0.0000E+00   yforce=   0.0000E+00  zforce=  -6.1331E+01   energy=   3.6198E-03   setid =   11227 xmoment=   0.0000E+00 ymoment=   0.0000E+00 zmoment=   0.0000E+00
 nd#   11228  xforce=   0.0000E+00   yforce=   0.0000E+00  zforce=  -8.7466E+01   energy=   3.9546E-03   setid =   11228 xmoment=   0.0000E+00 ymoment=   0.0000E+00 zmoment=   0.0000E+00
 nd#   11229  xforce=   0.0000E+00   yforce=   0.0000E+00  zforce=  -3.6237E+01   energy=   1.8063E-03   setid =   11229 xmoment=   0.0000E+00 ymoment=   0.0000E+00 zmoment=   0.0000E+00
 nd#   11238  xforce=   0.0000E+00   yforce=   0.0000E+00  zforce=  -5.0585E+01   energy=  -1.2334E-03   setid =   11238 xmoment=   0.0000E+00 ymoment=   0.0000E+00 zmoment=   0.0000E+00
 nd#   11239  xforce=   0.0000E+00   yforce=   0.0000E+00  zforce=  -4.7443E+01   energy=  -1.4900E-03   setid =   11239 xmoment=   0.0000E+00 ymoment=   0.0000E+00 zmoment=   0.0000E+00
 nd#   11240  xforce=   0.0000E+00   yforce=   0.0000E+00  zforce=  -4.6931E+01   energy=  -1.7984E-03   setid =   11240 xmoment=   0.0000E+00 ymoment=   0.0000E+00 zmoment=   0.0000E+00
 nd#   11241  xforce=   0.0000E+00   yforce=   0.0000E+00  zforce=   1.1459E+01   energy=  -2.4932E-03   setid =   11241 xmoment=   0.0000E+00 ymoment=   0.0000E+00 zmoment=   0.0000E+00
 nd#   11242  xforce=   0.0000E+00   yforce=   0.0000E+00  zforce=  -9.5594E+01   energy=  -2.3642E-03   setid =   11242 xmoment=   0.0000E+00 ymoment=   0.0000E+00 zmoment=   0.0000E+00
 nd#   11243  xforce=   0.0000E+00   yforce=   0.0000E+00  zforce=   2.4142E+01   energy=  -3.6695E-03   setid =   11243 xmoment=   0.0000E+00 ymoment=   0.0000E+00 zmoment=   0.0000E+00
 nd#   11244  xforce=   0.0000E+00   yforce=   0.0000E+00  zforce=  -6.3507E+01   energy=  -2.8937E-03   setid =   11244 xmoment=   0.0000E+00 ymoment=   0.0000E+00 zmoment=   0.0000E+00
 nd#   11245  xforce=   0.0000E+00   yforce=   0.0000E+00  zforce=  -7.3761E+00   energy=  -2.1001E-03   setid =   11245 xmoment=   0.0000E+00 ymoment=   0.0000E+00 zmoment=   0.0000E+00
 nd#   11246  xforce=   0.0000E+00   yforce=   0.0000E+00  zforce=  -8.4968E+01   energy=   2.7142E-03   setid =   11246 xmoment=   0.0000E+00 ymoment=   0.0000E+00 zmoment=   0.0000E+00
 nd#   11247  xforce=   0.0000E+00   yforce=   0.0000E+00  zforce=  -9.3737E+01   energy=   4.1182E-03   setid =   11247 xmoment=   0.0000E+00 ymoment=   0.0000E+00 zmoment=   0.0000E+00
 nd#   11248  xforce=   0.0000E+00   yforce=   0.0000E+00  zforce=  -9.6806E+01   energy=   4.0579E-03   setid =   11248 xmoment=   0.0000E+00 ymoment=   0.0000E+00 zmoment=   0.0000E+00
 nd#   11249  xforce=   0.0000E+00   yforce=   0.0000E+00  zforce=  -8.6512E+01   energy=   4.1888E-03   setid =   11249 xmoment=   0.0000E+00 ymoment=   0.0000E+00 zmoment=   0.0000E+00
 nd#   11250  xforce=   0.0000E+00   yforce=   0.0000E+00  zforce=  -1.1692E+02   energy=   4.6255E-03   setid =   11250 xmoment=   0.0000E+00 ymoment=   0.0000E+00 zmoment=   0.0000E+00
 nd#   11251  xforce=   0.0000E+00   yforce=   0.0000E+00  zforce=  -7.3598E+01   energy=   4.0666E-03   setid =   11251 xmoment=   0.0000E+00 ymoment=   0.0000E+00 zmoment=   0.0000E+00
 nd#   11252  xforce=   0.0000E+00   yforce=   0.0000E+00  zforce=  -1.0573E+02   energy=   4.5598E-03   setid =   11252 xmoment=   0.0000E+00 ymoment=   0.0000E+00 zmoment=   0.0000E+00
 nd#   11253  xforce=   0.0000E+00   yforce=   0.0000E+00  zforce=  -4.3123E+01   energy=   1.9595E-03   setid =   11253 xmoment=   0.0000E+00 ymoment=   0.0000E+00 zmoment=   0.0000E+00
              xtotal=   0.0000E+00   ytotal=   0.0000E+00  ztotal=  -1.3945E+04   etotal=   6.2915E-01
