 LS-DYNA keyword deck by LS-PrePost                                      
                    ls-dyna smp d R14 R14.1.1s_1_ef50e1 date 06/16/2024

{BEGIN LEGEND}
 Entity #        Title
       45                                                                                     
       46                                                                                     
       47                                                                                     
       48                                                                                     
       49                                                                                     
       50                                                                                     
       51                                                                                     
       52                                                                                     
       53                                                                                     
       54                                                                                     
       55                                                                                     
       56                                                                                     
       57                                                                                     
       58                                                                                     
       59                                                                                     
       60                                                                                     
       61                                                                                     
       62                                                                                     
       63                                                                                     
       64                                                                                     
       65                                                                                     
       66                                                                                     
       67                                                                                     
       68                                                                                     
       69                                                                                     
       70                                                                                     
       71                                                                                     
       72                                                                                     
       73                                                                                     
       74                                                                                     
       75                                                                                     
       76                                                                                     
       77                                                                                     
       78                                                                                     
       79                                                                                     
       80                                                                                     
       81                                                                                     
       82                                                                                     
       83                                                                                     
       84                                                                                     
       85                                                                                     
       86                                                                                     
       87                                                                                     
       88                                                                                     
       89                                                                                     
       90                                                                                     
       91                                                                                     
       92                                                                                     
       93                                                                                     
       94                                                                                     
       95                                                                                     
       96                                                                                     
       97                                                                                     
       98                                                                                     
       99                                                                                     
      100                                                                                     
      101                                                                                     
      102                                                                                     
      103                                                                                     
      104                                                                                     
      105                                                                                     
      591                                                                                     
      592                                                                                     
      593                                                                                     
      594                                                                                     
      775                                                                                     
      776                                                                                     
      777                                                                                     
      778                                                                                     
      959                                                                                     
      960                                                                                     
      961                                                                                     
      962                                                                                     
     1143                                                                                     
     1144                                                                                     
     1145                                                                                     
     1146                                                                                     
     1237                                                                                     
     1238                                                                                     
     1419                                                                                     
     1420                                                                                     
     1421                                                                                     
     1422                                                                                     
     1468                                                                                     
     1559                                                                                     
     1560                                                                                     
     1651                                                                                     
     1652                                                                                     
     1833                                                                                     
     1834                                                                                     
     1835                                                                                     
     1836                                                                                     
     1927                                                                                     
     1928                                                                                     
     1974                                                                                     
     2110                                                                                     
     2111                                                                                     
     2112                                                                                     
     2203                                                                                     
     2204                                                                                     
     2250                                                                                     
     2296                                                                                     
     2387                                                                                     
     2388                                                                                     
     2479                                                                                     
     2480                                                                                     
     2526                                                                                     
     2617                                                                                     
     2618                                                                                     
     2709                                                                                     
     2710                                                                                     
     2801                                                                                     
     2802                                                                                     
     2983                                                                                     
     2984                                                                                     
     2985                                                                                     
     2986                                                                                     
     3122                                                                                     
     3123                                                                                     
     3124                                                                                     
     3215                                                                                     
     3216                                                                                     
     3281                                                                                     
     3282                                                                                     
     3283                                                                                     
     3284                                                                                     
     3285                                                                                     
     3286                                                                                     
     3287                                                                                     
     3288                                                                                     
     3289                                                                                     
     3290                                                                                     
     3291                                                                                     
     3292                                                                                     
     3293                                                                                     
     3294                                                                                     
     3295                                                                                     
     3296                                                                                     
     3297                                                                                     
     3298                                                                                     
     3299                                                                                     
     6390                                                                                     
     6391                                                                                     
     6394                                                                                     
     6395                                                                                     
     6398                                                                                     
     6399                                                                                     
     6402                                                                                     
     6403                                                                                     
     6406                                                                                     
     6407                                                                                     
     6410                                                                                     
     6411                                                                                     
     6414                                                                                     
     6415                                                                                     
     6418                                                                                     
     6419                                                                                     
     6542                                                                                     
     6543                                                                                     
     6546                                                                                     
     6547                                                                                     
     6550                                                                                     
     6551                                                                                     
     6554                                                                                     
     6555                                                                                     
     6558                                                                                     
     6559                                                                                     
     6562                                                                                     
     6563                                                                                     
     6566                                                                                     
     6567                                                                                     
     6570                                                                                     
     6571                                                                                     
     6598                                                                                     
     6599                                                                                     
     6600                                                                                     
     6601                                                                                     
     6602                                                                                     
     6603                                                                                     
     6604                                                                                     
     6605                                                                                     
     6606                                                                                     
     6607                                                                                     
     6608                                                                                     
     6609                                                                                     
     6610                                                                                     
     6611                                                                                     
     6612                                                                                     
     6613                                                                                     
     6854                                                                                     
     6856                                                                                     
     6858                                                                                     
     6860                                                                                     
     6862                                                                                     
     6864                                                                                     
     6866                                                                                     
     6868                                                                                     
     8222                                                                                     
     8223                                                                                     
     8226                                                                                     
     8227                                                                                     
     8230                                                                                     
     8231                                                                                     
     8234                                                                                     
     8235                                                                                     
     8238                                                                                     
     8239                                                                                     
     8242                                                                                     
     8243                                                                                     
     8246                                                                                     
     8247                                                                                     
     8250                                                                                     
     8251                                                                                     
     9318                                                                                     
     9320                                                                                     
     9322                                                                                     
     9324                                                                                     
     9326                                                                                     
     9328                                                                                     
     9330                                                                                     
     9332                                                                                     
     9822                                                                                     
     9824                                                                                     
     9826                                                                                     
     9828                                                                                     
     9830                                                                                     
     9832                                                                                     
     9834                                                                                     
     9836                                                                                     
    10558                                                                                     
    10559                                                                                     
    10562                                                                                     
    10563                                                                                     
    10566                                                                                     
    10567                                                                                     
    10570                                                                                     
    10571                                                                                     
    10574                                                                                     
    10575                                                                                     
    10578                                                                                     
    10579                                                                                     
    10582                                                                                     
    10583                                                                                     
    10586                                                                                     
    10587                                                                                     
    10710                                                                                     
    10711                                                                                     
    10712                                                                                     
    10713                                                                                     
    10714                                                                                     
    10715                                                                                     
    10716                                                                                     
    10717                                                                                     
    10990                                                                                     
    10992                                                                                     
    10994                                                                                     
    10996                                                                                     
    10998                                                                                     
    11000                                                                                     
    11002                                                                                     
    11004                                                                                     
    11078                                                                                     
    11079                                                                                     
    11080                                                                                     
    11081                                                                                     
    11082                                                                                     
    11083                                                                                     
    11084                                                                                     
    11085                                                                                     
    11222                                                                                     
    11223                                                                                     
    11224                                                                                     
    11225                                                                                     
    11226                                                                                     
    11227                                                                                     
    11228                                                                                     
    11229                                                                                     
    11238                                                                                     
    11239                                                                                     
    11240                                                                                     
    11241                                                                                     
    11242                                                                                     
    11243                                                                                     
    11244                                                                                     
    11245                                                                                     
    11246                                                                                     
    11247                                                                                     
    11248                                                                                     
    11249                                                                                     
    11250                                                                                     
    11251                                                                                     
    11252                                                                                     
    11253                                                                                     
{END LEGEND}




 n o d a l   p r i n t   o u t   f o r   t i m e  s t e p       1                              ( at time 0.0000000E+00 )

 nodal point  x-disp     y-disp      z-disp      x-vel       y-vel       z-vel      x-accl      y-accl      z-accl      x-coor      y-coor      z-coor
       45  0.00000E+00 0.00000E+00 0.00000E+00 0.00000E+00 0.00000E+00 0.00000E+00 0.00000E+00 0.00000E+00 0.00000E+00 3.17500E-03 0.00000E+00-1.78000E-18
       46  0.00000E+00 0.00000E+00 0.00000E+00 0.00000E+00 0.00000E+00 0.00000E+00 0.00000E+00 0.00000E+00 0.00000E+00 2.77810E-03 0.00000E+00 0.00000E+00
       47  0.00000E+00 0.00000E+00 0.00000E+00 0.00000E+00 0.00000E+00 0.00000E+00 0.00000E+00 0.00000E+00 0.00000E+00 2.38130E-03 0.00000E+00 0.00000E+00
       48  0.00000E+00 0.00000E+00 0.00000E+00 0.00000E+00 0.00000E+00 0.00000E+00 0.00000E+00 0.00000E+00 0.00000E+00 1.98440E-03 0.00000E+00 0.00000E+00
       49  0.00000E+00 0.00000E+00 0.00000E+00 0.00000E+00 0.00000E+00 0.00000E+00 0.00000E+00 0.00000E+00 0.00000E+00 1.58750E-03 0.00000E+00 0.00000E+00
       50  0.00000E+00 0.00000E+00 0.00000E+00 0.00000E+00 0.00000E+00 0.00000E+00 0.00000E+00 0.00000E+00 0.00000E+00 1.19060E-03 0.00000E+00 0.00000E+00
       51  0.00000E+00 0.00000E+00 0.00000E+00 0.00000E+00 0.00000E+00 0.00000E+00 0.00000E+00 0.00000E+00 0.00000E+00 7.93750E-04 0.00000E+00 0.00000E+00
       52  0.00000E+00 0.00000E+00 0.00000E+00 0.00000E+00 0.00000E+00 0.00000E+00 0.00000E+00 0.00000E+00 0.00000E+00 3.96875E-04 0.00000E+00 0.00000E+00
       53  0.00000E+00 0.00000E+00 0.00000E+00 0.00000E+00 0.00000E+00 0.00000E+00 0.00000E+00 0.00000E+00 0.00000E+00 0.00000E+00 0.00000E+00 0.00000E+00
       54  0.00000E+00 0.00000E+00 0.00000E+00 0.00000E+00 0.00000E+00 0.00000E+00 0.00000E+00 0.00000E+00 0.00000E+00 2.43000E-20 3.96875E-04 0.00000E+00
       55  0.00000E+00 0.00000E+00 0.00000E+00 0.00000E+00 0.00000E+00 0.00000E+00 0.00000E+00 0.00000E+00 0.00000E+00 4.86000E-20 7.93750E-04 0.00000E+00
       56  0.00000E+00 0.00000E+00 0.00000E+00 0.00000E+00 0.00000E+00 0.00000E+00 0.00000E+00 0.00000E+00 0.00000E+00 7.29000E-20 1.19060E-03 0.00000E+00
       57  0.00000E+00 0.00000E+00 0.00000E+00 0.00000E+00 0.00000E+00 0.00000E+00 0.00000E+00 0.00000E+00 0.00000E+00 9.72100E-20 1.58750E-03 0.00000E+00
       58  0.00000E+00 0.00000E+00 0.00000E+00 0.00000E+00 0.00000E+00 0.00000E+00 0.00000E+00 0.00000E+00 0.00000E+00 1.21500E-19 1.98440E-03 0.00000E+00
       59  0.00000E+00 0.00000E+00 0.00000E+00 0.00000E+00 0.00000E+00 0.00000E+00 0.00000E+00 0.00000E+00 0.00000E+00 1.45800E-19 2.38130E-03 0.00000E+00
       60  0.00000E+00 0.00000E+00 0.00000E+00 0.00000E+00 0.00000E+00 0.00000E+00 0.00000E+00 0.00000E+00 0.00000E+00 1.70100E-19 2.77810E-03 0.00000E+00
       61  0.00000E+00 0.00000E+00 0.00000E+00 0.00000E+00 0.00000E+00 0.00000E+00 0.00000E+00 0.00000E+00 0.00000E+00 1.94400E-19 3.17500E-03 0.00000E+00
       62  0.00000E+00 0.00000E+00 0.00000E+00 0.00000E+00 0.00000E+00 0.00000E+00 0.00000E+00 0.00000E+00 0.00000E+00 6.19412E-04 3.11400E-03 0.00000E+00
       63  0.00000E+00 0.00000E+00 0.00000E+00 0.00000E+00 0.00000E+00 0.00000E+00 0.00000E+00 0.00000E+00 0.00000E+00 1.21500E-03 2.93330E-03 0.00000E+00
       64  0.00000E+00 0.00000E+00 0.00000E+00 0.00000E+00 0.00000E+00 0.00000E+00 0.00000E+00 0.00000E+00 0.00000E+00 1.76390E-03 2.63990E-03 0.00000E+00
       65  0.00000E+00 0.00000E+00 0.00000E+00 0.00000E+00 0.00000E+00 0.00000E+00 0.00000E+00 0.00000E+00 0.00000E+00 2.24510E-03 2.24510E-03 0.00000E+00
       66  0.00000E+00 0.00000E+00 0.00000E+00 0.00000E+00 0.00000E+00 0.00000E+00 0.00000E+00 0.00000E+00 0.00000E+00 2.63990E-03 1.76390E-03 0.00000E+00
       67  0.00000E+00 0.00000E+00 0.00000E+00 0.00000E+00 0.00000E+00 0.00000E+00 0.00000E+00 0.00000E+00 0.00000E+00 2.93330E-03 1.21500E-03 0.00000E+00
       68  0.00000E+00 0.00000E+00 0.00000E+00 0.00000E+00 0.00000E+00 0.00000E+00 0.00000E+00 0.00000E+00 0.00000E+00 3.11400E-03 6.19412E-04 0.00000E+00
       69  0.00000E+00 0.00000E+00 0.00000E+00 0.00000E+00 0.00000E+00 0.00000E+00 0.00000E+00 0.00000E+00 0.00000E+00 1.31960E-03 1.36880E-03 0.00000E+00
       70  0.00000E+00 0.00000E+00 0.00000E+00 0.00000E+00 0.00000E+00 0.00000E+00 0.00000E+00 0.00000E+00 0.00000E+00 1.41990E-03 1.05600E-03 0.00000E+00
       71  0.00000E+00 0.00000E+00 0.00000E+00 0.00000E+00 0.00000E+00 0.00000E+00 0.00000E+00 0.00000E+00 0.00000E+00 1.49480E-03 7.16638E-04 0.00000E+00
       72  0.00000E+00 0.00000E+00 0.00000E+00 0.00000E+00 0.00000E+00 0.00000E+00 0.00000E+00 0.00000E+00 0.00000E+00 1.55210E-03 3.65643E-04 0.00000E+00
       73  0.00000E+00 0.00000E+00 0.00000E+00 0.00000E+00 0.00000E+00 0.00000E+00 0.00000E+00 0.00000E+00 0.00000E+00 1.00430E-03 1.46670E-03 0.00000E+00
       74  0.00000E+00 0.00000E+00 0.00000E+00 0.00000E+00 0.00000E+00 0.00000E+00 0.00000E+00 0.00000E+00 0.00000E+00 6.73483E-04 1.52690E-03 0.00000E+00
       75  0.00000E+00 0.00000E+00 0.00000E+00 0.00000E+00 0.00000E+00 0.00000E+00 0.00000E+00 0.00000E+00 0.00000E+00 3.38751E-04 1.56720E-03 0.00000E+00
       76  0.00000E+00 0.00000E+00 0.00000E+00 0.00000E+00 0.00000E+00 0.00000E+00 0.00000E+00 0.00000E+00 0.00000E+00 1.07260E-03 1.11900E-03 0.00000E+00
       77  0.00000E+00 0.00000E+00 0.00000E+00 0.00000E+00 0.00000E+00 0.00000E+00 0.00000E+00 0.00000E+00 0.00000E+00 7.18764E-04 1.16310E-03 0.00000E+00
       78  0.00000E+00 0.00000E+00 0.00000E+00 0.00000E+00 0.00000E+00 0.00000E+00 0.00000E+00 0.00000E+00 0.00000E+00 3.60890E-04 1.18700E-03 0.00000E+00
       79  0.00000E+00 0.00000E+00 0.00000E+00 0.00000E+00 0.00000E+00 0.00000E+00 0.00000E+00 0.00000E+00 0.00000E+00 1.12790E-03 7.59903E-04 0.00000E+00
       80  0.00000E+00 0.00000E+00 0.00000E+00 0.00000E+00 0.00000E+00 0.00000E+00 0.00000E+00 0.00000E+00 0.00000E+00 7.54684E-04 7.87592E-04 0.00000E+00
       81  0.00000E+00 0.00000E+00 0.00000E+00 0.00000E+00 0.00000E+00 0.00000E+00 0.00000E+00 0.00000E+00 0.00000E+00 3.77845E-04 7.99321E-04 0.00000E+00
       82  0.00000E+00 0.00000E+00 0.00000E+00 0.00000E+00 0.00000E+00 0.00000E+00 0.00000E+00 0.00000E+00 0.00000E+00 1.16790E-03 3.87601E-04 0.00000E+00
       83  0.00000E+00 0.00000E+00 0.00000E+00 0.00000E+00 0.00000E+00 0.00000E+00 0.00000E+00 0.00000E+00 0.00000E+00 7.80099E-04 4.00361E-04 0.00000E+00
       84  0.00000E+00 0.00000E+00 0.00000E+00 0.00000E+00 0.00000E+00 0.00000E+00 0.00000E+00 0.00000E+00 0.00000E+00 3.90055E-04 4.03582E-04 0.00000E+00
       85  0.00000E+00 0.00000E+00 0.00000E+00 0.00000E+00 0.00000E+00 0.00000E+00 0.00000E+00 0.00000E+00 0.00000E+00 1.53460E-03 1.58390E-03 0.00000E+00
       86  0.00000E+00 0.00000E+00 0.00000E+00 0.00000E+00 0.00000E+00 0.00000E+00 0.00000E+00 0.00000E+00 0.00000E+00 1.75250E-03 1.79160E-03 0.00000E+00
       87  0.00000E+00 0.00000E+00 0.00000E+00 0.00000E+00 0.00000E+00 0.00000E+00 0.00000E+00 0.00000E+00 0.00000E+00 1.98780E-03 2.01100E-03 0.00000E+00
       88  0.00000E+00 0.00000E+00 0.00000E+00 0.00000E+00 0.00000E+00 0.00000E+00 0.00000E+00 0.00000E+00 0.00000E+00 1.17250E-03 1.74090E-03 0.00000E+00
       89  0.00000E+00 0.00000E+00 0.00000E+00 0.00000E+00 0.00000E+00 0.00000E+00 0.00000E+00 0.00000E+00 0.00000E+00 1.35390E-03 2.02660E-03 0.00000E+00
       90  0.00000E+00 0.00000E+00 0.00000E+00 0.00000E+00 0.00000E+00 0.00000E+00 0.00000E+00 0.00000E+00 0.00000E+00 1.55020E-03 2.32570E-03 0.00000E+00
       91  0.00000E+00 0.00000E+00 0.00000E+00 0.00000E+00 0.00000E+00 0.00000E+00 0.00000E+00 0.00000E+00 0.00000E+00 7.93386E-04 1.86070E-03 0.00000E+00
       92  0.00000E+00 0.00000E+00 0.00000E+00 0.00000E+00 0.00000E+00 0.00000E+00 0.00000E+00 0.00000E+00 0.00000E+00 9.23055E-04 2.20580E-03 0.00000E+00
       93  0.00000E+00 0.00000E+00 0.00000E+00 0.00000E+00 0.00000E+00 0.00000E+00 0.00000E+00 0.00000E+00 0.00000E+00 1.06330E-03 2.56300E-03 0.00000E+00
       94  0.00000E+00 0.00000E+00 0.00000E+00 0.00000E+00 0.00000E+00 0.00000E+00 0.00000E+00 0.00000E+00 0.00000E+00 4.01248E-04 1.94230E-03 0.00000E+00
       95  0.00000E+00 0.00000E+00 0.00000E+00 0.00000E+00 0.00000E+00 0.00000E+00 0.00000E+00 0.00000E+00 0.00000E+00 4.68736E-04 2.32500E-03 0.00000E+00
       96  0.00000E+00 0.00000E+00 0.00000E+00 0.00000E+00 0.00000E+00 0.00000E+00 0.00000E+00 0.00000E+00 0.00000E+00 5.41395E-04 2.71540E-03 0.00000E+00
       97  0.00000E+00 0.00000E+00 0.00000E+00 0.00000E+00 0.00000E+00 0.00000E+00 0.00000E+00 0.00000E+00 0.00000E+00 1.69680E-03 1.22120E-03 0.00000E+00
       98  0.00000E+00 0.00000E+00 0.00000E+00 0.00000E+00 0.00000E+00 0.00000E+00 0.00000E+00 0.00000E+00 0.00000E+00 1.83410E-03 8.41896E-04 0.00000E+00
       99  0.00000E+00 0.00000E+00 0.00000E+00 0.00000E+00 0.00000E+00 0.00000E+00 0.00000E+00 0.00000E+00 0.00000E+00 1.92660E-03 4.29536E-04 0.00000E+00
      100  0.00000E+00 0.00000E+00 0.00000E+00 0.00000E+00 0.00000E+00 0.00000E+00 0.00000E+00 0.00000E+00 0.00000E+00 1.99850E-03 1.40320E-03 0.00000E+00
      101  0.00000E+00 0.00000E+00 0.00000E+00 0.00000E+00 0.00000E+00 0.00000E+00 0.00000E+00 0.00000E+00 0.00000E+00 2.18020E-03 9.62156E-04 0.00000E+00
      102  0.00000E+00 0.00000E+00 0.00000E+00 0.00000E+00 0.00000E+00 0.00000E+00 0.00000E+00 0.00000E+00 0.00000E+00 2.31070E-03 4.94051E-04 0.00000E+00
      103  0.00000E+00 0.00000E+00 0.00000E+00 0.00000E+00 0.00000E+00 0.00000E+00 0.00000E+00 0.00000E+00 0.00000E+00 2.30180E-03 1.57500E-03 0.00000E+00
      104  0.00000E+00 0.00000E+00 0.00000E+00 0.00000E+00 0.00000E+00 0.00000E+00 0.00000E+00 0.00000E+00 0.00000E+00 2.54360E-03 1.08690E-03 0.00000E+00
      105  0.00000E+00 0.00000E+00 0.00000E+00 0.00000E+00 0.00000E+00 0.00000E+00 0.00000E+00 0.00000E+00 0.00000E+00 2.70530E-03 5.57707E-04 0.00000E+00
      591  0.00000E+00 0.00000E+00 0.00000E+00 0.00000E+00 0.00000E+00 0.00000E+00 0.00000E+00 0.00000E+00 0.00000E+00 7.57842E-04 3.80110E-03 2.54000E-02
      592  0.00000E+00 0.00000E+00 0.00000E+00 0.00000E+00 0.00000E+00 0.00000E+00 0.00000E+00 0.00000E+00 0.00000E+00 1.48830E-03 3.58780E-03 2.54000E-02
      593  0.00000E+00 0.00000E+00 0.00000E+00 0.00000E+00 0.00000E+00 0.00000E+00 0.00000E+00 0.00000E+00 0.00000E+00 1.70060E-03 4.10680E-03 2.54000E-02
      594  0.00000E+00 0.00000E+00 0.00000E+00 0.00000E+00 0.00000E+00 0.00000E+00 0.00000E+00 0.00000E+00 0.00000E+00 8.67329E-04 4.35960E-03 2.54000E-02
      775  0.00000E+00 0.00000E+00 0.00000E+00 0.00000E+00 0.00000E+00 0.00000E+00 0.00000E+00 0.00000E+00 0.00000E+00 2.22250E-03 0.00000E+00 2.54000E-02
      776  0.00000E+00 0.00000E+00 0.00000E+00 0.00000E+00 0.00000E+00 0.00000E+00 0.00000E+00 0.00000E+00 0.00000E+00 2.17250E-03 5.11805E-04 2.54000E-02
      777  0.00000E+00 0.00000E+00 0.00000E+00 0.00000E+00 0.00000E+00 0.00000E+00 0.00000E+00 0.00000E+00 0.00000E+00 1.63470E-03 5.42515E-04 2.54000E-02
      778  0.00000E+00 0.00000E+00 0.00000E+00 0.00000E+00 0.00000E+00 0.00000E+00 0.00000E+00 0.00000E+00 0.00000E+00 1.66690E-03 0.00000E+00 2.54000E-02
      959  0.00000E+00 0.00000E+00 0.00000E+00 0.00000E+00 0.00000E+00 0.00000E+00 0.00000E+00 0.00000E+00 0.00000E+00 3.05180E-03 1.34670E-03 2.54000E-02
      960  0.00000E+00 0.00000E+00 0.00000E+00 0.00000E+00 0.00000E+00 0.00000E+00 0.00000E+00 0.00000E+00 0.00000E+00 2.56740E-03 1.17850E-03 2.54000E-02
      961  0.00000E+00 0.00000E+00 0.00000E+00 0.00000E+00 0.00000E+00 0.00000E+00 0.00000E+00 0.00000E+00 0.00000E+00 2.69680E-03 6.01219E-04 2.54000E-02
      962  0.00000E+00 0.00000E+00 0.00000E+00 0.00000E+00 0.00000E+00 0.00000E+00 0.00000E+00 0.00000E+00 0.00000E+00 3.23450E-03 6.91557E-04 2.54000E-02
     1143  0.00000E+00 0.00000E+00 0.00000E+00 0.00000E+00 0.00000E+00 0.00000E+00 0.00000E+00 0.00000E+00 0.00000E+00 2.78260E-03 2.81510E-03 2.54000E-02
     1144  0.00000E+00 0.00000E+00 0.00000E+00 0.00000E+00 0.00000E+00 0.00000E+00 0.00000E+00 0.00000E+00 0.00000E+00 2.45320E-03 2.50800E-03 2.54000E-02
     1145  0.00000E+00 0.00000E+00 0.00000E+00 0.00000E+00 0.00000E+00 0.00000E+00 0.00000E+00 0.00000E+00 0.00000E+00 2.79750E-03 1.96410E-03 2.54000E-02
     1146  0.00000E+00 0.00000E+00 0.00000E+00 0.00000E+00 0.00000E+00 0.00000E+00 0.00000E+00 0.00000E+00 0.00000E+00 3.22220E-03 2.20460E-03 2.54000E-02
     1237  0.00000E+00 0.00000E+00 0.00000E+00 0.00000E+00 0.00000E+00 0.00000E+00 0.00000E+00 0.00000E+00 0.00000E+00 3.56050E-03 1.52130E-03 2.54000E-02
     1238  0.00000E+00 0.00000E+00 0.00000E+00 0.00000E+00 0.00000E+00 0.00000E+00 0.00000E+00 0.00000E+00 0.00000E+00 3.78690E-03 7.80753E-04 2.54000E-02
     1419  0.00000E+00 0.00000E+00 0.00000E+00 0.00000E+00 0.00000E+00 0.00000E+00 0.00000E+00 0.00000E+00 0.00000E+00 5.61630E-04 2.71880E-03 2.54000E-02
     1420  0.00000E+00 0.00000E+00 0.00000E+00 0.00000E+00 0.00000E+00 0.00000E+00 0.00000E+00 0.00000E+00 0.00000E+00 1.11060E-03 2.60470E-03 2.54000E-02
     1421  0.00000E+00 0.00000E+00 0.00000E+00 0.00000E+00 0.00000E+00 0.00000E+00 0.00000E+00 0.00000E+00 0.00000E+00 1.29200E-03 3.08750E-03 2.54000E-02
     1422  0.00000E+00 0.00000E+00 0.00000E+00 0.00000E+00 0.00000E+00 0.00000E+00 0.00000E+00 0.00000E+00 0.00000E+00 6.56103E-04 3.25440E-03 2.54000E-02
     1468  0.00000E+00 0.00000E+00 0.00000E+00 0.00000E+00 0.00000E+00 0.00000E+00 0.00000E+00 0.00000E+00 0.00000E+00 2.09250E-03 1.00320E-03 2.54000E-02
     1559  0.00000E+00 0.00000E+00 0.00000E+00 0.00000E+00 0.00000E+00 0.00000E+00 0.00000E+00 0.00000E+00 0.00000E+00 1.70100E-19 2.77810E-03 2.54000E-02
     1560  0.00000E+00 0.00000E+00 0.00000E+00 0.00000E+00 0.00000E+00 0.00000E+00 0.00000E+00 0.00000E+00 0.00000E+00 2.04100E-19 3.33380E-03 2.54000E-02
     1651  0.00000E+00 0.00000E+00 0.00000E+00 0.00000E+00 0.00000E+00 0.00000E+00 0.00000E+00 0.00000E+00 0.00000E+00 2.77810E-03 0.00000E+00 2.54000E-02
     1652  0.00000E+00 0.00000E+00 0.00000E+00 0.00000E+00 0.00000E+00 0.00000E+00 0.00000E+00 0.00000E+00 0.00000E+00 3.33380E-03 0.00000E+00 2.54000E-02
     1833  0.00000E+00 0.00000E+00 0.00000E+00 0.00000E+00 0.00000E+00 0.00000E+00 0.00000E+00 0.00000E+00 0.00000E+00 1.05640E-03 1.10250E-03 2.54000E-02
     1834  0.00000E+00 0.00000E+00 0.00000E+00 0.00000E+00 0.00000E+00 0.00000E+00 0.00000E+00 0.00000E+00 0.00000E+00 1.00610E-03 1.62810E-03 2.54000E-02
     1835  0.00000E+00 0.00000E+00 0.00000E+00 0.00000E+00 0.00000E+00 0.00000E+00 0.00000E+00 0.00000E+00 0.00000E+00 5.05189E-04 1.66160E-03 2.54000E-02
     1836  0.00000E+00 0.00000E+00 0.00000E+00 0.00000E+00 0.00000E+00 0.00000E+00 0.00000E+00 0.00000E+00 0.00000E+00 5.28912E-04 1.11890E-03 2.54000E-02
     1927  0.00000E+00 0.00000E+00 0.00000E+00 0.00000E+00 0.00000E+00 0.00000E+00 0.00000E+00 0.00000E+00 0.00000E+00 1.09200E-03 5.60397E-04 2.54000E-02
     1928  0.00000E+00 0.00000E+00 0.00000E+00 0.00000E+00 0.00000E+00 0.00000E+00 0.00000E+00 0.00000E+00 0.00000E+00 1.11130E-03 0.00000E+00 2.54000E-02
     1974  0.00000E+00 0.00000E+00 0.00000E+00 0.00000E+00 0.00000E+00 0.00000E+00 0.00000E+00 0.00000E+00 0.00000E+00 2.38200E-19 3.88940E-03 2.54000E-02
     2110  0.00000E+00 0.00000E+00 0.00000E+00 0.00000E+00 0.00000E+00 0.00000E+00 0.00000E+00 0.00000E+00 0.00000E+00 1.64130E-03 2.43700E-03 2.54000E-02
     2111  0.00000E+00 0.00000E+00 0.00000E+00 0.00000E+00 0.00000E+00 0.00000E+00 0.00000E+00 0.00000E+00 0.00000E+00 2.14820E-03 2.21720E-03 2.54000E-02
     2112  0.00000E+00 0.00000E+00 0.00000E+00 0.00000E+00 0.00000E+00 0.00000E+00 0.00000E+00 0.00000E+00 0.00000E+00 1.89510E-03 2.83690E-03 2.54000E-02
     2203  0.00000E+00 0.00000E+00 0.00000E+00 0.00000E+00 0.00000E+00 0.00000E+00 0.00000E+00 0.00000E+00 0.00000E+00 3.69590E-03 2.46950E-03 2.54000E-02
     2204  0.00000E+00 0.00000E+00 0.00000E+00 0.00000E+00 0.00000E+00 0.00000E+00 0.00000E+00 0.00000E+00 0.00000E+00 4.10680E-03 1.70060E-03 2.54000E-02
     2250  0.00000E+00 0.00000E+00 0.00000E+00 0.00000E+00 0.00000E+00 0.00000E+00 0.00000E+00 0.00000E+00 0.00000E+00 4.35950E-03 8.67587E-04 2.54000E-02
     2296  0.00000E+00 0.00000E+00 0.00000E+00 0.00000E+00 0.00000E+00 0.00000E+00 0.00000E+00 0.00000E+00 0.00000E+00 2.17000E-03 3.25540E-03 2.54000E-02
     2387  0.00000E+00 0.00000E+00 0.00000E+00 0.00000E+00 0.00000E+00 0.00000E+00 0.00000E+00 0.00000E+00 0.00000E+00 3.88940E-03 0.00000E+00 2.54000E-02
     2388  0.00000E+00 0.00000E+00 0.00000E+00 0.00000E+00 0.00000E+00 0.00000E+00 0.00000E+00 0.00000E+00 0.00000E+00 4.44500E-03 0.00000E+00 2.54000E-02
     2479  0.00000E+00 0.00000E+00 0.00000E+00 0.00000E+00 0.00000E+00 0.00000E+00 0.00000E+00 0.00000E+00 0.00000E+00 3.14300E-03 3.14320E-03 2.54000E-02
     2480  0.00000E+00 0.00000E+00 0.00000E+00 0.00000E+00 0.00000E+00 0.00000E+00 0.00000E+00 0.00000E+00 0.00000E+00 2.46960E-03 3.69580E-03 2.54000E-02
     2526  0.00000E+00 0.00000E+00 0.00000E+00 0.00000E+00 0.00000E+00 0.00000E+00 0.00000E+00 0.00000E+00 0.00000E+00 2.72200E-19 4.44500E-03 2.54000E-02
     2617  0.00000E+00 0.00000E+00 0.00000E+00 0.00000E+00 0.00000E+00 0.00000E+00 0.00000E+00 0.00000E+00 0.00000E+00 1.02100E-19 1.66690E-03 2.54000E-02
     2618  0.00000E+00 0.00000E+00 0.00000E+00 0.00000E+00 0.00000E+00 0.00000E+00 0.00000E+00 0.00000E+00 0.00000E+00 6.80400E-20 1.11130E-03 2.54000E-02
     2709  0.00000E+00 0.00000E+00 0.00000E+00 0.00000E+00 0.00000E+00 0.00000E+00 0.00000E+00 0.00000E+00 0.00000E+00 4.74151E-04 2.19370E-03 2.54000E-02
     2710  0.00000E+00 0.00000E+00 0.00000E+00 0.00000E+00 0.00000E+00 0.00000E+00 0.00000E+00 0.00000E+00 0.00000E+00 1.36100E-19 2.22250E-03 2.54000E-02
     2801  0.00000E+00 0.00000E+00 0.00000E+00 0.00000E+00 0.00000E+00 0.00000E+00 0.00000E+00 0.00000E+00 0.00000E+00 1.57870E-03 1.06370E-03 2.54000E-02
     2802  0.00000E+00 0.00000E+00 0.00000E+00 0.00000E+00 0.00000E+00 0.00000E+00 0.00000E+00 0.00000E+00 0.00000E+00 1.50140E-03 1.56630E-03 2.54000E-02
     2983  0.00000E+00 0.00000E+00 0.00000E+00 0.00000E+00 0.00000E+00 0.00000E+00 0.00000E+00 0.00000E+00 0.00000E+00 5.55625E-04 0.00000E+00 2.54000E-02
     2984  0.00000E+00 0.00000E+00 0.00000E+00 0.00000E+00 0.00000E+00 0.00000E+00 0.00000E+00 0.00000E+00 0.00000E+00 5.46011E-04 5.64946E-04 2.54000E-02
     2985  0.00000E+00 0.00000E+00 0.00000E+00 0.00000E+00 0.00000E+00 0.00000E+00 0.00000E+00 0.00000E+00 0.00000E+00 3.40200E-20 5.55625E-04 2.54000E-02
     2986  0.00000E+00 0.00000E+00 0.00000E+00 0.00000E+00 0.00000E+00 0.00000E+00 0.00000E+00 0.00000E+00 0.00000E+00 0.00000E+00 0.00000E+00 2.54000E-02
     3122  0.00000E+00 0.00000E+00 0.00000E+00 0.00000E+00 0.00000E+00 0.00000E+00 0.00000E+00 0.00000E+00 0.00000E+00 1.84730E-03 1.91610E-03 2.54000E-02
     3123  0.00000E+00 0.00000E+00 0.00000E+00 0.00000E+00 0.00000E+00 0.00000E+00 0.00000E+00 0.00000E+00 0.00000E+00 1.98770E-03 1.47810E-03 2.54000E-02
     3124  0.00000E+00 0.00000E+00 0.00000E+00 0.00000E+00 0.00000E+00 0.00000E+00 0.00000E+00 0.00000E+00 0.00000E+00 2.37520E-03 1.70950E-03 2.54000E-02
     3215  0.00000E+00 0.00000E+00 0.00000E+00 0.00000E+00 0.00000E+00 0.00000E+00 0.00000E+00 0.00000E+00 0.00000E+00 1.40580E-03 2.05320E-03 2.54000E-02
     3216  0.00000E+00 0.00000E+00 0.00000E+00 0.00000E+00 0.00000E+00 0.00000E+00 0.00000E+00 0.00000E+00 0.00000E+00 9.42723E-04 2.13740E-03 2.54000E-02
     3281  0.00000E+00 0.00000E+00 0.00000E+00 0.00000E+00 0.00000E+00 0.00000E+00 0.00000E+00 0.00000E+00 0.00000E+00 1.27000E-02 0.00000E+00 2.54000E-02
     3282  0.00000E+00 0.00000E+00 0.00000E+00 0.00000E+00 0.00000E+00 0.00000E+00 0.00000E+00 0.00000E+00 0.00000E+00 1.22655E-02 0.00000E+00 2.54000E-02
     3283  0.00000E+00 0.00000E+00 0.00000E+00 0.00000E+00 0.00000E+00 0.00000E+00 0.00000E+00 0.00000E+00 0.00000E+00 1.18311E-02 0.00000E+00 2.54000E-02
     3284  0.00000E+00 0.00000E+00 0.00000E+00 0.00000E+00 0.00000E+00 0.00000E+00 0.00000E+00 0.00000E+00 0.00000E+00 1.13966E-02 0.00000E+00 2.54000E-02
     3285  0.00000E+00 0.00000E+00 0.00000E+00 0.00000E+00 0.00000E+00 0.00000E+00 0.00000E+00 0.00000E+00 0.00000E+00 1.09621E-02 0.00000E+00 2.54000E-02
     3286  0.00000E+00 0.00000E+00 0.00000E+00 0.00000E+00 0.00000E+00 0.00000E+00 0.00000E+00 0.00000E+00 0.00000E+00 1.05276E-02 0.00000E+00 2.54000E-02
     3287  0.00000E+00 0.00000E+00 0.00000E+00 0.00000E+00 0.00000E+00 0.00000E+00 0.00000E+00 0.00000E+00 0.00000E+00 1.00932E-02 0.00000E+00 2.54000E-02
     3288  0.00000E+00 0.00000E+00 0.00000E+00 0.00000E+00 0.00000E+00 0.00000E+00 0.00000E+00 0.00000E+00 0.00000E+00 9.65870E-03 0.00000E+00 2.54000E-02
     3289  0.00000E+00 0.00000E+00 0.00000E+00 0.00000E+00 0.00000E+00 0.00000E+00 0.00000E+00 0.00000E+00 0.00000E+00 9.22420E-03 0.00000E+00 2.54000E-02
     3290  0.00000E+00 0.00000E+00 0.00000E+00 0.00000E+00 0.00000E+00 0.00000E+00 0.00000E+00 0.00000E+00 0.00000E+00 8.78970E-03 0.00000E+00 2.54000E-02
     3291  0.00000E+00 0.00000E+00 0.00000E+00 0.00000E+00 0.00000E+00 0.00000E+00 0.00000E+00 0.00000E+00 0.00000E+00 8.35530E-03 0.00000E+00 2.54000E-02
     3292  0.00000E+00 0.00000E+00 0.00000E+00 0.00000E+00 0.00000E+00 0.00000E+00 0.00000E+00 0.00000E+00 0.00000E+00 7.92080E-03 0.00000E+00 2.54000E-02
     3293  0.00000E+00 0.00000E+00 0.00000E+00 0.00000E+00 0.00000E+00 0.00000E+00 0.00000E+00 0.00000E+00 0.00000E+00 7.48630E-03 0.00000E+00 2.54000E-02
     3294  0.00000E+00 0.00000E+00 0.00000E+00 0.00000E+00 0.00000E+00 0.00000E+00 0.00000E+00 0.00000E+00 0.00000E+00 7.05180E-03 0.00000E+00 2.54000E-02
     3295  0.00000E+00 0.00000E+00 0.00000E+00 0.00000E+00 0.00000E+00 0.00000E+00 0.00000E+00 0.00000E+00 0.00000E+00 6.61740E-03 0.00000E+00 2.54000E-02
     3296  0.00000E+00 0.00000E+00 0.00000E+00 0.00000E+00 0.00000E+00 0.00000E+00 0.00000E+00 0.00000E+00 0.00000E+00 6.18290E-03 0.00000E+00 2.54000E-02
     3297  0.00000E+00 0.00000E+00 0.00000E+00 0.00000E+00 0.00000E+00 0.00000E+00 0.00000E+00 0.00000E+00 0.00000E+00 5.74840E-03 0.00000E+00 2.54000E-02
     3298  0.00000E+00 0.00000E+00 0.00000E+00 0.00000E+00 0.00000E+00 0.00000E+00 0.00000E+00 0.00000E+00 0.00000E+00 5.31390E-03 0.00000E+00 2.54000E-02
     3299  0.00000E+00 0.00000E+00 0.00000E+00 0.00000E+00 0.00000E+00 0.00000E+00 0.00000E+00 0.00000E+00 0.00000E+00 4.87950E-03 0.00000E+00 2.54000E-02
     6390  0.00000E+00 0.00000E+00 0.00000E+00 0.00000E+00 0.00000E+00 0.00000E+00 0.00000E+00 0.00000E+00 0.00000E+00 8.19840E-03 1.61160E-03 2.54000E-02
     6391  0.00000E+00 0.00000E+00 0.00000E+00 0.00000E+00 0.00000E+00 0.00000E+00 0.00000E+00 0.00000E+00 0.00000E+00 8.62490E-03 1.69420E-03 2.54000E-02
     6394  0.00000E+00 0.00000E+00 0.00000E+00 0.00000E+00 0.00000E+00 0.00000E+00 0.00000E+00 0.00000E+00 0.00000E+00 7.73140E-03 3.16790E-03 2.54000E-02
     6395  0.00000E+00 0.00000E+00 0.00000E+00 0.00000E+00 0.00000E+00 0.00000E+00 0.00000E+00 0.00000E+00 0.00000E+00 8.13410E-03 3.33090E-03 2.54000E-02
     6398  0.00000E+00 0.00000E+00 0.00000E+00 0.00000E+00 0.00000E+00 0.00000E+00 0.00000E+00 0.00000E+00 0.00000E+00 6.95790E-03 4.62570E-03 2.54000E-02
     6399  0.00000E+00 0.00000E+00 0.00000E+00 0.00000E+00 0.00000E+00 0.00000E+00 0.00000E+00 0.00000E+00 0.00000E+00 7.32040E-03 4.86530E-03 2.54000E-02
     6402  0.00000E+00 0.00000E+00 0.00000E+00 0.00000E+00 0.00000E+00 0.00000E+00 0.00000E+00 0.00000E+00 0.00000E+00 5.91240E-03 5.90370E-03 2.54000E-02
     6403  0.00000E+00 0.00000E+00 0.00000E+00 0.00000E+00 0.00000E+00 0.00000E+00 0.00000E+00 0.00000E+00 0.00000E+00 6.22010E-03 6.21040E-03 2.54000E-02
     6406  0.00000E+00 0.00000E+00 0.00000E+00 0.00000E+00 0.00000E+00 0.00000E+00 0.00000E+00 0.00000E+00 0.00000E+00 4.63580E-03 6.95120E-03 2.54000E-02
     6407  0.00000E+00 0.00000E+00 0.00000E+00 0.00000E+00 0.00000E+00 0.00000E+00 0.00000E+00 0.00000E+00 0.00000E+00 4.87650E-03 7.31300E-03 2.54000E-02
     6410  0.00000E+00 0.00000E+00 0.00000E+00 0.00000E+00 0.00000E+00 0.00000E+00 0.00000E+00 0.00000E+00 0.00000E+00 3.17570E-03 7.72820E-03 2.54000E-02
     6411  0.00000E+00 0.00000E+00 0.00000E+00 0.00000E+00 0.00000E+00 0.00000E+00 0.00000E+00 0.00000E+00 0.00000E+00 3.33960E-03 8.13060E-03 2.54000E-02
     6414  0.00000E+00 0.00000E+00 0.00000E+00 0.00000E+00 0.00000E+00 0.00000E+00 0.00000E+00 0.00000E+00 0.00000E+00 1.61530E-03 8.19760E-03 2.54000E-02
     6415  0.00000E+00 0.00000E+00 0.00000E+00 0.00000E+00 0.00000E+00 0.00000E+00 0.00000E+00 0.00000E+00 0.00000E+00 1.69840E-03 8.62410E-03 2.54000E-02
     6418  0.00000E+00 0.00000E+00 0.00000E+00 0.00000E+00 0.00000E+00 0.00000E+00 0.00000E+00 0.00000E+00 0.00000E+00 5.11600E-19 8.35530E-03 2.54000E-02
     6419  0.00000E+00 0.00000E+00 0.00000E+00 0.00000E+00 0.00000E+00 0.00000E+00 0.00000E+00 0.00000E+00 0.00000E+00 5.38200E-19 8.78970E-03 2.54000E-02
     6542  0.00000E+00 0.00000E+00 0.00000E+00 0.00000E+00 0.00000E+00 0.00000E+00 0.00000E+00 0.00000E+00 0.00000E+00 9.90450E-03 1.94220E-03 2.54000E-02
     6543  0.00000E+00 0.00000E+00 0.00000E+00 0.00000E+00 0.00000E+00 0.00000E+00 0.00000E+00 0.00000E+00 0.00000E+00 1.03311E-02 2.02490E-03 2.54000E-02
     6546  0.00000E+00 0.00000E+00 0.00000E+00 0.00000E+00 0.00000E+00 0.00000E+00 0.00000E+00 0.00000E+00 0.00000E+00 9.34230E-03 3.82000E-03 2.54000E-02
     6547  0.00000E+00 0.00000E+00 0.00000E+00 0.00000E+00 0.00000E+00 0.00000E+00 0.00000E+00 0.00000E+00 0.00000E+00 9.74510E-03 3.98300E-03 2.54000E-02
     6550  0.00000E+00 0.00000E+00 0.00000E+00 0.00000E+00 0.00000E+00 0.00000E+00 0.00000E+00 0.00000E+00 0.00000E+00 8.40770E-03 5.58410E-03 2.54000E-02
     6551  0.00000E+00 0.00000E+00 0.00000E+00 0.00000E+00 0.00000E+00 0.00000E+00 0.00000E+00 0.00000E+00 0.00000E+00 8.77020E-03 5.82360E-03 2.54000E-02
     6554  0.00000E+00 0.00000E+00 0.00000E+00 0.00000E+00 0.00000E+00 0.00000E+00 0.00000E+00 0.00000E+00 0.00000E+00 7.14330E-03 7.13060E-03 2.54000E-02
     6555  0.00000E+00 0.00000E+00 0.00000E+00 0.00000E+00 0.00000E+00 0.00000E+00 0.00000E+00 0.00000E+00 0.00000E+00 7.45100E-03 7.43730E-03 2.54000E-02
     6558  0.00000E+00 0.00000E+00 0.00000E+00 0.00000E+00 0.00000E+00 0.00000E+00 0.00000E+00 0.00000E+00 0.00000E+00 5.59860E-03 8.39810E-03 2.54000E-02
     6559  0.00000E+00 0.00000E+00 0.00000E+00 0.00000E+00 0.00000E+00 0.00000E+00 0.00000E+00 0.00000E+00 0.00000E+00 5.83920E-03 8.75980E-03 2.54000E-02
     6562  0.00000E+00 0.00000E+00 0.00000E+00 0.00000E+00 0.00000E+00 0.00000E+00 0.00000E+00 0.00000E+00 0.00000E+00 3.83140E-03 9.33770E-03 2.54000E-02
     6563  0.00000E+00 0.00000E+00 0.00000E+00 0.00000E+00 0.00000E+00 0.00000E+00 0.00000E+00 0.00000E+00 0.00000E+00 3.99530E-03 9.74010E-03 2.54000E-02
     6566  0.00000E+00 0.00000E+00 0.00000E+00 0.00000E+00 0.00000E+00 0.00000E+00 0.00000E+00 0.00000E+00 0.00000E+00 1.94780E-03 9.90340E-03 2.54000E-02
     6567  0.00000E+00 0.00000E+00 0.00000E+00 0.00000E+00 0.00000E+00 0.00000E+00 0.00000E+00 0.00000E+00 0.00000E+00 2.03090E-03 1.03299E-02 2.54000E-02
     6570  0.00000E+00 0.00000E+00 0.00000E+00 0.00000E+00 0.00000E+00 0.00000E+00 0.00000E+00 0.00000E+00 0.00000E+00 6.18000E-19 1.00932E-02 2.54000E-02
     6571  0.00000E+00 0.00000E+00 0.00000E+00 0.00000E+00 0.00000E+00 0.00000E+00 0.00000E+00 0.00000E+00 0.00000E+00 6.44600E-19 1.05276E-02 2.54000E-02
     6598  0.00000E+00 0.00000E+00 0.00000E+00 0.00000E+00 0.00000E+00 0.00000E+00 0.00000E+00 0.00000E+00 0.00000E+00 1.11841E-02 2.19020E-03 2.54000E-02
     6599  0.00000E+00 0.00000E+00 0.00000E+00 0.00000E+00 0.00000E+00 0.00000E+00 0.00000E+00 0.00000E+00 0.00000E+00 1.16107E-02 2.27290E-03 2.54000E-02
     6600  0.00000E+00 0.00000E+00 0.00000E+00 0.00000E+00 0.00000E+00 0.00000E+00 0.00000E+00 0.00000E+00 0.00000E+00 1.05505E-02 4.30910E-03 2.54000E-02
     6601  0.00000E+00 0.00000E+00 0.00000E+00 0.00000E+00 0.00000E+00 0.00000E+00 0.00000E+00 0.00000E+00 0.00000E+00 1.09532E-02 4.47220E-03 2.54000E-02
     6602  0.00000E+00 0.00000E+00 0.00000E+00 0.00000E+00 0.00000E+00 0.00000E+00 0.00000E+00 0.00000E+00 0.00000E+00 9.49510E-03 6.30280E-03 2.54000E-02
     6603  0.00000E+00 0.00000E+00 0.00000E+00 0.00000E+00 0.00000E+00 0.00000E+00 0.00000E+00 0.00000E+00 0.00000E+00 9.85750E-03 6.54240E-03 2.54000E-02
     6604  0.00000E+00 0.00000E+00 0.00000E+00 0.00000E+00 0.00000E+00 0.00000E+00 0.00000E+00 0.00000E+00 0.00000E+00 8.06640E-03 8.05080E-03 2.54000E-02
     6605  0.00000E+00 0.00000E+00 0.00000E+00 0.00000E+00 0.00000E+00 0.00000E+00 0.00000E+00 0.00000E+00 0.00000E+00 8.37410E-03 8.35750E-03 2.54000E-02
     6606  0.00000E+00 0.00000E+00 0.00000E+00 0.00000E+00 0.00000E+00 0.00000E+00 0.00000E+00 0.00000E+00 0.00000E+00 6.32060E-03 9.48320E-03 2.54000E-02
     6607  0.00000E+00 0.00000E+00 0.00000E+00 0.00000E+00 0.00000E+00 0.00000E+00 0.00000E+00 0.00000E+00 0.00000E+00 6.56130E-03 9.84490E-03 2.54000E-02
     6608  0.00000E+00 0.00000E+00 0.00000E+00 0.00000E+00 0.00000E+00 0.00000E+00 0.00000E+00 0.00000E+00 0.00000E+00 4.32310E-03 1.05448E-02 2.54000E-02
     6609  0.00000E+00 0.00000E+00 0.00000E+00 0.00000E+00 0.00000E+00 0.00000E+00 0.00000E+00 0.00000E+00 0.00000E+00 4.48700E-03 1.09472E-02 2.54000E-02
     6610  0.00000E+00 0.00000E+00 0.00000E+00 0.00000E+00 0.00000E+00 0.00000E+00 0.00000E+00 0.00000E+00 0.00000E+00 2.19710E-03 1.11828E-02 2.54000E-02
     6611  0.00000E+00 0.00000E+00 0.00000E+00 0.00000E+00 0.00000E+00 0.00000E+00 0.00000E+00 0.00000E+00 0.00000E+00 2.28020E-03 1.16092E-02 2.54000E-02
     6612  0.00000E+00 0.00000E+00 0.00000E+00 0.00000E+00 0.00000E+00 0.00000E+00 0.00000E+00 0.00000E+00 0.00000E+00 6.97800E-19 1.13966E-02 2.54000E-02
     6613  0.00000E+00 0.00000E+00 0.00000E+00 0.00000E+00 0.00000E+00 0.00000E+00 0.00000E+00 0.00000E+00 0.00000E+00 7.24400E-19 1.18311E-02 2.54000E-02
     6854  0.00000E+00 0.00000E+00 0.00000E+00 0.00000E+00 0.00000E+00 0.00000E+00 0.00000E+00 0.00000E+00 0.00000E+00 1.07576E-02 2.10760E-03 2.54000E-02
     6856  0.00000E+00 0.00000E+00 0.00000E+00 0.00000E+00 0.00000E+00 0.00000E+00 0.00000E+00 0.00000E+00 0.00000E+00 1.01478E-02 4.14610E-03 2.54000E-02
     6858  0.00000E+00 0.00000E+00 0.00000E+00 0.00000E+00 0.00000E+00 0.00000E+00 0.00000E+00 0.00000E+00 0.00000E+00 9.13260E-03 6.06320E-03 2.54000E-02
     6860  0.00000E+00 0.00000E+00 0.00000E+00 0.00000E+00 0.00000E+00 0.00000E+00 0.00000E+00 0.00000E+00 0.00000E+00 7.75870E-03 7.74410E-03 2.54000E-02
     6862  0.00000E+00 0.00000E+00 0.00000E+00 0.00000E+00 0.00000E+00 0.00000E+00 0.00000E+00 0.00000E+00 0.00000E+00 6.07990E-03 9.12150E-03 2.54000E-02
     6864  0.00000E+00 0.00000E+00 0.00000E+00 0.00000E+00 0.00000E+00 0.00000E+00 0.00000E+00 0.00000E+00 0.00000E+00 4.15920E-03 1.01424E-02 2.54000E-02
     6866  0.00000E+00 0.00000E+00 0.00000E+00 0.00000E+00 0.00000E+00 0.00000E+00 0.00000E+00 0.00000E+00 0.00000E+00 2.11400E-03 1.07563E-02 2.54000E-02
     6868  0.00000E+00 0.00000E+00 0.00000E+00 0.00000E+00 0.00000E+00 0.00000E+00 0.00000E+00 0.00000E+00 0.00000E+00 6.71200E-19 1.09621E-02 2.54000E-02
     8222  0.00000E+00 0.00000E+00 0.00000E+00 0.00000E+00 0.00000E+00 0.00000E+00 0.00000E+00 0.00000E+00 0.00000E+00 5.63910E-03 1.11560E-03 2.54000E-02
     8223  0.00000E+00 0.00000E+00 0.00000E+00 0.00000E+00 0.00000E+00 0.00000E+00 0.00000E+00 0.00000E+00 0.00000E+00 6.06570E-03 1.19820E-03 2.54000E-02
     8226  0.00000E+00 0.00000E+00 0.00000E+00 0.00000E+00 0.00000E+00 0.00000E+00 0.00000E+00 0.00000E+00 0.00000E+00 5.31500E-03 2.18970E-03 2.54000E-02
     8227  0.00000E+00 0.00000E+00 0.00000E+00 0.00000E+00 0.00000E+00 0.00000E+00 0.00000E+00 0.00000E+00 0.00000E+00 5.71780E-03 2.35270E-03 2.54000E-02
     8230  0.00000E+00 0.00000E+00 0.00000E+00 0.00000E+00 0.00000E+00 0.00000E+00 0.00000E+00 0.00000E+00 0.00000E+00 4.78320E-03 3.18830E-03 2.54000E-02
     8231  0.00000E+00 0.00000E+00 0.00000E+00 0.00000E+00 0.00000E+00 0.00000E+00 0.00000E+00 0.00000E+00 0.00000E+00 5.14570E-03 3.42780E-03 2.54000E-02
     8234  0.00000E+00 0.00000E+00 0.00000E+00 0.00000E+00 0.00000E+00 0.00000E+00 0.00000E+00 0.00000E+00 0.00000E+00 4.06620E-03 4.06330E-03 2.54000E-02
     8235  0.00000E+00 0.00000E+00 0.00000E+00 0.00000E+00 0.00000E+00 0.00000E+00 0.00000E+00 0.00000E+00 0.00000E+00 4.37390E-03 4.37010E-03 2.54000E-02
     8238  0.00000E+00 0.00000E+00 0.00000E+00 0.00000E+00 0.00000E+00 0.00000E+00 0.00000E+00 0.00000E+00 0.00000E+00 3.19170E-03 4.78100E-03 2.54000E-02
     8239  0.00000E+00 0.00000E+00 0.00000E+00 0.00000E+00 0.00000E+00 0.00000E+00 0.00000E+00 0.00000E+00 0.00000E+00 3.43230E-03 5.14270E-03 2.54000E-02
     8242  0.00000E+00 0.00000E+00 0.00000E+00 0.00000E+00 0.00000E+00 0.00000E+00 0.00000E+00 0.00000E+00 0.00000E+00 2.19230E-03 5.31390E-03 2.54000E-02
     8243  0.00000E+00 0.00000E+00 0.00000E+00 0.00000E+00 0.00000E+00 0.00000E+00 0.00000E+00 0.00000E+00 0.00000E+00 2.35620E-03 5.71630E-03 2.54000E-02
     8246  0.00000E+00 0.00000E+00 0.00000E+00 0.00000E+00 0.00000E+00 0.00000E+00 0.00000E+00 0.00000E+00 0.00000E+00 1.11660E-03 5.63890E-03 2.54000E-02
     8247  0.00000E+00 0.00000E+00 0.00000E+00 0.00000E+00 0.00000E+00 0.00000E+00 0.00000E+00 0.00000E+00 0.00000E+00 1.19980E-03 6.06540E-03 2.54000E-02
     8250  0.00000E+00 0.00000E+00 0.00000E+00 0.00000E+00 0.00000E+00 0.00000E+00 0.00000E+00 0.00000E+00 0.00000E+00 3.52000E-19 5.74840E-03 2.54000E-02
     8251  0.00000E+00 0.00000E+00 0.00000E+00 0.00000E+00 0.00000E+00 0.00000E+00 0.00000E+00 0.00000E+00 0.00000E+00 3.78600E-19 6.18290E-03 2.54000E-02
     9318  0.00000E+00 0.00000E+00 0.00000E+00 0.00000E+00 0.00000E+00 0.00000E+00 0.00000E+00 0.00000E+00 0.00000E+00 1.20372E-02 2.35560E-03 2.54000E-02
     9320  0.00000E+00 0.00000E+00 0.00000E+00 0.00000E+00 0.00000E+00 0.00000E+00 0.00000E+00 0.00000E+00 0.00000E+00 1.13560E-02 4.63520E-03 2.54000E-02
     9322  0.00000E+00 0.00000E+00 0.00000E+00 0.00000E+00 0.00000E+00 0.00000E+00 0.00000E+00 0.00000E+00 0.00000E+00 1.02200E-02 6.78200E-03 2.54000E-02
     9324  0.00000E+00 0.00000E+00 0.00000E+00 0.00000E+00 0.00000E+00 0.00000E+00 0.00000E+00 0.00000E+00 0.00000E+00 8.68180E-03 8.66420E-03 2.54000E-02
     9326  0.00000E+00 0.00000E+00 0.00000E+00 0.00000E+00 0.00000E+00 0.00000E+00 0.00000E+00 0.00000E+00 0.00000E+00 6.80200E-03 1.02067E-02 2.54000E-02
     9328  0.00000E+00 0.00000E+00 0.00000E+00 0.00000E+00 0.00000E+00 0.00000E+00 0.00000E+00 0.00000E+00 0.00000E+00 4.65090E-03 1.13495E-02 2.54000E-02
     9330  0.00000E+00 0.00000E+00 0.00000E+00 0.00000E+00 0.00000E+00 0.00000E+00 0.00000E+00 0.00000E+00 0.00000E+00 2.36330E-03 1.20357E-02 2.54000E-02
     9332  0.00000E+00 0.00000E+00 0.00000E+00 0.00000E+00 0.00000E+00 0.00000E+00 0.00000E+00 0.00000E+00 0.00000E+00 7.51000E-19 1.22655E-02 2.54000E-02
     9822  0.00000E+00 0.00000E+00 0.00000E+00 0.00000E+00 0.00000E+00 0.00000E+00 0.00000E+00 0.00000E+00 0.00000E+00 5.21260E-03 1.03290E-03 2.54000E-02
     9824  0.00000E+00 0.00000E+00 0.00000E+00 0.00000E+00 0.00000E+00 0.00000E+00 0.00000E+00 0.00000E+00 0.00000E+00 4.91230E-03 2.02660E-03 2.54000E-02
     9826  0.00000E+00 0.00000E+00 0.00000E+00 0.00000E+00 0.00000E+00 0.00000E+00 0.00000E+00 0.00000E+00 0.00000E+00 4.42080E-03 2.94870E-03 2.54000E-02
     9828  0.00000E+00 0.00000E+00 0.00000E+00 0.00000E+00 0.00000E+00 0.00000E+00 0.00000E+00 0.00000E+00 0.00000E+00 3.75840E-03 3.75660E-03 2.54000E-02
     9830  0.00000E+00 0.00000E+00 0.00000E+00 0.00000E+00 0.00000E+00 0.00000E+00 0.00000E+00 0.00000E+00 0.00000E+00 2.95100E-03 4.41930E-03 2.54000E-02
     9832  0.00000E+00 0.00000E+00 0.00000E+00 0.00000E+00 0.00000E+00 0.00000E+00 0.00000E+00 0.00000E+00 0.00000E+00 2.02840E-03 4.91160E-03 2.54000E-02
     9834  0.00000E+00 0.00000E+00 0.00000E+00 0.00000E+00 0.00000E+00 0.00000E+00 0.00000E+00 0.00000E+00 0.00000E+00 1.03350E-03 5.21250E-03 2.54000E-02
     9836  0.00000E+00 0.00000E+00 0.00000E+00 0.00000E+00 0.00000E+00 0.00000E+00 0.00000E+00 0.00000E+00 0.00000E+00 3.25400E-19 5.31390E-03 2.54000E-02
    10558  0.00000E+00 0.00000E+00 0.00000E+00 0.00000E+00 0.00000E+00 0.00000E+00 0.00000E+00 0.00000E+00 0.00000E+00 6.49220E-03 1.28090E-03 2.54000E-02
    10559  0.00000E+00 0.00000E+00 0.00000E+00 0.00000E+00 0.00000E+00 0.00000E+00 0.00000E+00 0.00000E+00 0.00000E+00 6.91870E-03 1.36360E-03 2.54000E-02
    10562  0.00000E+00 0.00000E+00 0.00000E+00 0.00000E+00 0.00000E+00 0.00000E+00 0.00000E+00 0.00000E+00 0.00000E+00 6.12050E-03 2.51570E-03 2.54000E-02
    10563  0.00000E+00 0.00000E+00 0.00000E+00 0.00000E+00 0.00000E+00 0.00000E+00 0.00000E+00 0.00000E+00 0.00000E+00 6.52320E-03 2.67880E-03 2.54000E-02
    10566  0.00000E+00 0.00000E+00 0.00000E+00 0.00000E+00 0.00000E+00 0.00000E+00 0.00000E+00 0.00000E+00 0.00000E+00 5.50810E-03 3.66740E-03 2.54000E-02
    10567  0.00000E+00 0.00000E+00 0.00000E+00 0.00000E+00 0.00000E+00 0.00000E+00 0.00000E+00 0.00000E+00 0.00000E+00 5.87060E-03 3.90700E-03 2.54000E-02
    10570  0.00000E+00 0.00000E+00 0.00000E+00 0.00000E+00 0.00000E+00 0.00000E+00 0.00000E+00 0.00000E+00 0.00000E+00 4.68160E-03 4.67680E-03 2.54000E-02
    10571  0.00000E+00 0.00000E+00 0.00000E+00 0.00000E+00 0.00000E+00 0.00000E+00 0.00000E+00 0.00000E+00 0.00000E+00 4.98930E-03 4.98350E-03 2.54000E-02
    10574  0.00000E+00 0.00000E+00 0.00000E+00 0.00000E+00 0.00000E+00 0.00000E+00 0.00000E+00 0.00000E+00 0.00000E+00 3.67300E-03 5.50440E-03 2.54000E-02
    10575  0.00000E+00 0.00000E+00 0.00000E+00 0.00000E+00 0.00000E+00 0.00000E+00 0.00000E+00 0.00000E+00 0.00000E+00 3.91370E-03 5.86610E-03 2.54000E-02
    10578  0.00000E+00 0.00000E+00 0.00000E+00 0.00000E+00 0.00000E+00 0.00000E+00 0.00000E+00 0.00000E+00 0.00000E+00 2.52010E-03 6.11870E-03 2.54000E-02
    10579  0.00000E+00 0.00000E+00 0.00000E+00 0.00000E+00 0.00000E+00 0.00000E+00 0.00000E+00 0.00000E+00 0.00000E+00 2.68400E-03 6.52110E-03 2.54000E-02
    10582  0.00000E+00 0.00000E+00 0.00000E+00 0.00000E+00 0.00000E+00 0.00000E+00 0.00000E+00 0.00000E+00 0.00000E+00 1.28290E-03 6.49180E-03 2.54000E-02
    10583  0.00000E+00 0.00000E+00 0.00000E+00 0.00000E+00 0.00000E+00 0.00000E+00 0.00000E+00 0.00000E+00 0.00000E+00 1.36600E-03 6.91830E-03 2.54000E-02
    10586  0.00000E+00 0.00000E+00 0.00000E+00 0.00000E+00 0.00000E+00 0.00000E+00 0.00000E+00 0.00000E+00 0.00000E+00 4.05200E-19 6.61740E-03 2.54000E-02
    10587  0.00000E+00 0.00000E+00 0.00000E+00 0.00000E+00 0.00000E+00 0.00000E+00 0.00000E+00 0.00000E+00 0.00000E+00 4.31800E-19 7.05180E-03 2.54000E-02
    10710  0.00000E+00 0.00000E+00 0.00000E+00 0.00000E+00 0.00000E+00 0.00000E+00 0.00000E+00 0.00000E+00 0.00000E+00 9.47800E-03 1.85960E-03 2.54000E-02
    10711  0.00000E+00 0.00000E+00 0.00000E+00 0.00000E+00 0.00000E+00 0.00000E+00 0.00000E+00 0.00000E+00 0.00000E+00 8.93960E-03 3.65700E-03 2.54000E-02
    10712  0.00000E+00 0.00000E+00 0.00000E+00 0.00000E+00 0.00000E+00 0.00000E+00 0.00000E+00 0.00000E+00 0.00000E+00 8.04530E-03 5.34450E-03 2.54000E-02
    10713  0.00000E+00 0.00000E+00 0.00000E+00 0.00000E+00 0.00000E+00 0.00000E+00 0.00000E+00 0.00000E+00 0.00000E+00 6.83560E-03 6.82390E-03 2.54000E-02
    10714  0.00000E+00 0.00000E+00 0.00000E+00 0.00000E+00 0.00000E+00 0.00000E+00 0.00000E+00 0.00000E+00 0.00000E+00 5.35790E-03 8.03640E-03 2.54000E-02
    10715  0.00000E+00 0.00000E+00 0.00000E+00 0.00000E+00 0.00000E+00 0.00000E+00 0.00000E+00 0.00000E+00 0.00000E+00 3.66750E-03 8.93530E-03 2.54000E-02
    10716  0.00000E+00 0.00000E+00 0.00000E+00 0.00000E+00 0.00000E+00 0.00000E+00 0.00000E+00 0.00000E+00 0.00000E+00 1.86460E-03 9.47700E-03 2.54000E-02
    10717  0.00000E+00 0.00000E+00 0.00000E+00 0.00000E+00 0.00000E+00 0.00000E+00 0.00000E+00 0.00000E+00 0.00000E+00 5.91400E-19 9.65870E-03 2.54000E-02
    10990  0.00000E+00 0.00000E+00 0.00000E+00 0.00000E+00 0.00000E+00 0.00000E+00 0.00000E+00 0.00000E+00 0.00000E+00 4.78600E-03 9.50250E-04 2.54000E-02
    10992  0.00000E+00 0.00000E+00 0.00000E+00 0.00000E+00 0.00000E+00 0.00000E+00 0.00000E+00 0.00000E+00 0.00000E+00 4.50960E-03 1.86360E-03 2.54000E-02
    10994  0.00000E+00 0.00000E+00 0.00000E+00 0.00000E+00 0.00000E+00 0.00000E+00 0.00000E+00 0.00000E+00 0.00000E+00 4.05830E-03 2.70910E-03 2.54000E-02
    10996  0.00000E+00 0.00000E+00 0.00000E+00 0.00000E+00 0.00000E+00 0.00000E+00 0.00000E+00 0.00000E+00 0.00000E+00 3.45070E-03 3.44990E-03 2.54000E-02
    10998  0.00000E+00 0.00000E+00 0.00000E+00 0.00000E+00 0.00000E+00 0.00000E+00 0.00000E+00 0.00000E+00 0.00000E+00 2.71030E-03 4.05750E-03 2.54000E-02
    11000  0.00000E+00 0.00000E+00 0.00000E+00 0.00000E+00 0.00000E+00 0.00000E+00 0.00000E+00 0.00000E+00 0.00000E+00 1.86450E-03 4.50920E-03 2.54000E-02
    11002  0.00000E+00 0.00000E+00 0.00000E+00 0.00000E+00 0.00000E+00 0.00000E+00 0.00000E+00 0.00000E+00 0.00000E+00 9.50435E-04 4.78600E-03 2.54000E-02
    11004  0.00000E+00 0.00000E+00 0.00000E+00 0.00000E+00 0.00000E+00 0.00000E+00 0.00000E+00 0.00000E+00 0.00000E+00 2.98800E-19 4.87950E-03 2.54000E-02
    11078  0.00000E+00 0.00000E+00 0.00000E+00 0.00000E+00 0.00000E+00 0.00000E+00 0.00000E+00 0.00000E+00 0.00000E+00 7.34530E-03 1.44620E-03 2.54000E-02
    11079  0.00000E+00 0.00000E+00 0.00000E+00 0.00000E+00 0.00000E+00 0.00000E+00 0.00000E+00 0.00000E+00 0.00000E+00 6.92600E-03 2.84180E-03 2.54000E-02
    11080  0.00000E+00 0.00000E+00 0.00000E+00 0.00000E+00 0.00000E+00 0.00000E+00 0.00000E+00 0.00000E+00 0.00000E+00 6.23300E-03 4.14660E-03 2.54000E-02
    11081  0.00000E+00 0.00000E+00 0.00000E+00 0.00000E+00 0.00000E+00 0.00000E+00 0.00000E+00 0.00000E+00 0.00000E+00 5.29700E-03 5.29030E-03 2.54000E-02
    11082  0.00000E+00 0.00000E+00 0.00000E+00 0.00000E+00 0.00000E+00 0.00000E+00 0.00000E+00 0.00000E+00 0.00000E+00 4.15440E-03 6.22780E-03 2.54000E-02
    11083  0.00000E+00 0.00000E+00 0.00000E+00 0.00000E+00 0.00000E+00 0.00000E+00 0.00000E+00 0.00000E+00 0.00000E+00 2.84790E-03 6.92340E-03 2.54000E-02
    11084  0.00000E+00 0.00000E+00 0.00000E+00 0.00000E+00 0.00000E+00 0.00000E+00 0.00000E+00 0.00000E+00 0.00000E+00 1.44910E-03 7.34470E-03 2.54000E-02
    11085  0.00000E+00 0.00000E+00 0.00000E+00 0.00000E+00 0.00000E+00 0.00000E+00 0.00000E+00 0.00000E+00 0.00000E+00 4.58400E-19 7.48630E-03 2.54000E-02
    11222  0.00000E+00 0.00000E+00 0.00000E+00 0.00000E+00 0.00000E+00 0.00000E+00 0.00000E+00 0.00000E+00 0.00000E+00 7.77180E-03 1.52890E-03 2.54000E-02
    11223  0.00000E+00 0.00000E+00 0.00000E+00 0.00000E+00 0.00000E+00 0.00000E+00 0.00000E+00 0.00000E+00 0.00000E+00 7.32870E-03 3.00480E-03 2.54000E-02
    11224  0.00000E+00 0.00000E+00 0.00000E+00 0.00000E+00 0.00000E+00 0.00000E+00 0.00000E+00 0.00000E+00 0.00000E+00 6.59550E-03 4.38620E-03 2.54000E-02
    11225  0.00000E+00 0.00000E+00 0.00000E+00 0.00000E+00 0.00000E+00 0.00000E+00 0.00000E+00 0.00000E+00 0.00000E+00 5.60470E-03 5.59700E-03 2.54000E-02
    11226  0.00000E+00 0.00000E+00 0.00000E+00 0.00000E+00 0.00000E+00 0.00000E+00 0.00000E+00 0.00000E+00 0.00000E+00 4.39510E-03 6.58950E-03 2.54000E-02
    11227  0.00000E+00 0.00000E+00 0.00000E+00 0.00000E+00 0.00000E+00 0.00000E+00 0.00000E+00 0.00000E+00 0.00000E+00 3.01180E-03 7.32580E-03 2.54000E-02
    11228  0.00000E+00 0.00000E+00 0.00000E+00 0.00000E+00 0.00000E+00 0.00000E+00 0.00000E+00 0.00000E+00 0.00000E+00 1.53220E-03 7.77120E-03 2.54000E-02
    11229  0.00000E+00 0.00000E+00 0.00000E+00 0.00000E+00 0.00000E+00 0.00000E+00 0.00000E+00 0.00000E+00 0.00000E+00 4.85000E-19 7.92080E-03 2.54000E-02
    11238  0.00000E+00 0.00000E+00 0.00000E+00 0.00000E+00 0.00000E+00 0.00000E+00 0.00000E+00 0.00000E+00 0.00000E+00 1.24638E-02 2.43820E-03 2.54000E-02
    11239  0.00000E+00 0.00000E+00 0.00000E+00 0.00000E+00 0.00000E+00 0.00000E+00 0.00000E+00 0.00000E+00 0.00000E+00 1.17587E-02 4.79820E-03 2.54000E-02
    11240  0.00000E+00 0.00000E+00 0.00000E+00 0.00000E+00 0.00000E+00 0.00000E+00 0.00000E+00 0.00000E+00 0.00000E+00 1.05824E-02 7.02150E-03 2.54000E-02
    11241  0.00000E+00 0.00000E+00 0.00000E+00 0.00000E+00 0.00000E+00 0.00000E+00 0.00000E+00 0.00000E+00 0.00000E+00 8.98960E-03 8.97100E-03 2.54000E-02
    11242  0.00000E+00 0.00000E+00 0.00000E+00 0.00000E+00 0.00000E+00 0.00000E+00 0.00000E+00 0.00000E+00 0.00000E+00 7.04270E-03 1.05684E-02 2.54000E-02
    11243  0.00000E+00 0.00000E+00 0.00000E+00 0.00000E+00 0.00000E+00 0.00000E+00 0.00000E+00 0.00000E+00 0.00000E+00 4.81480E-03 1.17519E-02 2.54000E-02
    11244  0.00000E+00 0.00000E+00 0.00000E+00 0.00000E+00 0.00000E+00 0.00000E+00 0.00000E+00 0.00000E+00 0.00000E+00 2.44640E-03 1.24621E-02 2.54000E-02
    11245  0.00000E+00 0.00000E+00 0.00000E+00 0.00000E+00 0.00000E+00 0.00000E+00 0.00000E+00 0.00000E+00 0.00000E+00 7.77700E-19 1.27000E-02 2.54000E-02
    11246  0.00000E+00 0.00000E+00 0.00000E+00 0.00000E+00 0.00000E+00 0.00000E+00 0.00000E+00 0.00000E+00 0.00000E+00 9.05140E-03 1.77690E-03 2.54000E-02
    11247  0.00000E+00 0.00000E+00 0.00000E+00 0.00000E+00 0.00000E+00 0.00000E+00 0.00000E+00 0.00000E+00 0.00000E+00 8.53690E-03 3.49390E-03 2.54000E-02
    11248  0.00000E+00 0.00000E+00 0.00000E+00 0.00000E+00 0.00000E+00 0.00000E+00 0.00000E+00 0.00000E+00 0.00000E+00 7.68280E-03 5.10490E-03 2.54000E-02
    11249  0.00000E+00 0.00000E+00 0.00000E+00 0.00000E+00 0.00000E+00 0.00000E+00 0.00000E+00 0.00000E+00 0.00000E+00 6.52780E-03 6.51720E-03 2.54000E-02
    11250  0.00000E+00 0.00000E+00 0.00000E+00 0.00000E+00 0.00000E+00 0.00000E+00 0.00000E+00 0.00000E+00 0.00000E+00 5.11720E-03 7.67470E-03 2.54000E-02
    11251  0.00000E+00 0.00000E+00 0.00000E+00 0.00000E+00 0.00000E+00 0.00000E+00 0.00000E+00 0.00000E+00 0.00000E+00 3.50360E-03 8.53290E-03 2.54000E-02
    11252  0.00000E+00 0.00000E+00 0.00000E+00 0.00000E+00 0.00000E+00 0.00000E+00 0.00000E+00 0.00000E+00 0.00000E+00 1.78150E-03 9.05050E-03 2.54000E-02
    11253  0.00000E+00 0.00000E+00 0.00000E+00 0.00000E+00 0.00000E+00 0.00000E+00 0.00000E+00 0.00000E+00 0.00000E+00 5.64800E-19 9.22420E-03 2.54000E-02



 n o d a l   p r i n t   o u t   f o r   t i m e  s t e p       6                              ( at time 2.5000000E+00 )

 nodal point  x-disp     y-disp      z-disp      x-vel       y-vel       z-vel      x-accl      y-accl      z-accl      x-coor      y-coor      z-coor
       45  3.04232E-06 0.00000E+00 0.00000E+00 0.00000E+00 0.00000E+00 0.00000E+00 0.00000E+00 0.00000E+00 0.00000E+00 3.17804E-03 0.00000E+00-1.78000E-18
       46  1.86807E-06 0.00000E+00 0.00000E+00 0.00000E+00 0.00000E+00 0.00000E+00 0.00000E+00 0.00000E+00 0.00000E+00 2.77997E-03 0.00000E+00 0.00000E+00
       47  1.19256E-06 0.00000E+00 0.00000E+00 0.00000E+00 0.00000E+00 0.00000E+00 0.00000E+00 0.00000E+00 0.00000E+00 2.38249E-03 0.00000E+00 0.00000E+00
       48  7.84589E-07 0.00000E+00 0.00000E+00 0.00000E+00 0.00000E+00 0.00000E+00 0.00000E+00 0.00000E+00 0.00000E+00 1.98518E-03 0.00000E+00 0.00000E+00
       49  5.20621E-07 0.00000E+00 0.00000E+00 0.00000E+00 0.00000E+00 0.00000E+00 0.00000E+00 0.00000E+00 0.00000E+00 1.58802E-03 0.00000E+00 0.00000E+00
       50  3.39573E-07 0.00000E+00 0.00000E+00 0.00000E+00 0.00000E+00 0.00000E+00 0.00000E+00 0.00000E+00 0.00000E+00 1.19094E-03 0.00000E+00 0.00000E+00
       51  2.05325E-07 0.00000E+00 0.00000E+00 0.00000E+00 0.00000E+00 0.00000E+00 0.00000E+00 0.00000E+00 0.00000E+00 7.93955E-04 0.00000E+00 0.00000E+00
       52  9.71206E-08 0.00000E+00 0.00000E+00 0.00000E+00 0.00000E+00 0.00000E+00 0.00000E+00 0.00000E+00 0.00000E+00 3.96972E-04 0.00000E+00 0.00000E+00
       53  0.00000E+00 0.00000E+00 0.00000E+00 0.00000E+00 0.00000E+00 0.00000E+00 0.00000E+00 0.00000E+00 0.00000E+00 0.00000E+00 0.00000E+00 0.00000E+00
       54  0.00000E+00 8.77132E-08 0.00000E+00 0.00000E+00 0.00000E+00 0.00000E+00 0.00000E+00 0.00000E+00 0.00000E+00 2.43000E-20 3.96963E-04 0.00000E+00
       55  0.00000E+00 1.87248E-07 0.00000E+00 0.00000E+00 0.00000E+00 0.00000E+00 0.00000E+00 0.00000E+00 0.00000E+00 4.86000E-20 7.93937E-04 0.00000E+00
       56  0.00000E+00 3.13394E-07 0.00000E+00 0.00000E+00 0.00000E+00 0.00000E+00 0.00000E+00 0.00000E+00 0.00000E+00 7.29000E-20 1.19091E-03 0.00000E+00
       57  0.00000E+00 4.88670E-07 0.00000E+00 0.00000E+00 0.00000E+00 0.00000E+00 0.00000E+00 0.00000E+00 0.00000E+00 9.72100E-20 1.58799E-03 0.00000E+00
       58  0.00000E+00 7.56717E-07 0.00000E+00 0.00000E+00 0.00000E+00 0.00000E+00 0.00000E+00 0.00000E+00 0.00000E+00 1.21500E-19 1.98516E-03 0.00000E+00
       59  0.00000E+00 1.18952E-06 0.00000E+00 0.00000E+00 0.00000E+00 0.00000E+00 0.00000E+00 0.00000E+00 0.00000E+00 1.45800E-19 2.38249E-03 0.00000E+00
       60  0.00000E+00 1.91821E-06 0.00000E+00 0.00000E+00 0.00000E+00 0.00000E+00 0.00000E+00 0.00000E+00 0.00000E+00 1.70100E-19 2.78002E-03 0.00000E+00
       61  0.00000E+00 3.14651E-06 0.00000E+00 0.00000E+00 0.00000E+00 0.00000E+00 0.00000E+00 0.00000E+00 0.00000E+00 1.94400E-19 3.17815E-03 0.00000E+00
       62  5.64436E-07 3.07240E-06 0.00000E+00 0.00000E+00 0.00000E+00 0.00000E+00 0.00000E+00 0.00000E+00 0.00000E+00 6.19976E-04 3.11707E-03 0.00000E+00
       63  1.14169E-06 2.98312E-06 0.00000E+00 0.00000E+00 0.00000E+00 0.00000E+00 0.00000E+00 0.00000E+00 0.00000E+00 1.21614E-03 2.93628E-03 0.00000E+00
       64  1.68424E-06 2.77618E-06 0.00000E+00 0.00000E+00 0.00000E+00 0.00000E+00 0.00000E+00 0.00000E+00 0.00000E+00 1.76558E-03 2.64268E-03 0.00000E+00
       65  2.15319E-06 2.45045E-06 0.00000E+00 0.00000E+00 0.00000E+00 0.00000E+00 0.00000E+00 0.00000E+00 0.00000E+00 2.24725E-03 2.24755E-03 0.00000E+00
       66  2.50930E-06 1.97065E-06 0.00000E+00 0.00000E+00 0.00000E+00 0.00000E+00 0.00000E+00 0.00000E+00 0.00000E+00 2.64241E-03 1.76587E-03 0.00000E+00
       67  2.80647E-06 1.38470E-06 0.00000E+00 0.00000E+00 0.00000E+00 0.00000E+00 0.00000E+00 0.00000E+00 0.00000E+00 2.93611E-03 1.21638E-03 0.00000E+00
       68  2.98999E-06 7.11530E-07 0.00000E+00 0.00000E+00 0.00000E+00 0.00000E+00 0.00000E+00 0.00000E+00 0.00000E+00 3.11699E-03 6.20123E-04 0.00000E+00
       69  5.57081E-07 5.40878E-07 0.00000E+00 0.00000E+00 0.00000E+00 0.00000E+00 0.00000E+00 0.00000E+00 0.00000E+00 1.32016E-03 1.36934E-03 0.00000E+00
       70  5.27899E-07 3.73446E-07 0.00000E+00 0.00000E+00 0.00000E+00 0.00000E+00 0.00000E+00 0.00000E+00 0.00000E+00 1.42043E-03 1.05637E-03 0.00000E+00
       71  5.12054E-07 2.29342E-07 0.00000E+00 0.00000E+00 0.00000E+00 0.00000E+00 0.00000E+00 0.00000E+00 0.00000E+00 1.49531E-03 7.16868E-04 0.00000E+00
       72  5.08214E-07 1.10321E-07 0.00000E+00 0.00000E+00 0.00000E+00 0.00000E+00 0.00000E+00 0.00000E+00 0.00000E+00 1.55261E-03 3.65753E-04 0.00000E+00
       73  4.03203E-07 5.62854E-07 0.00000E+00 0.00000E+00 0.00000E+00 0.00000E+00 0.00000E+00 0.00000E+00 0.00000E+00 1.00470E-03 1.46726E-03 0.00000E+00
       74  2.48774E-07 5.23816E-07 0.00000E+00 0.00000E+00 0.00000E+00 0.00000E+00 0.00000E+00 0.00000E+00 0.00000E+00 6.73732E-04 1.52742E-03 0.00000E+00
       75  1.16731E-07 4.87969E-07 0.00000E+00 0.00000E+00 0.00000E+00 0.00000E+00 0.00000E+00 0.00000E+00 0.00000E+00 3.38868E-04 1.56769E-03 0.00000E+00
       76  3.70963E-07 3.90119E-07 0.00000E+00 0.00000E+00 0.00000E+00 0.00000E+00 0.00000E+00 0.00000E+00 0.00000E+00 1.07297E-03 1.11939E-03 0.00000E+00
       77  2.34319E-07 3.55705E-07 0.00000E+00 0.00000E+00 0.00000E+00 0.00000E+00 0.00000E+00 0.00000E+00 0.00000E+00 7.18998E-04 1.16346E-03 0.00000E+00
       78  1.13070E-07 3.23776E-07 0.00000E+00 0.00000E+00 0.00000E+00 0.00000E+00 0.00000E+00 0.00000E+00 0.00000E+00 3.61003E-04 1.18732E-03 0.00000E+00
       79  3.49188E-07 2.48866E-07 0.00000E+00 0.00000E+00 0.00000E+00 0.00000E+00 0.00000E+00 0.00000E+00 0.00000E+00 1.12825E-03 7.60152E-04 0.00000E+00
       80  2.15340E-07 2.21134E-07 0.00000E+00 0.00000E+00 0.00000E+00 0.00000E+00 0.00000E+00 0.00000E+00 0.00000E+00 7.54899E-04 7.87813E-04 0.00000E+00
       81  1.02603E-07 1.99069E-07 0.00000E+00 0.00000E+00 0.00000E+00 0.00000E+00 0.00000E+00 0.00000E+00 0.00000E+00 3.77948E-04 7.99520E-04 0.00000E+00
       82  3.37129E-07 1.22215E-07 0.00000E+00 0.00000E+00 0.00000E+00 0.00000E+00 0.00000E+00 0.00000E+00 0.00000E+00 1.16824E-03 3.87723E-04 0.00000E+00
[...]
     6555  1.16202E-06 1.25226E-06-2.00866E-04 0.00000E+00 0.00000E+00 0.00000E+00 0.00000E+00 0.00000E+00 0.00000E+00 7.45216E-03 7.43855E-03 2.51991E-02
     6558  3.90890E-07 7.95389E-07-2.00866E-04 0.00000E+00 0.00000E+00 0.00000E+00 0.00000E+00 0.00000E+00 0.00000E+00 5.59899E-03 8.39890E-03 2.51991E-02
     6559  3.80509E-07 7.46862E-07-2.00866E-04 0.00000E+00 0.00000E+00 0.00000E+00 0.00000E+00 0.00000E+00 0.00000E+00 5.83958E-03 8.76055E-03 2.51991E-02
     6562  3.48445E-07 1.88364E-06-2.00866E-04 0.00000E+00 0.00000E+00 0.00000E+00 0.00000E+00 0.00000E+00 0.00000E+00 3.83175E-03 9.33958E-03 2.51991E-02
     6563  4.02155E-07 2.00159E-06-2.00866E-04 0.00000E+00 0.00000E+00 0.00000E+00 0.00000E+00 0.00000E+00 0.00000E+00 3.99570E-03 9.74210E-03 2.51991E-02
     6566  9.60833E-08 1.69659E-06-2.00866E-04 0.00000E+00 0.00000E+00 0.00000E+00 0.00000E+00 0.00000E+00 0.00000E+00 1.94790E-03 9.90510E-03 2.51991E-02
     6567  1.01576E-07 1.64077E-06-2.00866E-04 0.00000E+00 0.00000E+00 0.00000E+00 0.00000E+00 0.00000E+00 0.00000E+00 2.03100E-03 1.03315E-02 2.51991E-02
     6570  0.00000E+00 2.55236E-06-2.00866E-04 0.00000E+00 0.00000E+00 0.00000E+00 0.00000E+00 0.00000E+00 0.00000E+00 6.18000E-19 1.00958E-02 2.51991E-02
     6571  0.00000E+00 2.57898E-06-2.00866E-04 0.00000E+00 0.00000E+00 0.00000E+00 0.00000E+00 0.00000E+00 0.00000E+00 6.44600E-19 1.05302E-02 2.51991E-02
     6598  9.36016E-07 4.68416E-07-2.00866E-04 0.00000E+00 0.00000E+00 0.00000E+00 0.00000E+00 0.00000E+00 0.00000E+00 1.11850E-02 2.19067E-03 2.51991E-02
     6599  8.45733E-07 4.31026E-07-2.00866E-04 0.00000E+00 0.00000E+00 0.00000E+00 0.00000E+00 0.00000E+00 0.00000E+00 1.16115E-02 2.27333E-03 2.51991E-02
     6600  1.14376E-06 1.00844E-06-2.00866E-04 0.00000E+00 0.00000E+00 0.00000E+00 0.00000E+00 0.00000E+00 0.00000E+00 1.05516E-02 4.31011E-03 2.51991E-02
     6601  1.53769E-06 1.06278E-06-2.00866E-04 0.00000E+00 0.00000E+00 0.00000E+00 0.00000E+00 0.00000E+00 0.00000E+00 1.09547E-02 4.47326E-03 2.51991E-02
     6602  1.81278E-06 9.97503E-07-2.00866E-04 0.00000E+00 0.00000E+00 0.00000E+00 0.00000E+00 0.00000E+00 0.00000E+00 9.49691E-03 6.30380E-03 2.51991E-02
     6603  1.31862E-06 9.80102E-07-2.00866E-04 0.00000E+00 0.00000E+00 0.00000E+00 0.00000E+00 0.00000E+00 0.00000E+00 9.85882E-03 6.54338E-03 2.51991E-02
     6604  1.09264E-06 1.43430E-06-2.00866E-04 0.00000E+00 0.00000E+00 0.00000E+00 0.00000E+00 0.00000E+00 0.00000E+00 8.06749E-03 8.05223E-03 2.51991E-02
     6605  2.21885E-06 2.45084E-06-2.00866E-04 0.00000E+00 0.00000E+00 0.00000E+00 0.00000E+00 0.00000E+00 0.00000E+00 8.37632E-03 8.35995E-03 2.51991E-02
     6606  7.17046E-07 8.11921E-07-2.00866E-04 0.00000E+00 0.00000E+00 0.00000E+00 0.00000E+00 0.00000E+00 0.00000E+00 6.32132E-03 9.48401E-03 2.51991E-02
     6607 -3.43601E-07-2.84345E-07-2.00866E-04 0.00000E+00 0.00000E+00 0.00000E+00 0.00000E+00 0.00000E+00 0.00000E+00 6.56096E-03 9.84462E-03 2.51991E-02
     6608  3.12185E-07 1.49170E-06-2.00866E-04 0.00000E+00 0.00000E+00 0.00000E+00 0.00000E+00 0.00000E+00 0.00000E+00 4.32341E-03 1.05463E-02 2.51991E-02
     6609  3.47376E-07 2.62242E-06-2.00866E-04 0.00000E+00 0.00000E+00 0.00000E+00 0.00000E+00 0.00000E+00 0.00000E+00 4.48735E-03 1.09498E-02 2.51991E-02
     6610  2.66763E-07 2.13553E-06-2.00866E-04 0.00000E+00 0.00000E+00 0.00000E+00 0.00000E+00 0.00000E+00 0.00000E+00 2.19737E-03 1.11849E-02 2.51991E-02
     6611  5.09497E-07 1.03439E-06-2.00866E-04 0.00000E+00 0.00000E+00 0.00000E+00 0.00000E+00 0.00000E+00 0.00000E+00 2.28071E-03 1.16102E-02 2.51991E-02
     6612  0.00000E+00 2.63624E-06-2.00866E-04 0.00000E+00 0.00000E+00 0.00000E+00 0.00000E+00 0.00000E+00 0.00000E+00 6.97800E-19 1.13992E-02 2.51991E-02
     6613  0.00000E+00 2.74538E-06-2.00866E-04 0.00000E+00 0.00000E+00 0.00000E+00 0.00000E+00 0.00000E+00 0.00000E+00 7.24400E-19 1.18338E-02 2.51991E-02
     6854  8.23705E-07 5.12725E-07-2.00866E-04 0.00000E+00 0.00000E+00 0.00000E+00 0.00000E+00 0.00000E+00 0.00000E+00 1.07584E-02 2.10811E-03 2.51991E-02
     6856  1.19357E-06 1.03234E-06-2.00866E-04 0.00000E+00 0.00000E+00 0.00000E+00 0.00000E+00 0.00000E+00 0.00000E+00 1.01490E-02 4.14713E-03 2.51991E-02
     6858  1.21004E-06 1.01376E-06-2.00866E-04 0.00000E+00 0.00000E+00 0.00000E+00 0.00000E+00 0.00000E+00 0.00000E+00 9.13381E-03 6.06421E-03 2.51991E-02
     6860  1.58610E-06 1.45077E-06-2.00866E-04 0.00000E+00 0.00000E+00 0.00000E+00 0.00000E+00 0.00000E+00 0.00000E+00 7.76029E-03 7.74555E-03 2.51991E-02
     6862  5.38152E-08 5.01790E-07-2.00866E-04 0.00000E+00 0.00000E+00 0.00000E+00 0.00000E+00 0.00000E+00 0.00000E+00 6.07995E-03 9.12200E-03 2.51991E-02
     6864  7.05364E-07 2.40351E-06-2.00866E-04 0.00000E+00 0.00000E+00 0.00000E+00 0.00000E+00 0.00000E+00 0.00000E+00 4.15991E-03 1.01448E-02 2.51991E-02
     6866  1.18823E-07 1.25526E-06-2.00866E-04 0.00000E+00 0.00000E+00 0.00000E+00 0.00000E+00 0.00000E+00 0.00000E+00 2.11412E-03 1.07576E-02 2.51991E-02
     6868  0.00000E+00 2.73529E-06-2.00866E-04 0.00000E+00 0.00000E+00 0.00000E+00 0.00000E+00 0.00000E+00 0.00000E+00 6.71200E-19 1.09648E-02 2.51991E-02
     8222  3.52319E-07 4.73706E-07-2.00866E-04 0.00000E+00 0.00000E+00 0.00000E+00 0.00000E+00 0.00000E+00 0.00000E+00 5.63945E-03 1.11607E-03 2.51991E-02
     8223  3.87107E-07 4.81551E-07-2.00866E-04 0.00000E+00 0.00000E+00 0.00000E+00 0.00000E+00 0.00000E+00 0.00000E+00 6.06609E-03 1.19868E-03 2.51991E-02
     8226  4.20994E-07 9.84195E-07-2.00866E-04 0.00000E+00 0.00000E+00 0.00000E+00 0.00000E+00 0.00000E+00 0.00000E+00 5.31542E-03 2.19068E-03 2.51991E-02
     8227  4.64423E-07 1.00485E-06-2.00866E-04 0.00000E+00 0.00000E+00 0.00000E+00 0.00000E+00 0.00000E+00 0.00000E+00 5.71826E-03 2.35370E-03 2.51991E-02
     8230  4.78528E-07 1.06952E-06-2.00866E-04 0.00000E+00 0.00000E+00 0.00000E+00 0.00000E+00 0.00000E+00 0.00000E+00 4.78368E-03 3.18937E-03 2.51991E-02
     8231  5.23323E-07 1.08128E-06-2.00866E-04 0.00000E+00 0.00000E+00 0.00000E+00 0.00000E+00 0.00000E+00 0.00000E+00 5.14622E-03 3.42888E-03 2.51991E-02
     8234  4.29023E-07 1.12606E-06-2.00866E-04 0.00000E+00 0.00000E+00 0.00000E+00 0.00000E+00 0.00000E+00 0.00000E+00 4.06663E-03 4.06443E-03 2.51991E-02
     8235  4.57441E-07 1.14443E-06-2.00866E-04 0.00000E+00 0.00000E+00 0.00000E+00 0.00000E+00 0.00000E+00 0.00000E+00 4.37436E-03 4.37124E-03 2.51991E-02
     8238  3.75573E-07 1.22798E-06-2.00866E-04 0.00000E+00 0.00000E+00 0.00000E+00 0.00000E+00 0.00000E+00 0.00000E+00 3.19208E-03 4.78223E-03 2.51991E-02
     8239  3.70455E-07 1.21882E-06-2.00866E-04 0.00000E+00 0.00000E+00 0.00000E+00 0.00000E+00 0.00000E+00 0.00000E+00 3.43267E-03 5.14392E-03 2.51991E-02
     8242  3.09102E-07 1.52409E-06-2.00866E-04 0.00000E+00 0.00000E+00 0.00000E+00 0.00000E+00 0.00000E+00 0.00000E+00 2.19261E-03 5.31542E-03 2.51991E-02
     8243  3.04319E-07 1.54509E-06-2.00866E-04 0.00000E+00 0.00000E+00 0.00000E+00 0.00000E+00 0.00000E+00 0.00000E+00 2.35650E-03 5.71785E-03 2.51991E-02
     8246  1.53982E-07 1.67410E-06-2.00866E-04 0.00000E+00 0.00000E+00 0.00000E+00 0.00000E+00 0.00000E+00 0.00000E+00 1.11675E-03 5.64057E-03 2.51991E-02
     8247  1.56392E-07 1.70689E-06-2.00866E-04 0.00000E+00 0.00000E+00 0.00000E+00 0.00000E+00 0.00000E+00 0.00000E+00 1.19996E-03 6.06711E-03 2.51991E-02
     8250  0.00000E+00 2.16812E-06-2.00866E-04 0.00000E+00 0.00000E+00 0.00000E+00 0.00000E+00 0.00000E+00 0.00000E+00 3.52000E-19 5.75057E-03 2.51991E-02
     8251  0.00000E+00 2.20602E-06-2.00866E-04 0.00000E+00 0.00000E+00 0.00000E+00 0.00000E+00 0.00000E+00 0.00000E+00 3.78600E-19 6.18511E-03 2.51991E-02
     9318  1.07948E-06 3.51051E-07-2.00866E-04 0.00000E+00 0.00000E+00 0.00000E+00 0.00000E+00 0.00000E+00 0.00000E+00 1.20383E-02 2.35595E-03 2.51991E-02
     9320  1.33912E-06 7.79770E-07-2.00866E-04 0.00000E+00 0.00000E+00 0.00000E+00 0.00000E+00 0.00000E+00 0.00000E+00 1.13573E-02 4.63598E-03 2.51991E-02
     9322  2.29672E-06 1.40730E-06-2.00866E-04 0.00000E+00 0.00000E+00 0.00000E+00 0.00000E+00 0.00000E+00 0.00000E+00 1.02223E-02 6.78341E-03 2.51991E-02
     9324  5.02855E-07 4.33358E-07-2.00866E-04 0.00000E+00 0.00000E+00 0.00000E+00 0.00000E+00 0.00000E+00 0.00000E+00 8.68230E-03 8.66463E-03 2.51991E-02
     9326  1.84472E-06 2.16931E-06-2.00866E-04 0.00000E+00 0.00000E+00 0.00000E+00 0.00000E+00 0.00000E+00 0.00000E+00 6.80384E-03 1.02089E-02 2.51991E-02
     9328 -8.31018E-07-5.79669E-07-2.00866E-04 0.00000E+00 0.00000E+00 0.00000E+00 0.00000E+00 0.00000E+00 0.00000E+00 4.65007E-03 1.13489E-02 2.51991E-02
     9330  9.25689E-07 2.92659E-06-2.00866E-04 0.00000E+00 0.00000E+00 0.00000E+00 0.00000E+00 0.00000E+00 0.00000E+00 2.36423E-03 1.20386E-02 2.51991E-02
     9332  0.00000E+00 2.49472E-06-2.00866E-04 0.00000E+00 0.00000E+00 0.00000E+00 0.00000E+00 0.00000E+00 0.00000E+00 7.51000E-19 1.22680E-02 2.51991E-02
     9822  3.21714E-07 4.81693E-07-2.00866E-04 0.00000E+00 0.00000E+00 0.00000E+00 0.00000E+00 0.00000E+00 0.00000E+00 5.21292E-03 1.03338E-03 2.51991E-02
     9824  3.86323E-07 9.52278E-07-2.00866E-04 0.00000E+00 0.00000E+00 0.00000E+00 0.00000E+00 0.00000E+00 0.00000E+00 4.91269E-03 2.02755E-03 2.51991E-02
     9826  4.42268E-07 1.05164E-06-2.00866E-04 0.00000E+00 0.00000E+00 0.00000E+00 0.00000E+00 0.00000E+00 0.00000E+00 4.42124E-03 2.94975E-03 2.51991E-02
     9828  4.07691E-07 1.08923E-06-2.00866E-04 0.00000E+00 0.00000E+00 0.00000E+00 0.00000E+00 0.00000E+00 0.00000E+00 3.75881E-03 3.75769E-03 2.51991E-02
     9830  3.87919E-07 1.22149E-06-2.00866E-04 0.00000E+00 0.00000E+00 0.00000E+00 0.00000E+00 0.00000E+00 0.00000E+00 2.95139E-03 4.42052E-03 2.51991E-02
     9832  3.18543E-07 1.48188E-06-2.00866E-04 0.00000E+00 0.00000E+00 0.00000E+00 0.00000E+00 0.00000E+00 0.00000E+00 2.02872E-03 4.91308E-03 2.51991E-02
     9834  1.58292E-07 1.63710E-06-2.00866E-04 0.00000E+00 0.00000E+00 0.00000E+00 0.00000E+00 0.00000E+00 0.00000E+00 1.03366E-03 5.21414E-03 2.51991E-02
     9836  0.00000E+00 2.12489E-06-2.00866E-04 0.00000E+00 0.00000E+00 0.00000E+00 0.00000E+00 0.00000E+00 0.00000E+00 3.25400E-19 5.31602E-03 2.51991E-02
    10558  4.17888E-07 4.88324E-07-2.00866E-04 0.00000E+00 0.00000E+00 0.00000E+00 0.00000E+00 0.00000E+00 0.00000E+00 6.49262E-03 1.28139E-03 2.51991E-02
    10559  4.50048E-07 5.03090E-07-2.00866E-04 0.00000E+00 0.00000E+00 0.00000E+00 0.00000E+00 0.00000E+00 0.00000E+00 6.91915E-03 1.36410E-03 2.51991E-02
    10562  5.04986E-07 1.03467E-06-2.00866E-04 0.00000E+00 0.00000E+00 0.00000E+00 0.00000E+00 0.00000E+00 0.00000E+00 6.12100E-03 2.51673E-03 2.51991E-02
    10563  5.54176E-07 1.05919E-06-2.00866E-04 0.00000E+00 0.00000E+00 0.00000E+00 0.00000E+00 0.00000E+00 0.00000E+00 6.52375E-03 2.67986E-03 2.51991E-02
    10566  5.66386E-07 1.08786E-06-2.00866E-04 0.00000E+00 0.00000E+00 0.00000E+00 0.00000E+00 0.00000E+00 0.00000E+00 5.50867E-03 3.66849E-03 2.51991E-02
    10567  6.14893E-07 1.09849E-06-2.00866E-04 0.00000E+00 0.00000E+00 0.00000E+00 0.00000E+00 0.00000E+00 0.00000E+00 5.87121E-03 3.90810E-03 2.51991E-02
    10570  5.01673E-07 1.17533E-06-2.00866E-04 0.00000E+00 0.00000E+00 0.00000E+00 0.00000E+00 0.00000E+00 0.00000E+00 4.68210E-03 4.67798E-03 2.51991E-02
    10571  5.35374E-07 1.18975E-06-2.00866E-04 0.00000E+00 0.00000E+00 0.00000E+00 0.00000E+00 0.00000E+00 0.00000E+00 4.98984E-03 4.98469E-03 2.51991E-02
    10574  3.56593E-07 1.19787E-06-2.00866E-04 0.00000E+00 0.00000E+00 0.00000E+00 0.00000E+00 0.00000E+00 0.00000E+00 3.67336E-03 5.50560E-03 2.51991E-02
    10575  3.58121E-07 1.17971E-06-2.00866E-04 0.00000E+00 0.00000E+00 0.00000E+00 0.00000E+00 0.00000E+00 0.00000E+00 3.91406E-03 5.86728E-03 2.51991E-02
    10578  2.96862E-07 1.55658E-06-2.00866E-04 0.00000E+00 0.00000E+00 0.00000E+00 0.00000E+00 0.00000E+00 0.00000E+00 2.52040E-03 6.12026E-03 2.51991E-02
    10579  2.94671E-07 1.58427E-06-2.00866E-04 0.00000E+00 0.00000E+00 0.00000E+00 0.00000E+00 0.00000E+00 0.00000E+00 2.68429E-03 6.52268E-03 2.51991E-02
    10582  1.51525E-07 1.72935E-06-2.00866E-04 0.00000E+00 0.00000E+00 0.00000E+00 0.00000E+00 0.00000E+00 0.00000E+00 1.28305E-03 6.49353E-03 2.51991E-02
    10583  1.41460E-07 1.72989E-06-2.00866E-04 0.00000E+00 0.00000E+00 0.00000E+00 0.00000E+00 0.00000E+00 0.00000E+00 1.36614E-03 6.92003E-03 2.51991E-02
    10586  0.00000E+00 2.23575E-06-2.00866E-04 0.00000E+00 0.00000E+00 0.00000E+00 0.00000E+00 0.00000E+00 0.00000E+00 4.05200E-19 6.61964E-03 2.51991E-02
    10587  0.00000E+00 2.27830E-06-2.00866E-04 0.00000E+00 0.00000E+00 0.00000E+00 0.00000E+00 0.00000E+00 0.00000E+00 4.31800E-19 7.05408E-03 2.51991E-02
    10710  6.77290E-07 5.63801E-07-2.00866E-04 0.00000E+00 0.00000E+00 0.00000E+00 0.00000E+00 0.00000E+00 0.00000E+00 9.47868E-03 1.86016E-03 2.51991E-02
    10711  9.16795E-07 1.07815E-06-2.00866E-04 0.00000E+00 0.00000E+00 0.00000E+00 0.00000E+00 0.00000E+00 0.00000E+00 8.94052E-03 3.65808E-03 2.51991E-02
    10712  1.00641E-06 1.04543E-06-2.00866E-04 0.00000E+00 0.00000E+00 0.00000E+00 0.00000E+00 0.00000E+00 0.00000E+00 8.04631E-03 5.34555E-03 2.51991E-02
    10713  9.44817E-07 1.20385E-06-2.00866E-04 0.00000E+00 0.00000E+00 0.00000E+00 0.00000E+00 0.00000E+00 0.00000E+00 6.83654E-03 6.82510E-03 2.51991E-02
    10714  3.80027E-07 8.87047E-07-2.00866E-04 0.00000E+00 0.00000E+00 0.00000E+00 0.00000E+00 0.00000E+00 0.00000E+00 5.35828E-03 8.03729E-03 2.51991E-02
    10715  3.11076E-07 1.78443E-06-2.00866E-04 0.00000E+00 0.00000E+00 0.00000E+00 0.00000E+00 0.00000E+00 0.00000E+00 3.66781E-03 8.93708E-03 2.51991E-02
    10716  9.45357E-08 1.74241E-06-2.00866E-04 0.00000E+00 0.00000E+00 0.00000E+00 0.00000E+00 0.00000E+00 0.00000E+00 1.86469E-03 9.47874E-03 2.51991E-02
    10717  0.00000E+00 2.49526E-06-2.00866E-04 0.00000E+00 0.00000E+00 0.00000E+00 0.00000E+00 0.00000E+00 0.00000E+00 5.91400E-19 9.66120E-03 2.51991E-02
    10990  3.17815E-07 4.78528E-07-2.00866E-04 0.00000E+00 0.00000E+00 0.00000E+00 0.00000E+00 0.00000E+00 0.00000E+00 4.78632E-03 9.50728E-04 2.51991E-02
    10992  3.55901E-07 9.21081E-07-2.00866E-04 0.00000E+00 0.00000E+00 0.00000E+00 0.00000E+00 0.00000E+00 0.00000E+00 4.50996E-03 1.86452E-03 2.51991E-02
    10994  4.07705E-07 1.01680E-06-2.00866E-04 0.00000E+00 0.00000E+00 0.00000E+00 0.00000E+00 0.00000E+00 0.00000E+00 4.05871E-03 2.71012E-03 2.51991E-02
    10996  3.90345E-07 1.05513E-06-2.00866E-04 0.00000E+00 0.00000E+00 0.00000E+00 0.00000E+00 0.00000E+00 0.00000E+00 3.45109E-03 3.45096E-03 2.51991E-02
    10998  3.97603E-07 1.20246E-06-2.00866E-04 0.00000E+00 0.00000E+00 0.00000E+00 0.00000E+00 0.00000E+00 0.00000E+00 2.71070E-03 4.05870E-03 2.51991E-02
    11000  3.25160E-07 1.42930E-06-2.00866E-04 0.00000E+00 0.00000E+00 0.00000E+00 0.00000E+00 0.00000E+00 0.00000E+00 1.86483E-03 4.51063E-03 2.51991E-02
    11002  1.54634E-07 1.58823E-06-2.00866E-04 0.00000E+00 0.00000E+00 0.00000E+00 0.00000E+00 0.00000E+00 0.00000E+00 9.50590E-04 4.78759E-03 2.51991E-02
    11004  0.00000E+00 2.11813E-06-2.00866E-04 0.00000E+00 0.00000E+00 0.00000E+00 0.00000E+00 0.00000E+00 0.00000E+00 2.98800E-19 4.88162E-03 2.51991E-02
    11078  4.84210E-07 5.19168E-07-2.00866E-04 0.00000E+00 0.00000E+00 0.00000E+00 0.00000E+00 0.00000E+00 0.00000E+00 7.34578E-03 1.44672E-03 2.51991E-02
    11079  6.07929E-07 1.07471E-06-2.00866E-04 0.00000E+00 0.00000E+00 0.00000E+00 0.00000E+00 0.00000E+00 0.00000E+00 6.92661E-03 2.84287E-03 2.51991E-02
    11080  6.68524E-07 1.09117E-06-2.00866E-04 0.00000E+00 0.00000E+00 0.00000E+00 0.00000E+00 0.00000E+00 0.00000E+00 6.23367E-03 4.14769E-03 2.51991E-02
    11081  5.87981E-07 1.20836E-06-2.00866E-04 0.00000E+00 0.00000E+00 0.00000E+00 0.00000E+00 0.00000E+00 0.00000E+00 5.29759E-03 5.29151E-03 2.51991E-02
    11082  3.47906E-07 1.14022E-06-2.00866E-04 0.00000E+00 0.00000E+00 0.00000E+00 0.00000E+00 0.00000E+00 0.00000E+00 4.15475E-03 6.22894E-03 2.51991E-02
    11083  3.01322E-07 1.62326E-06-2.00866E-04 0.00000E+00 0.00000E+00 0.00000E+00 0.00000E+00 0.00000E+00 0.00000E+00 2.84820E-03 6.92502E-03 2.51991E-02
    11084  1.30908E-07 1.73549E-06-2.00866E-04 0.00000E+00 0.00000E+00 0.00000E+00 0.00000E+00 0.00000E+00 0.00000E+00 1.44923E-03 7.34644E-03 2.51991E-02
    11085  0.00000E+00 2.30927E-06-2.00866E-04 0.00000E+00 0.00000E+00 0.00000E+00 0.00000E+00 0.00000E+00 0.00000E+00 4.58400E-19 7.48861E-03 2.51991E-02
    11222  5.19232E-07 5.41321E-07-2.00866E-04 0.00000E+00 0.00000E+00 0.00000E+00 0.00000E+00 0.00000E+00 0.00000E+00 7.77232E-03 1.52944E-03 2.51991E-02
    11223  6.60241E-07 1.09091E-06-2.00866E-04 0.00000E+00 0.00000E+00 0.00000E+00 0.00000E+00 0.00000E+00 0.00000E+00 7.32936E-03 3.00589E-03 2.51991E-02
    11224  7.24741E-07 1.08879E-06-2.00866E-04 0.00000E+00 0.00000E+00 0.00000E+00 0.00000E+00 0.00000E+00 0.00000E+00 6.59622E-03 4.38729E-03 2.51991E-02
    11225  6.39516E-07 1.21788E-06-2.00866E-04 0.00000E+00 0.00000E+00 0.00000E+00 0.00000E+00 0.00000E+00 0.00000E+00 5.60534E-03 5.59822E-03 2.51991E-02
    11226  3.48528E-07 1.10356E-06-2.00866E-04 0.00000E+00 0.00000E+00 0.00000E+00 0.00000E+00 0.00000E+00 0.00000E+00 4.39545E-03 6.59060E-03 2.51991E-02
    11227  2.99388E-07 1.64782E-06-2.00866E-04 0.00000E+00 0.00000E+00 0.00000E+00 0.00000E+00 0.00000E+00 0.00000E+00 3.01210E-03 7.32745E-03 2.51991E-02
    11228  1.22221E-07 1.74087E-06-2.00866E-04 0.00000E+00 0.00000E+00 0.00000E+00 0.00000E+00 0.00000E+00 0.00000E+00 1.53232E-03 7.77294E-03 2.51991E-02
    11229  0.00000E+00 2.35792E-06-2.00866E-04 0.00000E+00 0.00000E+00 0.00000E+00 0.00000E+00 0.00000E+00 0.00000E+00 4.85000E-19 7.92316E-03 2.51991E-02
    11238  9.01524E-07 6.99468E-08-2.00866E-04 0.00000E+00 0.00000E+00 0.00000E+00 0.00000E+00 0.00000E+00 0.00000E+00 1.24647E-02 2.43827E-03 2.51991E-02
    11239  1.38493E-06 1.24427E-06-2.00866E-04 0.00000E+00 0.00000E+00 0.00000E+00 0.00000E+00 0.00000E+00 0.00000E+00 1.17601E-02 4.79944E-03 2.51991E-02
    11240  2.24470E-06 4.59256E-07-2.00866E-04 0.00000E+00 0.00000E+00 0.00000E+00 0.00000E+00 0.00000E+00 0.00000E+00 1.05846E-02 7.02196E-03 2.51991E-02
    11241 -1.06748E-06 1.22110E-06-2.00866E-04 0.00000E+00 0.00000E+00 0.00000E+00 0.00000E+00 0.00000E+00 0.00000E+00 8.98853E-03 8.97222E-03 2.51991E-02
    11242  2.30985E-06 1.70671E-06-2.00866E-04 0.00000E+00 0.00000E+00 0.00000E+00 0.00000E+00 0.00000E+00 0.00000E+00 7.04501E-03 1.05701E-02 2.51991E-02
    11243 -2.74639E-07 1.88889E-07-2.00866E-04 0.00000E+00 0.00000E+00 0.00000E+00 0.00000E+00 0.00000E+00 0.00000E+00 4.81453E-03 1.17521E-02 2.51991E-02
    11244 -1.72617E-07 2.08013E-06-2.00866E-04 0.00000E+00 0.00000E+00 0.00000E+00 0.00000E+00 0.00000E+00 0.00000E+00 2.44623E-03 1.24642E-02 2.51991E-02
    11245  0.00000E+00 2.41259E-06-2.00866E-04 0.00000E+00 0.00000E+00 0.00000E+00 0.00000E+00 0.00000E+00 0.00000E+00 7.77700E-19 1.27024E-02 2.51991E-02
    11246  6.35229E-07 5.71378E-07-2.00866E-04 0.00000E+00 0.00000E+00 0.00000E+00 0.00000E+00 0.00000E+00 0.00000E+00 9.05204E-03 1.77747E-03 2.51991E-02
    11247  8.46976E-07 1.09405E-06-2.00866E-04 0.00000E+00 0.00000E+00 0.00000E+00 0.00000E+00 0.00000E+00 0.00000E+00 8.53775E-03 3.49499E-03 2.51991E-02
    11248  9.23899E-07 1.05037E-06-2.00866E-04 0.00000E+00 0.00000E+00 0.00000E+00 0.00000E+00 0.00000E+00 0.00000E+00 7.68372E-03 5.10595E-03 2.51991E-02
    11249  8.66630E-07 1.21826E-06-2.00866E-04 0.00000E+00 0.00000E+00 0.00000E+00 0.00000E+00 0.00000E+00 0.00000E+00 6.52867E-03 6.51842E-03 2.51991E-02
    11250  3.49321E-07 9.39583E-07-2.00866E-04 0.00000E+00 0.00000E+00 0.00000E+00 0.00000E+00 0.00000E+00 0.00000E+00 5.11755E-03 7.67564E-03 2.51991E-02
    11251  3.11187E-07 1.75979E-06-2.00866E-04 0.00000E+00 0.00000E+00 0.00000E+00 0.00000E+00 0.00000E+00 0.00000E+00 3.50391E-03 8.53466E-03 2.51991E-02
    11252  9.42064E-08 1.72942E-06-2.00866E-04 0.00000E+00 0.00000E+00 0.00000E+00 0.00000E+00 0.00000E+00 0.00000E+00 1.78159E-03 9.05223E-03 2.51991E-02
    11253  0.00000E+00 2.46301E-06-2.00866E-04 0.00000E+00 0.00000E+00 0.00000E+00 0.00000E+00 0.00000E+00 0.00000E+00 5.64800E-19 9.22666E-03 2.51991E-02
