 LS-DYNA keyword deck by LS-PrePost                                      
                    ls-dyna smp d R14 R14.1.1s_1_ef50e1 date 06/16/2024



 e l e m e n t   s t r e s s   c a l c u l a t i o n s   f o r   t i m e  s t e p        1   ( at time 0.00000E+00 )

 element  materl
     ipt  stress       sig-xx      sig-yy      sig-zz      sig-xy      sig-yz      sig-zx                       yield
           state                                                                                  effsg      function
      45-      1
       1          -1.9509E-06 -1.9509E-06 -1.9509E-06  0.0000E+00  0.0000E+00  0.0000E+00    0.0000E+00    0.0000E+00
      47-      1
       1          -1.9509E-06 -1.9509E-06 -1.9509E-06  0.0000E+00  0.0000E+00  0.0000E+00    0.0000E+00    0.0000E+00
      53-      1
       1          -3.9019E-06 -3.9019E-06 -3.9019E-06  0.0000E+00  0.0000E+00  0.0000E+00    0.0000E+00    0.0000E+00
      61-      1
       1           0.0000E+00  0.0000E+00  0.0000E+00  0.0000E+00  0.0000E+00  0.0000E+00    0.0000E+00    0.0000E+00
      67-      1
       1          -3.9019E-06 -3.9019E-06 -3.9019E-06  0.0000E+00  0.0000E+00  0.0000E+00    0.0000E+00    0.0000E+00
      79-      1
       1           0.0000E+00  0.0000E+00  0.0000E+00  0.0000E+00  0.0000E+00  0.0000E+00    0.0000E+00    0.0000E+00
      81-      1
       1          -1.9509E-06 -1.9509E-06 -1.9509E-06  0.0000E+00  0.0000E+00  0.0000E+00    0.0000E+00    0.0000E+00



 e l e m e n t   s t r a i n   c a l c u l a t i o n s   f o r   t i m e  s t e p        1   ( at time  0.00000E+00 )

 element  strain       eps-xx      eps-yy      eps-zz      eps-xy      eps-yz      eps-zx                            yield
 num/ipt   state
      45-      1
      1            0.0000E+00  0.0000E+00  0.0000E+00  0.0000E+00  0.0000E+00  0.0000E+00
      47-      1
      1            0.0000E+00  0.0000E+00  0.0000E+00  0.0000E+00  0.0000E+00  0.0000E+00
      53-      1
      1            0.0000E+00  0.0000E+00  0.0000E+00  0.0000E+00  0.0000E+00  0.0000E+00
      61-      1
      1            0.0000E+00  0.0000E+00  0.0000E+00  0.0000E+00  0.0000E+00  0.0000E+00
      67-      1
      1            0.0000E+00  0.0000E+00  0.0000E+00  0.0000E+00  0.0000E+00  0.0000E+00
      79-      1
      1            0.0000E+00  0.0000E+00  0.0000E+00  0.0000E+00  0.0000E+00  0.0000E+00
      81-      1
      1            0.0000E+00  0.0000E+00  0.0000E+00  0.0000E+00  0.0000E+00  0.0000E+00



 e l e m e n t   s t r e s s   c a l c u l a t i o n s   f o r   t i m e  s t e p        6   ( at time 2.50000E+00 )

 element  materl
     ipt  stress       sig-xx      sig-yy      sig-zz      sig-xy      sig-yz      sig-zx                       yield
           state                                                                                  effsg      function
      45-      1
       1          -2.4122E+07 -4.2056E+07 -1.5864E+08  1.0124E+07 -8.5538E+06 -1.8183E+07    1.3238E+08    0.0000E+00
      47-      1
       1          -3.8609E+07 -3.0687E+07 -1.6003E+08  1.3010E+07 -1.6669E+07 -1.1928E+07    1.3243E+08    0.0000E+00
      53-      1
       1          -3.1852E+07 -3.6790E+07 -1.6056E+08  1.3743E+07 -1.3474E+07 -1.5708E+07    1.3344E+08    0.0000E+00
      61-      1
       1          -1.9411E+07 -4.5436E+07 -1.5834E+08  3.8174E+06 -2.9673E+06 -1.9854E+07    1.3273E+08    0.0000E+00
      67-      1
       1          -4.2844E+07 -2.5412E+07 -1.5707E+08  9.4652E+06 -1.8455E+07 -7.0284E+06    1.2954E+08    0.0000E+00
      79-      1
       1          -3.6131E+07 -3.5995E+07 -7.9974E+07  1.5298E+05  4.2983E+04  1.2602E+03    4.3913E+07    0.0000E+00
      81-      1
       1          -4.4519E+07 -2.0665E+07 -1.5560E+08  3.7564E+06 -1.9840E+07 -2.2856E+06    1.2960E+08    0.0000E+00



 e l e m e n t   s t r a i n   c a l c u l a t i o n s   f o r   t i m e  s t e p        6   ( at time  2.50000E+00 )

 element  strain       eps-xx      eps-yy      eps-zz      eps-xy      eps-yz      eps-zx                            yield
 num/ipt   state
      45-      1
      1            6.1400E-04  2.7160E-04 -1.9534E-03  1.9325E-04 -1.6319E-04 -3.4678E-04
      47-      1
      1            3.5908E-04  5.1018E-04 -1.9582E-03  2.4831E-04 -3.1799E-04 -2.2747E-04
      53-      1
      1            4.8745E-04  3.9306E-04 -1.9690E-03  2.6231E-04 -2.5706E-04 -2.9957E-04
      61-      1
      1            6.9609E-04  1.9931E-04 -1.9556E-03  7.2861E-05 -5.6614E-05 -3.7864E-04
      67-      1
      1            2.5910E-04  5.9180E-04 -1.9209E-03  1.8068E-04 -3.5204E-04 -1.3404E-04
      79-      1
      1            3.7585E-05  4.0185E-05 -7.9913E-04  2.9194E-06  8.2475E-07  2.8547E-08
      81-      1
      1            2.0537E-04  6.6071E-04 -1.9147E-03  7.1713E-05 -3.7844E-04 -4.3587E-05



 e l e m e n t   s t r e s s   c a l c u l a t i o n s   f o r   t i m e  s t e p       10   ( at time 6.46223E+00 )

 element  materl
     ipt  stress       sig-xx      sig-yy      sig-zz      sig-xy      sig-yz      sig-zx                       yield
           state                                                                                  effsg      function
      45-      1
       1          -7.9601E+07 -1.2090E+08 -3.3695E+08  2.3645E+07 -1.6262E+07 -3.5085E+07    2.5193E+08    6.2595E-04
      47-      1
       1          -1.1306E+08 -9.5272E+07 -3.3927E+08  3.0288E+07 -3.0160E+07 -2.2403E+07    2.5000E+08    6.3664E-04
      53-      1
       1          -9.7993E+07 -1.1046E+08 -3.4004E+08  3.1617E+07 -2.4586E+07 -2.9356E+07    2.5124E+08    6.4456E-04
      61-      1
       1          -6.8047E+07 -1.2716E+08 -3.3172E+08  9.0196E+06 -5.6989E+06 -3.8388E+07    2.4938E+08    6.5286E-04
      67-      1
       1          -1.2043E+08 -7.9019E+07 -3.3739E+08  2.2783E+07 -3.5159E+07 -1.3722E+07    2.5219E+08    5.7901E-04
      79-      1
       1          -9.5658E+07 -9.4734E+07 -2.1053E+08  6.5110E+05  1.1372E+05 -4.4525E+04    1.1534E+08    0.0000E+00
      81-      1
       1          -1.2190E+08 -6.5455E+07 -3.2891E+08  9.2549E+06 -3.8324E+07 -4.4513E+06    2.4989E+08    5.9750E-04



 e l e m e n t   s t r a i n   c a l c u l a t i o n s   f o r   t i m e  s t e p       10   ( at time  6.46223E+00 )

 element  strain       eps-xx      eps-yy      eps-zz      eps-xy      eps-yz      eps-zx                            yield
 num/ipt   state
      45-      1
      1            2.0379E-03  8.6751E-04 -5.4609E-03  6.7425E-04 -4.9943E-04 -1.0446E-03
      47-      1
      1            1.1777E-03  1.6779E-03 -5.4577E-03  8.7937E-04 -9.5847E-04 -6.9289E-04
      53-      1
      1            1.6209E-03  1.2682E-03 -5.4959E-03  9.1642E-04 -7.8052E-04 -8.9748E-04
      61-      1
      1            2.3388E-03  6.3079E-04 -5.4761E-03  2.6076E-04 -1.7284E-04 -1.1454E-03
      67-      1
      1            8.2742E-04  1.9681E-03 -5.3470E-03  6.4092E-04 -1.0672E-03 -4.1666E-04
      79-      1
      1            9.1331E-05  1.0896E-04 -2.1009E-03  1.2424E-05  2.1697E-06 -8.4924E-07
      81-      1
      1            6.4241E-04  2.2258E-03 -5.3234E-03  2.6313E-04 -1.1492E-03 -1.3701E-04



 e l e m e n t   s t r e s s   c a l c u l a t i o n s   f o r   t i m e  s t e p      261   ( at time 7.81516E+00 )

 element  materl
     ipt  stress       sig-xx      sig-yy      sig-zz      sig-xy      sig-yz      sig-zx                       yield
           state                                                                                  effsg      function
      45-      1
       1          -6.9454E+07 -1.1665E+08 -3.2208E+08  2.4865E+07 -1.5668E+07 -3.0964E+07    2.4412E+08    4.3719E-03
      47-      1
       1          -9.8903E+07 -7.9884E+07 -2.9756E+08  3.4902E+07 -2.8663E+07 -2.5758E+07    2.2741E+08    4.2448E-03
      53-      1
       1          -8.6204E+07 -9.4801E+07 -3.0578E+08  3.4963E+07 -2.2745E+07 -2.7137E+07    2.3200E+08    4.4499E-03
      61-      1
       1          -5.0940E+07 -1.1561E+08 -2.9964E+08  1.1809E+07 -6.2194E+06 -3.2454E+07    2.3161E+08    5.2113E-03
      67-      1
       1          -9.8528E+07 -4.8293E+07 -3.0239E+08  2.4872E+07 -4.1090E+07 -1.8086E+07    2.4945E+08    3.5931E-03
      79-      1
       1          -1.2420E+08 -1.2178E+08 -2.7447E+08  5.7369E+06  7.4048E+05 -1.9559E+06    1.5186E+08    1.7549E-05
      81-      1
       1          -8.3458E+07 -2.8686E+07 -2.5522E+08  7.0291E+06 -3.8330E+07 -3.3438E+06    2.1564E+08    5.4996E-03



 e l e m e n t   s t r a i n   c a l c u l a t i o n s   f o r   t i m e  s t e p      261   ( at time  7.81516E+00 )

 element  strain       eps-xx      eps-yy      eps-zz      eps-xy      eps-yz      eps-zx                            yield
 num/ipt   state
      45-      1
      1            4.2582E-03  1.9333E-03 -8.6168E-03  1.2155E-03 -8.5743E-04 -1.6338E-03
      47-      1
      1            2.3552E-03  3.2481E-03 -7.8730E-03  1.6949E-03 -1.6031E-03 -1.2868E-03
      53-      1
      1            3.1786E-03  2.7507E-03 -8.2509E-03  1.7394E-03 -1.3409E-03 -1.4638E-03
      61-      1
      1            5.0779E-03  1.5599E-03 -8.8678E-03  5.3404E-04 -2.2288E-04 -1.9321E-03
      67-      1
      1            1.7375E-03  3.8923E-03 -7.7711E-03  1.1339E-03 -1.9316E-03 -8.2894E-04
      79-      1
      1            1.3173E-04  1.7684E-04 -2.7739E-03  1.1024E-04  1.8982E-05 -4.1464E-05
      81-      1
      1            1.6919E-03  4.6816E-03 -8.1309E-03  4.6761E-04 -2.3260E-03 -2.7226E-04



 e l e m e n t   s t r e s s   c a l c u l a t i o n s   f o r   t i m e  s t e p      265   ( at time 8.49322E+00 )

 element  materl
     ipt  stress       sig-xx      sig-yy      sig-zz      sig-xy      sig-yz      sig-zx                       yield
           state                                                                                  effsg      function
      45-      1
       1          -9.2626E+07 -1.3780E+08 -3.3956E+08  2.7707E+07 -1.5861E+07 -2.9029E+07    2.3968E+08    5.1455E-03
      47-      1
       1          -1.0691E+08 -9.1592E+07 -3.1196E+08  3.7310E+07 -2.8503E+07 -2.6897E+07    2.3282E+08    5.2862E-03
      53-      1
       1          -1.0554E+08 -1.1682E+08 -3.1894E+08  3.4112E+07 -2.2653E+07 -2.6838E+07    2.2461E+08    5.6594E-03
      61-      1
       1          -7.0335E+07 -1.2285E+08 -3.0457E+08  1.4622E+07 -6.7443E+06 -2.9537E+07    2.2072E+08    6.3005E-03
      67-      1
       1          -1.1442E+08 -6.6519E+07 -3.2357E+08  2.6297E+07 -4.0658E+07 -1.9067E+07    2.5334E+08    4.4667E-03
      79-      1
       1          -1.3502E+08 -1.3438E+08 -2.9682E+08  6.7343E+06  5.1835E+05 -2.0967E+06    1.6258E+08    7.5812E-05
      81-      1
       1          -8.8822E+07 -3.8955E+07 -2.5704E+08  7.4002E+06 -3.7815E+07 -3.0931E+06    2.0894E+08    7.1029E-03



 e l e m e n t   s t r a i n   c a l c u l a t i o n s   f o r   t i m e  s t e p      265   ( at time  8.49322E+00 )

 element  strain       eps-xx      eps-yy      eps-zz      eps-xy      eps-yz      eps-zx                            yield
 num/ipt   state
      45-      1
      1            4.5267E-03  2.0496E-03 -9.2939E-03  1.3891E-03 -9.4176E-04 -1.7239E-03
      47-      1
      1            2.7335E-03  3.6338E-03 -8.7987E-03  1.9579E-03 -1.7872E-03 -1.4714E-03
      53-      1
      1            3.5603E-03  3.0173E-03 -9.1570E-03  1.9542E-03 -1.5477E-03 -1.6600E-03
      61-      1
      1            5.4093E-03  1.8198E-03 -9.6090E-03  6.7381E-04 -2.3302E-04 -2.0154E-03
      67-      1
      1            1.9649E-03  4.3062E-03 -8.6746E-03  1.2913E-03 -2.1294E-03 -9.4811E-04
      79-      1
      1            1.6203E-04  1.7242E-04 -3.0163E-03  1.3024E-04  9.7264E-06 -5.3643E-05
      81-      1
      1            2.0079E-03  5.3155E-03 -9.1647E-03  5.5136E-04 -2.6819E-03 -3.0463E-04



 e l e m e n t   s t r e s s   c a l c u l a t i o n s   f o r   t i m e  s t e p      360   ( at time 8.99204E+00 )

 element  materl
     ipt  stress       sig-xx      sig-yy      sig-zz      sig-xy      sig-yz      sig-zx                       yield
           state                                                                                  effsg      function
      45-      1
       1          -1.0379E+08 -1.4796E+08 -3.4550E+08  2.6860E+07 -1.5938E+07 -3.0160E+07    2.3527E+08    6.5742E-03
      47-      1
       1          -1.1566E+08 -1.0260E+08 -3.2158E+08  3.5720E+07 -2.8291E+07 -2.6223E+07    2.3142E+08    6.4074E-03
      53-      1
       1          -1.2063E+08 -1.3312E+08 -3.2566E+08  3.2183E+07 -2.1285E+07 -2.6179E+07    2.1484E+08    7.0825E-03
      61-      1
       1          -7.6891E+07 -1.2121E+08 -2.9701E+08  1.4113E+07 -7.3269E+06 -2.9431E+07    2.0980E+08    8.3856E-03
      67-      1
       1          -1.1485E+08 -7.0255E+07 -3.2803E+08  2.5385E+07 -4.0503E+07 -1.9229E+07    2.5477E+08    5.5336E-03
      79-      1
       1          -1.4607E+08 -1.4539E+08 -3.1400E+08  8.8797E+06 -4.5731E+05 -2.6099E+06    1.6904E+08    1.5348E-04
      81-      1
       1          -8.8011E+07 -4.3108E+07 -2.5533E+08  7.7232E+06 -3.6615E+07 -3.2299E+06    2.0435E+08    8.7805E-03



 e l e m e n t   s t r a i n   c a l c u l a t i o n s   f o r   t i m e  s t e p      360   ( at time  8.99204E+00 )

 element  strain       eps-xx      eps-yy      eps-zz      eps-xy      eps-yz      eps-zx                            yield
 num/ipt   state
      45-      1
      1            5.1917E-03  2.3894E-03 -1.0428E-02  1.5888E-03 -1.1065E-03 -1.9959E-03
      47-      1
      1            3.1072E-03  4.0336E-03 -9.7115E-03  2.1492E-03 -1.9742E-03 -1.6265E-03
      53-      1
      1            4.0232E-03  3.3543E-03 -1.0137E-02  2.1697E-03 -1.7202E-03 -1.8707E-03
      61-      1
      1            6.2023E-03  2.2924E-03 -1.0863E-02  8.1166E-04 -2.6651E-04 -2.3061E-03
      67-      1
      1            2.3350E-03  4.8749E-03 -9.6550E-03  1.4271E-03 -2.3717E-03 -1.0694E-03
      79-      1
      1            1.6058E-04  1.7010E-04 -3.1981E-03  1.7266E-04 -1.5867E-05 -7.8029E-05
      81-      1
      1            2.3904E-03  5.9919E-03 -1.0233E-02  6.3703E-04 -3.0238E-03 -3.4129E-04



 e l e m e n t   s t r e s s   c a l c u l a t i o n s   f o r   t i m e  s t e p      498   ( at time 9.35899E+00 )

 element  materl
     ipt  stress       sig-xx      sig-yy      sig-zz      sig-xy      sig-yz      sig-zx                       yield
           state                                                                                  effsg      function
      45-      1
       1          -1.1524E+08 -1.5495E+08 -3.4921E+08  2.5003E+07 -1.5821E+07 -2.9667E+07    2.2869E+08    7.3423E-03
      47-      1
       1          -1.1789E+08 -1.0845E+08 -3.2397E+08  3.3688E+07 -2.8001E+07 -2.5761E+07    2.2858E+08    7.1758E-03
      53-      1
       1          -1.2139E+08 -1.3336E+08 -3.1847E+08  3.2262E+07 -2.0227E+07 -2.4585E+07    2.0685E+08    7.9484E-03
      61-      1
       1          -7.4022E+07 -1.1462E+08 -2.8416E+08  1.4095E+07 -7.3580E+06 -2.8819E+07    2.0131E+08    9.7543E-03
      67-      1
       1          -1.1269E+08 -6.6902E+07 -3.2593E+08  2.4411E+07 -4.1177E+07 -2.0642E+07    2.5590E+08    6.3682E-03
      79-      1
       1          -1.4855E+08 -1.5337E+08 -3.2627E+08  9.8783E+06 -1.6046E+06 -2.2524E+06    1.7626E+08    2.2644E-04
      81-      1
       1          -8.4183E+07 -4.2439E+07 -2.5124E+08  6.3898E+06 -3.6569E+07 -3.8899E+06    2.0200E+08    1.0093E-02



 e l e m e n t   s t r a i n   c a l c u l a t i o n s   f o r   t i m e  s t e p      498   ( at time  9.35899E+00 )

 element  strain       eps-xx      eps-yy      eps-zz      eps-xy      eps-yz      eps-zx                            yield
 num/ipt   state
      45-      1
      1            5.4644E-03  2.5807E-03 -1.0997E-02  1.6601E-03 -1.1792E-03 -2.1151E-03
      47-      1
      1            3.3929E-03  4.2825E-03 -1.0296E-02  2.2526E-03 -2.0964E-03 -1.7273E-03
      53-      1
      1            4.3119E-03  3.5967E-03 -1.0639E-02  2.3245E-03 -1.7876E-03 -1.9499E-03
      61-      1
      1            6.6981E-03  2.5828E-03 -1.1545E-02  9.0783E-04 -2.7464E-04 -2.4745E-03
      67-      1
      1            2.6003E-03  5.3719E-03 -1.0382E-02  1.5236E-03 -2.5774E-03 -1.1963E-03
      79-      1
      1            2.4365E-04  1.4407E-04 -3.3626E-03  1.9346E-04 -4.0373E-05 -8.4611E-05
      81-      1
      1            2.7089E-03  6.5298E-03 -1.1049E-02  6.6519E-04 -3.3019E-03 -3.8321E-04



 e l e m e n t   s t r e s s   c a l c u l a t i o n s   f o r   t i m e  s t e p      522   ( at time 9.94057E+00 )

 element  materl
     ipt  stress       sig-xx      sig-yy      sig-zz      sig-xy      sig-yz      sig-zx                       yield
           state                                                                                  effsg      function
      45-      1
       1          -4.8627E+07 -6.3907E+07 -2.2778E+08  9.3225E+06 -8.9712E+06 -3.0509E+07    1.8134E+08    1.7075E-02
      47-      1
       1          -7.1739E+07 -6.2788E+07 -2.4694E+08  2.1296E+07 -3.1401E+07 -1.6255E+07    1.9353E+08    1.6763E-02
      53-      1
       1          -5.4385E+07 -5.4861E+07 -1.8700E+08  1.3578E+07 -1.5615E+07 -1.8220E+07    1.4073E+08    2.3036E-02
      61-      1
       1          -1.1029E+08 -1.5716E+08 -2.7849E+08 -1.1572E+07 -1.4434E+06 -2.7198E+07    1.5884E+08    2.0784E-02
      67-      1
       1          -1.2053E+08 -8.1899E+07 -3.0677E+08  1.9145E+07 -3.2201E+07 -3.5424E+06    2.1822E+08    1.1674E-02
      79-      1
       1          -1.5298E+08 -1.4588E+08 -3.9238E+08 -2.4722E+06 -4.4790E+05 -2.0273E+06    2.4309E+08    6.8207E-04
      81-      1
       1          -1.3457E+08 -9.7889E+07 -2.3665E+08 -1.1668E+06 -1.5579E+07  1.2997E+06    1.2746E+08    2.1103E-02



 e l e m e n t   s t r a i n   c a l c u l a t i o n s   f o r   t i m e  s t e p      522   ( at time  9.94057E+00 )

 element  strain       eps-xx      eps-yy      eps-zz      eps-xy      eps-yz      eps-zx                            yield
 num/ipt   state
      45-      1
      1            8.5724E-03  5.2866E-03 -1.5514E-02  1.7959E-03 -1.6720E-03 -3.8647E-03
      47-      1
      1            5.6796E-03  7.3222E-03 -1.4836E-02  2.9111E-03 -3.6411E-03 -2.4814E-03
      53-      1
      1            7.6175E-03  6.9754E-03 -1.6049E-02  2.9276E-03 -3.2874E-03 -3.7694E-03
      61-      1
      1            8.9710E-03  2.9697E-03 -1.4570E-02 -4.6949E-04 -4.6892E-04 -3.6417E-03
      67-      1
      1            3.8013E-03  7.5915E-03 -1.3827E-02  1.9413E-03 -3.5042E-03 -8.5871E-04
      79-      1
      1            8.6060E-04  1.0147E-03 -5.1454E-03 -6.2635E-05  1.1812E-05 -1.0457E-04
      81-      1
      1            3.2184E-03  8.8701E-03 -1.4349E-02  2.4652E-04 -4.1827E-03 -1.7242E-04



 e l e m e n t   s t r e s s   c a l c u l a t i o n s   f o r   t i m e  s t e p      526   ( at time 1.02320E+01 )

 element  materl
     ipt  stress       sig-xx      sig-yy      sig-zz      sig-xy      sig-yz      sig-zx                       yield
           state                                                                                  effsg      function
      45-      1
       1          -5.7316E+07 -7.0067E+07 -2.3141E+08  1.8306E+07 -1.1621E+07 -2.9992E+07    1.7989E+08    1.7686E-02
      47-      1
       1          -8.0310E+07 -7.6791E+07 -2.6581E+08  2.3507E+07 -3.1774E+07 -1.4163E+07    2.0091E+08    1.6806E-02
      53-      1
       1          -6.3439E+07 -7.1331E+07 -2.1146E+08  1.8274E+07 -1.9018E+07 -1.7673E+07    1.5436E+08    2.3036E-02
      61-      1
       1          -7.8673E+07 -1.3789E+08 -2.8785E+08 -1.6809E+07  2.6932E+06 -3.2923E+07    1.9748E+08    2.1518E-02
      67-      1
       1          -1.2773E+08 -8.6250E+07 -3.1450E+08  1.5319E+07 -3.2877E+07 -2.6561E+06    2.1982E+08    1.1889E-02
      79-      1
       1          -1.5601E+08 -1.5455E+08 -3.9183E+08 -5.3073E+05 -5.8596E+05 -3.2495E+06    2.3662E+08    6.8207E-04
      81-      1
       1          -1.4042E+08 -9.8623E+07 -2.4439E+08 -1.1259E+06 -1.6626E+07  4.8424E+05    1.3318E+08    2.1205E-02



 e l e m e n t   s t r a i n   c a l c u l a t i o n s   f o r   t i m e  s t e p      526   ( at time  1.02320E+01 )

 element  strain       eps-xx      eps-yy      eps-zz      eps-xy      eps-yz      eps-zx                            yield
 num/ipt   state
      45-      1
      1            8.6778E-03  5.4227E-03 -1.5843E-02  2.0342E-03 -1.7890E-03 -3.9962E-03
      47-      1
      1            5.7333E-03  7.2687E-03 -1.5033E-02  2.9596E-03 -3.6676E-03 -2.4399E-03
      53-      1
      1            7.6834E-03  6.9042E-03 -1.6280E-02  3.0193E-03 -3.3523E-03 -3.7620E-03
      61-      1
      1            9.7355E-03  3.2658E-03 -1.5435E-02 -6.3212E-04 -3.8089E-04 -3.9101E-03
      67-      1
      1            3.8034E-03  7.6982E-03 -1.4027E-02  1.8794E-03 -3.5836E-03 -8.3961E-04
      79-      1
      1            8.5612E-04  9.0265E-04 -5.0816E-03 -2.5645E-05  8.9479E-06 -1.2831E-04
      81-      1
      1            3.1862E-03  8.9608E-03 -1.4475E-02  2.4976E-04 -4.2528E-03 -1.8568E-04



 e l e m e n t   s t r e s s   c a l c u l a t i o n s   f o r   t i m e  s t e p      530   ( at time 1.06940E+01 )

 element  materl
     ipt  stress       sig-xx      sig-yy      sig-zz      sig-xy      sig-yz      sig-zx                       yield
           state                                                                                  effsg      function
      45-      1
       1          -6.0360E+07 -7.4850E+07 -2.5393E+08  2.1673E+07 -1.3388E+07 -3.2221E+07    1.9984E+08    1.8212E-02
      47-      1
       1          -8.6942E+07 -8.3749E+07 -2.9495E+08  2.5867E+07 -3.3906E+07 -1.6507E+07    2.2409E+08    1.7013E-02
      53-      1
       1          -7.2916E+07 -8.4783E+07 -2.5789E+08  2.1827E+07 -2.3010E+07 -2.1417E+07    1.9119E+08    2.3036E-02
      61-      1
       1          -7.5787E+07 -1.3607E+08 -3.0330E+08 -1.2480E+07  9.2956E+05 -3.2426E+07    2.1285E+08    2.2077E-02
      67-      1
       1          -1.2863E+08 -8.5847E+07 -3.2863E+08  1.6747E+07 -3.4571E+07 -5.2115E+06    2.3430E+08    1.2278E-02
      79-      1
       1          -1.6141E+08 -1.5999E+08 -4.0355E+08 -2.4221E+05 -9.0584E+05 -3.0597E+06    2.4292E+08    7.3168E-04
      81-      1
       1          -1.3745E+08 -8.9532E+07 -2.6965E+08  1.3319E+06 -2.0348E+07 -7.8734E+05    1.6540E+08    2.1259E-02



 e l e m e n t   s t r a i n   c a l c u l a t i o n s   f o r   t i m e  s t e p      530   ( at time  1.06940E+01 )

 element  strain       eps-xx      eps-yy      eps-zz      eps-xy      eps-yz      eps-zx                            yield
 num/ipt   state
      45-      1
      1            8.9310E-03  5.6169E-03 -1.6435E-02  2.1615E-03 -1.8508E-03 -4.1358E-03
      47-      1
      1            5.9020E-03  7.4314E-03 -1.5566E-02  3.0379E-03 -3.7625E-03 -2.5034E-03
      53-      1
      1            7.8352E-03  6.9814E-03 -1.6837E-02  3.0888E-03 -3.4276E-03 -3.8341E-03
      61-      1
      1            1.0130E-02  3.4650E-03 -1.6080E-02 -5.7884E-04 -4.1714E-04 -4.0296E-03
      67-      1
      1            3.9746E-03  7.9771E-03 -1.4547E-02  1.9463E-03 -3.6861E-03 -9.0396E-04
      79-      1
      1            8.8525E-04  9.3205E-04 -5.2467E-03 -2.0398E-05  2.8529E-06 -1.2671E-04
      81-      1
      1            3.3168E-03  9.2243E-03 -1.4932E-02  2.9865E-04 -4.3312E-03 -2.0945E-04



 e l e m e n t   s t r e s s   c a l c u l a t i o n s   f o r   t i m e  s t e p      534   ( at time 1.14262E+01 )

 element  materl
     ipt  stress       sig-xx      sig-yy      sig-zz      sig-xy      sig-yz      sig-zx                       yield
           state                                                                                  effsg      function
      45-      1
       1          -6.2543E+07 -8.3399E+07 -2.9227E+08  2.3191E+07 -1.5509E+07 -3.8578E+07    2.3498E+08    1.9103E-02
      47-      1
       1          -8.6818E+07 -7.9142E+07 -3.2584E+08  2.9646E+07 -3.6228E+07 -1.7496E+07    2.5791E+08    1.7513E-02
      53-      1
       1          -7.7776E+07 -9.3130E+07 -3.2028E+08  2.8666E+07 -2.6407E+07 -2.6882E+07    2.4909E+08    2.3135E-02
      61-      1
       1          -7.9717E+07 -1.3902E+08 -3.3416E+08 -6.2198E+06 -3.2688E+06 -3.5672E+07    2.3903E+08    2.3020E-02
      67-      1
       1          -1.2490E+08 -8.3983E+07 -3.4219E+08  1.8074E+07 -3.6231E+07 -8.3405E+06    2.5081E+08    1.3162E-02
      79-      1
       1          -1.7168E+08 -1.6897E+08 -4.2189E+08  1.0630E+05 -1.1312E+06 -2.5660E+06    2.5162E+08    1.0242E-03
      81-      1
       1          -1.3011E+08 -7.6551E+07 -3.0619E+08  6.5767E+06 -2.3090E+07 -3.2882E+06    2.1229E+08    2.1524E-02



 e l e m e n t   s t r a i n   c a l c u l a t i o n s   f o r   t i m e  s t e p      534   ( at time  1.14262E+01 )

 element  strain       eps-xx      eps-yy      eps-zz      eps-xy      eps-yz      eps-zx                            yield
 num/ipt   state
      45-      1
      1            9.4836E-03  5.9654E-03 -1.7569E-02  2.2950E-03 -1.9494E-03 -4.4148E-03
      47-      1
      1            6.2391E-03  7.8826E-03 -1.6479E-02  3.1911E-03 -3.9338E-03 -2.5635E-03
      53-      1
      1            8.1432E-03  7.2284E-03 -1.7750E-02  3.2385E-03 -3.5307E-03 -3.9528E-03
      61-      1
      1            1.0742E-02  3.8092E-03 -1.7216E-02 -4.8544E-04 -5.2203E-04 -4.2444E-03
      67-      1
      1            4.3735E-03  8.5270E-03 -1.5534E-02  2.0626E-03 -3.8802E-03 -1.0077E-03
      79-      1
      1            1.0111E-03  1.0901E-03 -5.7084E-03 -1.4053E-05 -8.2078E-06 -1.3387E-04
      81-      1
      1            3.5999E-03  9.6966E-03 -1.5765E-02  4.1192E-04 -4.4249E-03 -2.5864E-04



 e l e m e n t   s t r e s s   c a l c u l a t i o n s   f o r   t i m e  s t e p      661   ( at time 1.25866E+01 )

 element  materl
     ipt  stress       sig-xx      sig-yy      sig-zz      sig-xy      sig-yz      sig-zx                       yield
           state                                                                                  effsg      function
      45-      1
       1          -4.8651E+07 -6.0183E+07 -2.9049E+08  2.1367E+07 -1.3853E+07 -3.7582E+07    2.4903E+08    2.3989E-02
      47-      1
       1          -7.1423E+07 -5.7050E+07 -3.2377E+08  2.6200E+07 -3.5680E+07 -1.8518E+07    2.7280E+08    2.1284E-02
      53-      1
       1          -5.8861E+07 -6.4892E+07 -3.2329E+08  2.6130E+07 -2.8031E+07 -3.2310E+07    2.7550E+08    2.7250E-02
      61-      1
       1          -9.1120E+07 -1.4257E+08 -3.3162E+08 -8.3792E+06 -4.3838E+06 -3.1953E+07    2.2681E+08    2.9100E-02
      67-      1
       1          -1.1157E+08 -6.8729E+07 -3.3198E+08  1.6988E+07 -3.1537E+07 -4.5736E+06    2.5253E+08    1.6822E-02
      79-      1
       1          -1.8163E+08 -1.8420E+08 -4.4206E+08 -1.8683E+06 -1.4620E+06 -2.4087E+06    2.5922E+08    2.8480E-03
      81-      1
       1          -1.0815E+08 -5.0290E+07 -3.0956E+08  8.1753E+06 -2.3883E+07 -9.1450E+05    2.3976E+08    2.4791E-02



 e l e m e n t   s t r a i n   c a l c u l a t i o n s   f o r   t i m e  s t e p      661   ( at time  1.25866E+01 )

 element  strain       eps-xx      eps-yy      eps-zz      eps-xy      eps-yz      eps-zx                            yield
 num/ipt   state
      45-      1
      1            1.1729E-02  8.0894E-03 -2.1770E-02  2.8083E-03 -2.2681E-03 -5.3300E-03
      47-      1
      1            7.9143E-03  9.9902E-03 -2.0085E-02  3.6451E-03 -4.6206E-03 -2.9324E-03
      53-      1
      1            1.0222E-02  9.3709E-03 -2.1776E-02  3.7578E-03 -4.1069E-03 -4.7117E-03
      61-      1
      1            1.3593E-02  5.1345E-03 -2.1460E-02 -9.2711E-04 -6.6675E-04 -4.9158E-03
      67-      1
      1            5.5976E-03  1.0634E-02 -1.8689E-02  2.3741E-03 -4.3361E-03 -1.0280E-03
      79-      1
      1            1.9618E-03  1.9123E-03 -7.6981E-03 -7.3332E-05 -2.9268E-05 -1.6219E-04
      81-      1
      1            4.6091E-03  1.1813E-02 -1.8684E-02  5.9027E-04 -4.6043E-03 -2.2536E-04



 e l e m e n t   s t r e s s   c a l c u l a t i o n s   f o r   t i m e  s t e p      665   ( at time 1.31681E+01 )

 element  materl
     ipt  stress       sig-xx      sig-yy      sig-zz      sig-xy      sig-yz      sig-zx                       yield
           state                                                                                  effsg      function
      45-      1
       1          -5.4515E+07 -6.9288E+07 -2.8817E+08  2.2440E+07 -1.5578E+07 -3.5872E+07    2.3971E+08    2.5328E-02
      47-      1
       1          -8.3730E+07 -6.8480E+07 -3.3882E+08  2.9154E+07 -3.5316E+07 -1.8173E+07    2.7654E+08    2.1935E-02
      53-      1
       1          -7.4005E+07 -8.9229E+07 -3.4590E+08  2.9067E+07 -2.9195E+07 -3.0183E+07    2.7901E+08    2.7873E-02
      61-      1
       1          -8.4796E+07 -1.3763E+08 -3.2090E+08 -9.0190E+06 -4.9794E+06 -3.2205E+07    2.2246E+08    3.0561E-02
      67-      1
       1          -1.1691E+08 -7.3725E+07 -3.4369E+08  1.8999E+07 -3.2112E+07 -6.3418E+06    2.5958E+08    1.7523E-02
      79-      1
       1          -1.9482E+08 -1.8836E+08 -4.5072E+08 -2.0054E+06 -1.0182E+05 -2.1663E+06    2.5924E+08    3.0770E-03
      81-      1
       1          -1.0536E+08 -4.3096E+07 -3.2924E+08  1.0605E+07 -2.6812E+07 -2.2629E+06    2.6542E+08    2.5112E-02



 e l e m e n t   s t r a i n   c a l c u l a t i o n s   f o r   t i m e  s t e p      665   ( at time  1.31681E+01 )

 element  strain       eps-xx      eps-yy      eps-zz      eps-xy      eps-yz      eps-zx                            yield
 num/ipt   state
      45-      1
      1            1.2204E-02  8.4046E-03 -2.2621E-02  2.9721E-03 -2.3785E-03 -5.5631E-03
      47-      1
      1            8.1378E-03  1.0277E-02 -2.0778E-02  3.7975E-03 -4.7606E-03 -2.9898E-03
      53-      1
      1            1.0528E-02  9.4640E-03 -2.2468E-02  3.9071E-03 -4.2498E-03 -4.7824E-03
      61-      1
      1            1.4346E-02  5.4536E-03 -2.2429E-02 -1.0019E-03 -7.3361E-04 -5.1231E-03
      67-      1
      1            5.8346E-03  1.1031E-02 -1.9427E-02  2.4849E-03 -4.4707E-03 -1.0902E-03
      79-      1
      1            1.9431E-03  2.0736E-03 -7.9636E-03 -7.9121E-05 -2.5434E-06 -1.6069E-04
      81-      1
      1            4.7976E-03  1.2185E-02 -1.9292E-02  6.5312E-04 -4.7198E-03 -2.5397E-04



 e l e m e n t   s t r e s s   c a l c u l a t i o n s   f o r   t i m e  s t e p      986   ( at time 1.33667E+01 )

 element  materl
     ipt  stress       sig-xx      sig-yy      sig-zz      sig-xy      sig-yz      sig-zx                       yield
           state                                                                                  effsg      function
      45-      1
       1          -5.6625E+07 -7.2733E+07 -2.9087E+08  2.2625E+07 -1.4901E+07 -3.4925E+07    2.3920E+08    2.6054E-02
      47-      1
       1          -8.2334E+07 -6.8580E+07 -3.3258E+08  2.8907E+07 -3.4151E+07 -1.9014E+07    2.7082E+08    2.2636E-02
      53-      1
       1          -7.7801E+07 -9.2776E+07 -3.3278E+08  2.8840E+07 -2.7003E+07 -2.8332E+07    2.6175E+08    2.8805E-02
      61-      1
       1          -7.1755E+07 -1.2739E+08 -3.2375E+08 -5.6848E+06 -6.5501E+06 -2.9540E+07    2.3542E+08    3.1003E-02
      67-      1
       1          -1.1259E+08 -7.1950E+07 -3.4718E+08  1.8838E+07 -3.3167E+07 -8.8957E+06    2.6612E+08    1.8035E-02
      79-      1
       1          -1.9798E+08 -1.9319E+08 -4.5638E+08 -8.6977E+05 -7.1383E+05 -2.8181E+06    2.6088E+08    3.3518E-03
      81-      1
       1          -9.7150E+07 -3.9509E+07 -3.3404E+08  1.0865E+07 -2.9920E+07 -2.9523E+06    2.7597E+08    2.5547E-02



 e l e m e n t   s t r a i n   c a l c u l a t i o n s   f o r   t i m e  s t e p      986   ( at time  1.33667E+01 )

 element  strain       eps-xx      eps-yy      eps-zz      eps-xy      eps-yz      eps-zx                            yield
 num/ipt   state
      45-      1
      1            1.2516E-02  8.6384E-03 -2.3206E-02  3.0594E-03 -2.4393E-03 -5.6839E-03
      47-      1
      1            8.4192E-03  1.0577E-02 -2.1324E-02  3.8986E-03 -4.8724E-03 -3.0774E-03
      53-      1
      1            1.0856E-02  9.7230E-03 -2.3028E-02  4.0395E-03 -4.3621E-03 -4.8954E-03
      61-      1
      1            1.4734E-02  5.6496E-03 -2.2917E-02 -9.6225E-04 -7.9464E-04 -5.1218E-03
      67-      1
      1            6.0831E-03  1.1340E-02 -1.9973E-02  2.5354E-03 -4.5779E-03 -1.1614E-03
      79-      1
      1            2.0796E-03  2.1868E-03 -8.2778E-03 -5.8812E-05 -1.5131E-05 -1.7935E-04
      81-      1
      1            5.0605E-03  1.2487E-02 -1.9824E-02  6.7990E-04 -4.8398E-03 -2.7474E-04



 e l e m e n t   s t r e s s   c a l c u l a t i o n s   f o r   t i m e  s t e p      990   ( at time 1.36815E+01 )

 element  materl
     ipt  stress       sig-xx      sig-yy      sig-zz      sig-xy      sig-yz      sig-zx                       yield
           state                                                                                  effsg      function
      45-      1
       1          -6.2848E+07 -8.1020E+07 -3.0046E+08  2.2944E+07 -1.3308E+07 -3.3551E+07    2.4075E+08    2.6830E-02
      47-      1
       1          -8.5185E+07 -7.3142E+07 -3.2922E+08  2.8369E+07 -3.2486E+07 -2.0572E+07    2.6360E+08    2.3566E-02
      53-      1
       1          -8.7042E+07 -1.0034E+08 -3.2523E+08  2.7887E+07 -2.4697E+07 -2.6887E+07    2.4510E+08    2.9996E-02
      61-      1
       1          -6.5289E+07 -1.2342E+08 -3.3276E+08 -1.5069E+06 -8.0114E+06 -2.8827E+07    2.4912E+08    3.1427E-02
      67-      1
       1          -1.1169E+08 -7.2185E+07 -3.5164E+08  1.8939E+07 -3.4083E+07 -1.1266E+07    2.7121E+08    1.8705E-02
      79-      1
       1          -2.0189E+08 -2.0021E+08 -4.6322E+08  9.4125E+04 -1.2210E+06 -2.9658E+06    2.6224E+08    3.6499E-03
      81-      1
       1          -9.1706E+07 -3.9590E+07 -3.2589E+08  9.5427E+06 -3.1538E+07 -2.5603E+06    2.7026E+08    2.6474E-02



 e l e m e n t   s t r a i n   c a l c u l a t i o n s   f o r   t i m e  s t e p      990   ( at time  1.36815E+01 )

 element  strain       eps-xx      eps-yy      eps-zz      eps-xy      eps-yz      eps-zx                            yield
 num/ipt   state
      45-      1
      1            1.2853E-02  8.8748E-03 -2.3893E-02  3.1605E-03 -2.4987E-03 -5.8003E-03
      47-      1
      1            8.7627E-03  1.0938E-02 -2.2048E-02  4.0272E-03 -5.0037E-03 -3.2083E-03
      53-      1
      1            1.1237E-02  1.0049E-02 -2.3778E-02  4.1906E-03 -4.4921E-03 -5.0439E-03
      61-      1
      1            1.5095E-02  5.8193E-03 -2.3441E-02 -8.9954E-04 -8.4833E-04 -5.1557E-03
      67-      1
      1            6.3584E-03  1.1731E-02 -2.0658E-02  2.6076E-03 -4.7116E-03 -1.2438E-03
      79-      1
      1            2.2358E-03  2.2874E-03 -8.6186E-03 -3.9946E-05 -2.6259E-05 -1.8733E-04
      81-      1
      1            5.3928E-03  1.2960E-02 -2.0565E-02  7.0565E-04 -5.0025E-03 -2.8637E-04



 e l e m e n t   s t r e s s   c a l c u l a t i o n s   f o r   t i m e  s t e p     1100   ( at time 1.41803E+01 )

 element  materl
     ipt  stress       sig-xx      sig-yy      sig-zz      sig-xy      sig-yz      sig-zx                       yield
           state                                                                                  effsg      function
      45-      1
       1          -4.3631E+07 -5.1688E+07 -3.0383E+08  1.0999E+07 -1.7355E+07 -2.8861E+07    2.6351E+08    2.8033E-02
      47-      1
       1          -8.6397E+07 -6.2994E+07 -3.2408E+08  1.0400E+07 -2.9486E+07 -1.0125E+07    2.5660E+08    2.4748E-02
      53-      1
       1          -6.7465E+07 -7.2709E+07 -3.2368E+08  1.5907E+07 -2.4241E+07 -1.2464E+07    2.5945E+08    3.0750E-02
      61-      1
       1          -7.6926E+07 -1.1663E+08 -3.4236E+08  7.7726E+06 -1.1272E+07 -2.4125E+07    2.5259E+08    3.2603E-02
      67-      1
       1          -1.0661E+08 -6.9979E+07 -3.3200E+08  9.9855E+06 -2.8675E+07 -9.1135E+06    2.5182E+08    2.0449E-02
      79-      1
       1          -2.2736E+08 -2.1302E+08 -4.8528E+08  3.7372E+05 -3.8639E+06 -4.0501E+06    2.6556E+08    5.1719E-03
      81-      1
       1          -7.7439E+07 -4.0093E+07 -3.1873E+08  1.0583E+07 -3.0329E+07 -1.9224E+06    2.6783E+08    2.8033E-02



 e l e m e n t   s t r a i n   c a l c u l a t i o n s   f o r   t i m e  s t e p     1100   ( at time  1.41803E+01 )

 element  strain       eps-xx      eps-yy      eps-zz      eps-xy      eps-yz      eps-zx                            yield
 num/ipt   state
      45-      1
      1            1.3547E-02  9.7224E-03 -2.5222E-02  3.0015E-03 -2.6841E-03 -5.8954E-03
      47-      1
      1            9.1160E-03  1.1667E-02 -2.3065E-02  3.7561E-03 -5.0693E-03 -3.0466E-03
      53-      1
      1            1.1720E-02  1.0662E-02 -2.4644E-02  4.0308E-03 -4.5065E-03 -4.8054E-03
      61-      1
      1            1.5586E-02  6.3024E-03 -2.4483E-02 -7.5530E-04 -7.4274E-04 -5.1364E-03
      67-      1
      1            6.9011E-03  1.2561E-02 -2.1904E-02  2.5325E-03 -4.8240E-03 -1.2819E-03
      79-      1
      1            2.7318E-03  3.1489E-03 -1.0263E-02 -3.1383E-05 -1.0806E-04 -2.4296E-04
      81-      1
      1            6.0948E-03  1.3697E-02 -2.1907E-02  8.0516E-04 -5.1970E-03 -2.6923E-04



 e l e m e n t   s t r e s s   c a l c u l a t i o n s   f o r   t i m e  s t e p     1104   ( at time 1.44303E+01 )

 element  materl
     ipt  stress       sig-xx      sig-yy      sig-zz      sig-xy      sig-yz      sig-zx                       yield
           state                                                                                  effsg      function
      45-      1
       1          -5.3685E+07 -7.1642E+07 -3.1588E+08  1.8274E+07 -1.4042E+07 -3.4109E+07    2.6352E+08    2.8898E-02
      47-      1
       1          -7.8611E+07 -6.7005E+07 -3.2445E+08  2.3515E+07 -3.1541E+07 -1.9783E+07    2.6314E+08    2.5838E-02
      53-      1
       1          -7.8011E+07 -8.4143E+07 -3.3336E+08  2.4405E+07 -2.6399E+07 -2.5059E+07    2.6351E+08    3.1884E-02
      61-      1
       1          -5.6380E+07 -1.1406E+08 -3.4367E+08  1.5763E+06 -1.1027E+07 -2.6301E+07    2.6784E+08    3.3310E-02
      67-      1
       1          -1.0098E+08 -6.5535E+07 -3.3936E+08  1.6569E+07 -3.2571E+07 -1.1561E+07    2.6634E+08    2.1129E-02
      79-      1
       1          -2.1832E+08 -2.1361E+08 -4.7978E+08  4.9038E+05 -2.8843E+06 -3.1478E+06    2.6396E+08    5.1724E-03
      81-      1
       1          -7.5116E+07 -2.6546E+07 -3.1823E+08  9.7892E+06 -3.1081E+07 -2.1227E+06    2.7653E+08    2.8617E-02



 e l e m e n t   s t r a i n   c a l c u l a t i o n s   f o r   t i m e  s t e p     1104   ( at time  1.44303E+01 )

 element  strain       eps-xx      eps-yy      eps-zz      eps-xy      eps-yz      eps-zx                            yield
 num/ipt   state
      45-      1
      1            1.3976E-02  9.8725E-03 -2.6000E-02  3.2121E-03 -2.6796E-03 -6.1611E-03
      47-      1
      1            9.6895E-03  1.2078E-02 -2.4033E-02  4.1361E-03 -5.3253E-03 -3.3499E-03
      53-      1
      1            1.2176E-02  1.1057E-02 -2.5646E-02  4.3310E-03 -4.7477E-03 -5.1940E-03
      61-      1
      1            1.6289E-02  6.4590E-03 -2.5240E-02 -8.6665E-04 -8.4617E-04 -5.2829E-03
      67-      1
      1            7.2431E-03  1.2993E-02 -2.2666E-02  2.7216E-03 -5.0315E-03 -1.3694E-03
      79-      1
      1            2.8378E-03  3.0710E-03 -1.0225E-02 -2.9150E-05 -8.9429E-05 -2.2616E-04
      81-      1
      1            6.2594E-03  1.4214E-02 -2.2512E-02  8.1945E-04 -5.3150E-03 -2.9394E-04



 e l e m e n t   s t r e s s   c a l c u l a t i o n s   f o r   t i m e  s t e p     1108   ( at time 1.48265E+01 )

 element  materl
     ipt  stress       sig-xx      sig-yy      sig-zz      sig-xy      sig-yz      sig-zx                       yield
           state                                                                                  effsg      function
      45-      1
       1          -6.2858E+07 -8.4316E+07 -3.2275E+08  2.0439E+07 -1.2376E+07 -3.3126E+07    2.5967E+08    2.9935E-02
      47-      1
       1          -8.3533E+07 -7.2973E+07 -3.2891E+08  2.5705E+07 -3.1895E+07 -2.1657E+07    2.6335E+08    2.6793E-02
      53-      1
       1          -8.7963E+07 -9.7522E+07 -3.3418E+08  2.4551E+07 -2.5239E+07 -2.6238E+07    2.5327E+08    3.3125E-02
      61-      1
       1          -5.5179E+07 -1.1270E+08 -3.4609E+08  5.2082E+06 -1.1535E+07 -2.5904E+07    2.7147E+08    3.4116E-02
      67-      1
       1          -1.0134E+08 -6.4690E+07 -3.4566E+08  1.8824E+07 -3.3874E+07 -1.3155E+07    2.7389E+08    2.1895E-02
      79-      1
       1          -2.1966E+08 -2.1559E+08 -4.8276E+08  1.0773E+06 -2.7670E+06 -3.1768E+06    2.6527E+08    5.4217E-03
      81-      1
       1          -7.2936E+07 -2.5066E+07 -3.0793E+08  9.0827E+06 -3.1622E+07 -1.5650E+06    2.6836E+08    2.9722E-02



 e l e m e n t   s t r a i n   c a l c u l a t i o n s   f o r   t i m e  s t e p     1108   ( at time  1.48265E+01 )

 element  strain       eps-xx      eps-yy      eps-zz      eps-xy      eps-yz      eps-zx                            yield
 num/ipt   state
      45-      1
      1            1.4435E-02  1.0153E-02 -2.6876E-02  3.3615E-03 -2.7331E-03 -6.3245E-03
      47-      1
      1            1.0061E-02  1.2474E-02 -2.4874E-02  4.3063E-03 -5.4939E-03 -3.4936E-03
      53-      1
      1            1.2645E-02  1.1393E-02 -2.6566E-02  4.4881E-03 -4.9002E-03 -5.3868E-03
      61-      1
      1            1.6787E-02  6.7363E-03 -2.6015E-02 -7.7009E-04 -9.2971E-04 -5.3717E-03
      67-      1
      1            7.5454E-03  1.3462E-02 -2.3465E-02  2.8437E-03 -5.1893E-03 -1.4508E-03
      79-      1
      1            2.9629E-03  3.1894E-03 -1.0498E-02 -1.6319E-05 -9.1225E-05 -2.3120E-04
      81-      1
      1            6.5873E-03  1.4795E-02 -2.3355E-02  8.6367E-04 -5.4938E-03 -3.0020E-04



 e l e m e n t   s t r e s s   c a l c u l a t i o n s   f o r   t i m e  s t e p     1402   ( at time 1.51180E+01 )

 element  materl
     ipt  stress       sig-xx      sig-yy      sig-zz      sig-xy      sig-yz      sig-zx                       yield
           state                                                                                  effsg      function
      45-      1
       1          -6.7942E+07 -9.7314E+07 -3.0731E+08  3.9816E+06 -1.1337E+07 -2.9204E+07    2.3263E+08    3.3732E-02
      47-      1
       1          -6.2521E+07 -4.9952E+07 -3.0838E+08  1.7592E+07 -2.8845E+07 -3.2558E+07    2.6514E+08    2.9209E-02
      53-      1
       1          -6.5209E+07 -5.8301E+07 -3.2179E+08  1.7017E+07 -2.2106E+07 -3.1885E+07    2.7026E+08    3.5387E-02
      61-      1
       1          -6.5656E+07 -8.4868E+07 -2.6611E+08  1.9724E+07 -6.8632E+06 -2.0014E+07    1.9801E+08    3.8887E-02
      67-      1
       1          -7.6613E+07 -4.4667E+07 -3.2086E+08  1.1246E+07 -3.6346E+07 -1.9346E+07    2.7193E+08    2.4503E-02
      79-      1
       1          -2.1965E+08 -2.2956E+08 -4.8015E+08  4.4481E+06 -5.7457E+06 -4.0931E+06    2.5610E+08    7.5655E-03
      81-      1
       1          -4.2970E+07 -1.7018E+07 -2.5008E+08  2.0695E+06 -3.5785E+07 -2.5533E+06    2.2982E+08    3.4756E-02



 e l e m e n t   s t r a i n   c a l c u l a t i o n s   f o r   t i m e  s t e p     1402   ( at time  1.51180E+01 )

 element  strain       eps-xx      eps-yy      eps-zz      eps-xy      eps-yz      eps-zx                            yield
 num/ipt   state
      45-      1
      1            1.6049E-02  1.0911E-02 -2.9266E-02  3.0276E-03 -2.6456E-03 -6.6232E-03
      47-      1
      1            1.1137E-02  1.3737E-02 -2.6910E-02  4.3860E-03 -5.7424E-03 -4.0645E-03
      53-      1
      1            1.3667E-02  1.2834E-02 -2.8681E-02  4.5495E-03 -5.0875E-03 -5.8599E-03
      61-      1
      1            1.7879E-02  8.1992E-03 -2.8113E-02  1.0849E-04 -1.0373E-03 -5.3003E-03
      67-      1
      1            8.6525E-03  1.4912E-02 -2.5696E-02  2.8798E-03 -5.6894E-03 -1.8081E-03
      79-      1
      1            4.0794E-03  3.9196E-03 -1.2400E-02  9.9054E-05 -1.9686E-04 -3.0904E-04
      81-      1
      1            8.1916E-03  1.6627E-02 -2.6342E-02  8.4354E-04 -6.4934E-03 -4.0832E-04



 e l e m e n t   s t r e s s   c a l c u l a t i o n s   f o r   t i m e  s t e p     1406   ( at time 1.52641E+01 )

 element  materl
     ipt  stress       sig-xx      sig-yy      sig-zz      sig-xy      sig-yz      sig-zx                       yield
           state                                                                                  effsg      function
      45-      1
       1          -7.1749E+07 -9.6470E+07 -3.0831E+08  7.1968E+06 -1.1012E+07 -3.0150E+07    2.3232E+08    3.3778E-02
      47-      1
       1          -6.6420E+07 -5.4478E+07 -3.1325E+08  1.8626E+07 -2.8430E+07 -3.0085E+07    2.6495E+08    2.9286E-02
      53-      1
       1          -7.2478E+07 -6.7303E+07 -3.2615E+08  1.7119E+07 -2.1506E+07 -3.0319E+07    2.6592E+08    3.5446E-02
      61-      1
       1          -7.7270E+07 -9.4652E+07 -2.7759E+08  1.5164E+07 -9.9472E+06 -2.0929E+07    1.9812E+08    3.8887E-02
      67-      1
       1          -7.7692E+07 -4.6595E+07 -3.2635E+08  1.1420E+07 -3.6021E+07 -1.8756E+07    2.7545E+08    2.4593E-02
      79-      1
       1          -2.2170E+08 -2.2923E+08 -4.8373E+08  4.5041E+06 -5.3940E+06 -4.7033E+06    2.5877E+08    7.6326E-03
      81-      1
       1          -4.5777E+07 -1.8347E+07 -2.5923E+08  2.3212E+06 -3.4846E+07 -1.9325E+06    2.3631E+08    3.4791E-02



 e l e m e n t   s t r a i n   c a l c u l a t i o n s   f o r   t i m e  s t e p     1406   ( at time  1.52641E+01 )

 element  strain       eps-xx      eps-yy      eps-zz      eps-xy      eps-yz      eps-zx                            yield
 num/ipt   state
      45-      1
      1            1.6018E-02  1.0964E-02 -2.9308E-02  3.0920E-03 -2.6446E-03 -6.6534E-03
      47-      1
      1            1.1158E-02  1.3748E-02 -2.7005E-02  4.4121E-03 -5.7524E-03 -4.0334E-03
      53-      1
      1            1.3654E-02  1.2786E-02 -2.8717E-02  4.5560E-03 -5.0794E-03 -5.8391E-03
      61-      1
      1            1.7816E-02  8.1696E-03 -2.8176E-02  2.3083E-05 -1.0999E-03 -5.3241E-03
      67-      1
      1            8.7073E-03  1.4964E-02 -2.5843E-02  2.8871E-03 -5.7040E-03 -1.8078E-03
      79-      1
      1            4.0998E-03  3.9829E-03 -1.2509E-02  1.0191E-04 -1.9273E-04 -3.2140E-04
      81-      1
      1            8.2150E-03  1.6682E-02 -2.6483E-02  8.4848E-04 -6.4745E-03 -3.9723E-04



 e l e m e n t   s t r e s s   c a l c u l a t i o n s   f o r   t i m e  s t e p     1410   ( at time 1.54956E+01 )

 element  materl
     ipt  stress       sig-xx      sig-yy      sig-zz      sig-xy      sig-yz      sig-zx                       yield
           state                                                                                  effsg      function
      45-      1
       1          -7.6443E+07 -9.8045E+07 -3.1818E+08  1.0864E+07 -1.0184E+07 -3.1033E+07    2.3924E+08    3.4053E-02
      47-      1
       1          -6.9779E+07 -5.9765E+07 -3.1372E+08  1.9420E+07 -2.8214E+07 -2.8947E+07    2.6093E+08    2.9882E-02
      53-      1
       1          -8.0444E+07 -7.7351E+07 -3.2486E+08  1.7721E+07 -2.0624E+07 -2.9144E+07    2.5548E+08    3.6108E-02
      61-      1
       1          -6.8469E+07 -9.1811E+07 -2.9455E+08  1.3829E+07 -1.0051E+07 -2.3688E+07    2.2122E+08    3.8887E-02
      67-      1
       1          -7.8707E+07 -4.7710E+07 -3.2866E+08  1.2179E+07 -3.6028E+07 -1.8818E+07    2.7674E+08    2.5084E-02
      79-      1
       1          -2.2570E+08 -2.3298E+08 -4.8813E+08  4.7999E+06 -5.5136E+06 -5.1526E+06    2.5933E+08    7.8030E-03
      81-      1
       1          -4.4308E+07 -1.5877E+07 -2.5998E+08  2.7353E+06 -3.5504E+07 -1.9302E+06    2.3931E+08    3.5393E-02



 e l e m e n t   s t r a i n   c a l c u l a t i o n s   f o r   t i m e  s t e p     1410   ( at time  1.54956E+01 )

 element  strain       eps-xx      eps-yy      eps-zz      eps-xy      eps-yz      eps-zx                            yield
 num/ipt   state
      45-      1
      1            1.6133E-02  1.1121E-02 -2.9656E-02  3.1842E-03 -2.6745E-03 -6.7102E-03
      47-      1
      1            1.1379E-02  1.3956E-02 -2.7478E-02  4.4870E-03 -5.8395E-03 -4.0994E-03
      53-      1
      1            1.3853E-02  1.2955E-02 -2.9164E-02  4.6275E-03 -5.1354E-03 -5.9129E-03
      61-      1
      1            1.8009E-02  8.2491E-03 -2.8474E-02 -2.0427E-06 -1.1036E-03 -5.3803E-03
      67-      1
      1            8.8977E-03  1.5230E-02 -2.6321E-02  2.9342E-03 -5.7960E-03 -1.8563E-03
      79-      1
      1            4.1662E-03  4.0474E-03 -1.2697E-02  1.1214E-04 -2.0056E-04 -3.3508E-04
      81-      1
      1            8.4171E-03  1.6987E-02 -2.6975E-02  8.6828E-04 -6.5917E-03 -4.0442E-04



 e l e m e n t   s t r e s s   c a l c u l a t i o n s   f o r   t i m e  s t e p     1414   ( at time 1.58625E+01 )

 element  materl
     ipt  stress       sig-xx      sig-yy      sig-zz      sig-xy      sig-yz      sig-zx                       yield
           state                                                                                  effsg      function
      45-      1
       1          -7.8223E+07 -1.0023E+08 -3.3519E+08  1.4306E+07 -9.2077E+06 -3.3359E+07    2.5508E+08    3.4463E-02
      47-      1
       1          -7.8426E+07 -6.9231E+07 -3.2099E+08  2.0980E+07 -2.7471E+07 -2.7982E+07    2.5901E+08    3.0509E-02
      53-      1
       1          -8.9634E+07 -9.0165E+07 -3.2712E+08  1.8923E+07 -1.9690E+07 -2.7985E+07    2.4670E+08    3.6910E-02
      61-      1
       1          -6.4120E+07 -9.2537E+07 -3.2184E+08  1.4838E+07 -1.1902E+07 -2.5504E+07    2.5088E+08    3.9011E-02
      67-      1
       1          -8.6527E+07 -5.4875E+07 -3.3674E+08  1.3669E+07 -3.5417E+07 -1.8365E+07    2.7725E+08    2.5655E-02
      79-      1
       1          -2.2826E+08 -2.3382E+08 -4.8976E+08  4.9334E+06 -5.4598E+06 -5.1932E+06    2.5923E+08    8.0051E-03
      81-      1
       1          -4.9452E+07 -1.9787E+07 -2.6296E+08  3.4131E+06 -3.5266E+07 -1.7470E+06    2.3785E+08    3.6271E-02



 e l e m e n t   s t r a i n   c a l c u l a t i o n s   f o r   t i m e  s t e p     1414   ( at time  1.58625E+01 )

 element  strain       eps-xx      eps-yy      eps-zz      eps-xy      eps-yz      eps-zx                            yield
 num/ipt   state
      45-      1
      1            1.6379E-02  1.1339E-02 -3.0220E-02  3.2889E-03 -2.7195E-03 -6.8151E-03
      47-      1
      1            1.1588E-02  1.4172E-02 -2.8023E-02  4.5840E-03 -5.9204E-03 -4.1729E-03
      53-      1
      1            1.4121E-02  1.3146E-02 -2.9738E-02  4.7255E-03 -5.1968E-03 -6.0075E-03
      61-      1
      1            1.8261E-02  8.3808E-03 -2.8970E-02  1.4479E-05 -1.1400E-03 -5.4646E-03
      67-      1
      1            9.0779E-03  1.5513E-02 -2.6893E-02  3.0050E-03 -5.8940E-03 -1.9031E-03
      79-      1
      1            4.2401E-03  4.1484E-03 -1.2896E-02  1.2008E-04 -2.0655E-04 -3.4250E-04
      81-      1
      1            8.6458E-03  1.7364E-02 -2.7639E-02  9.0386E-04 -6.7476E-03 -4.1117E-04



 e l e m e n t   s t r e s s   c a l c u l a t i o n s   f o r   t i m e  s t e p     1489   ( at time 1.64441E+01 )

 element  materl
     ipt  stress       sig-xx      sig-yy      sig-zz      sig-xy      sig-yz      sig-zx                       yield
           state                                                                                  effsg      function
      45-      1
       1          -3.9418E+07 -3.1158E+07 -2.1311E+08  8.4657E+06 -1.2521E+07 -2.7269E+07    1.8598E+08    4.4486E-02
      47-      1
       1          -5.5909E+07 -4.9176E+07 -2.6032E+08  1.8468E+07 -2.9676E+07 -1.5683E+07    2.1819E+08    3.9291E-02
      53-      1
       1          -2.9804E+07 -2.5007E+07 -1.8644E+08  1.2088E+07 -2.1877E+07 -1.8623E+07    1.6800E+08    5.0876E-02
      61-      1
       1          -8.4280E+07 -1.4971E+08 -2.7856E+08 -3.4563E+07 -6.5109E+06 -3.2964E+07    1.9048E+08    5.4082E-02
      67-      1
       1          -1.2591E+08 -9.2257E+07 -3.1764E+08  1.1248E+07 -2.5405E+07 -1.4175E+06    2.1603E+08    3.1848E-02
      79-      1
       1          -2.1701E+08 -2.2992E+08 -4.8210E+08 -4.5453E+06 -2.4319E+06 -5.0312E+06    2.5917E+08    1.0015E-02
      81-      1
       1          -1.1499E+08 -8.4320E+07 -2.4824E+08  3.6581E+06 -1.7864E+07  2.6035E+06    1.5428E+08    4.4550E-02



 e l e m e n t   s t r a i n   c a l c u l a t i o n s   f o r   t i m e  s t e p     1489   ( at time  1.64441E+01 )

 element  strain       eps-xx      eps-yy      eps-zz      eps-xy      eps-yz      eps-zx                            yield
 num/ipt   state
      45-      1
      1            1.8765E-02  1.4514E-02 -3.4716E-02  3.5642E-03 -3.4651E-03 -8.2100E-03
      47-      1
      1            1.3974E-02  1.7095E-02 -3.2856E-02  5.2691E-03 -7.1521E-03 -4.6684E-03
      53-      1
      1            1.7389E-02  1.6796E-02 -3.5432E-02  5.3729E-03 -6.8155E-03 -7.3678E-03
      61-      1
      1            2.3337E-02  8.2995E-03 -3.4024E-02 -3.1595E-03 -4.3170E-04 -7.2852E-03
      67-      1
      1            1.0195E-02  1.7759E-02 -3.0538E-02  3.2729E-03 -6.4494E-03 -1.6062E-03
      79-      1
      1            5.3672E-03  4.9744E-03 -1.4739E-02 -1.2248E-04 -1.1845E-04 -4.2363E-04
      81-      1
      1            9.3744E-03  1.9337E-02 -3.0891E-02  1.0442E-03 -7.0031E-03 -2.3736E-04



 e l e m e n t   s t r e s s   c a l c u l a t i o n s   f o r   t i m e  s t e p     1493   ( at time 1.67356E+01 )

 element  materl
     ipt  stress       sig-xx      sig-yy      sig-zz      sig-xy      sig-yz      sig-zx                       yield
           state                                                                                  effsg      function
      45-      1
       1          -3.7602E+07 -3.9954E+07 -2.2582E+08  1.5450E+07 -1.3548E+07 -2.9975E+07    1.9736E+08    4.5625E-02
      47-      1
       1          -6.5465E+07 -5.0443E+07 -2.7989E+08  2.0350E+07 -3.1898E+07 -1.5708E+07    2.3337E+08    3.9478E-02
      53-      1
       1          -4.0913E+07 -5.0857E+07 -2.2706E+08  1.7457E+07 -2.3751E+07 -2.2196E+07    1.9231E+08    5.0876E-02
      61-      1
       1          -2.2670E+07 -8.2683E+07 -2.2240E+08 -3.1256E+07 -9.0052E+06 -2.9042E+07    1.9291E+08    5.6740E-02
      67-      1
       1          -1.2414E+08 -7.9737E+07 -3.2782E+08  1.0591E+07 -2.9760E+07 -2.8571E+06    2.3562E+08    3.2233E-02
      79-      1
       1          -2.0842E+08 -2.3167E+08 -4.7148E+08 -5.5232E+06 -3.1134E+06 -5.3607E+06    2.5265E+08    1.0060E-02
      81-      1
       1          -1.1179E+08 -6.9096E+07 -2.6059E+08  2.1223E+06 -2.3462E+07  1.7688E+06    1.7886E+08    4.5069E-02



 e l e m e n t   s t r a i n   c a l c u l a t i o n s   f o r   t i m e  s t e p     1493   ( at time  1.67356E+01 )

 element  strain       eps-xx      eps-yy      eps-zz      eps-xy      eps-yz      eps-zx                            yield
 num/ipt   state
      45-      1
      1            1.9220E-02  1.4721E-02 -3.5472E-02  3.7774E-03 -3.5503E-03 -8.4804E-03
      47-      1
      1            1.4024E-02  1.7296E-02 -3.3252E-02  5.3285E-03 -7.2374E-03 -4.6776E-03
      53-      1
      1            1.7545E-02  1.6682E-02 -3.5842E-02  5.4784E-03 -6.8467E-03 -7.4340E-03
      61-      1
      1            2.4765E-02  8.9971E-03 -3.5278E-02 -3.4955E-03 -6.0564E-04 -7.3723E-03
      67-      1
      1            1.0318E-02  1.8174E-02 -3.1055E-02  3.2834E-03 -6.5790E-03 -1.6416E-03
      79-      1
      1            5.4707E-03  4.8738E-03 -1.4659E-02 -1.4445E-04 -1.2878E-04 -4.3394E-04
      81-      1
      1            9.4930E-03  1.9797E-02 -3.1443E-02  1.0178E-03 -7.1821E-03 -2.4874E-04



 e l e m e n t   s t r e s s   c a l c u l a t i o n s   f o r   t i m e  s t e p     1497   ( at time 1.71976E+01 )

 element  materl
     ipt  stress       sig-xx      sig-yy      sig-zz      sig-xy      sig-yz      sig-zx                       yield
           state                                                                                  effsg      function
      45-      1
       1          -3.4683E+07 -3.9721E+07 -2.4609E+08  1.7016E+07 -1.5009E+07 -3.4520E+07    2.2085E+08    4.7090E-02
      47-      1
       1          -6.9687E+07 -5.2739E+07 -3.1122E+08  2.3132E+07 -3.5090E+07 -1.6881E+07    2.6243E+08    3.9839E-02
      53-      1
       1          -4.7681E+07 -6.4114E+07 -2.8800E+08  2.3925E+07 -2.9241E+07 -2.6693E+07    2.4596E+08    5.0885E-02
      61-      1
       1          -3.7522E+07 -9.0972E+07 -2.3400E+08 -2.4540E+07 -8.5958E+06 -8.3337E+06    1.8219E+08    5.8794E-02
      67-      1
       1          -1.1853E+08 -7.4301E+07 -3.3751E+08  1.2857E+07 -2.9199E+07 -4.7427E+06    2.5043E+08    3.2817E-02
      79-      1
       1          -2.1541E+08 -2.3988E+08 -4.8025E+08 -5.6622E+06 -3.7478E+06 -5.4255E+06    2.5394E+08    1.0357E-02
      81-      1
       1          -1.0491E+08 -5.6159E+07 -2.8395E+08  4.2592E+06 -2.4543E+07  1.5588E+06    2.1220E+08    4.5241E-02



 e l e m e n t   s t r a i n   c a l c u l a t i o n s   f o r   t i m e  s t e p     1497   ( at time  1.71976E+01 )

 element  strain       eps-xx      eps-yy      eps-zz      eps-xy      eps-yz      eps-zx                            yield
 num/ipt   state
      45-      1
      1            1.9806E-02  1.5177E-02 -3.6597E-02  3.9230E-03 -3.6032E-03 -8.7873E-03
      47-      1
      1            1.4285E-02  1.7606E-02 -3.4001E-02  5.4282E-03 -7.3740E-03 -4.7181E-03
      53-      1
      1            1.7803E-02  1.6831E-02 -3.6632E-02  5.6073E-03 -6.9407E-03 -7.5191E-03
      61-      1
      1            2.5967E-02  9.5074E-03 -3.6819E-02 -3.8362E-03 -7.0315E-04 -7.6269E-03
      67-      1
      1            1.0599E-02  1.8592E-02 -3.1749E-02  3.3668E-03 -6.6194E-03 -1.7051E-03
      79-      1
      1            5.6073E-03  4.9485E-03 -1.4984E-02 -1.5795E-04 -1.4705E-04 -4.4803E-04
      81-      1
      1            9.6817E-03  2.0154E-02 -3.2005E-02  1.0631E-03 -7.1778E-03 -2.5153E-04



 e l e m e n t   s t r e s s   c a l c u l a t i o n s   f o r   t i m e  s t e p     1502   ( at time 1.79297E+01 )

 element  materl
     ipt  stress       sig-xx      sig-yy      sig-zz      sig-xy      sig-yz      sig-zx                       yield
           state                                                                                  effsg      function
      45-      1
       1          -3.7499E+07 -4.5162E+07 -2.6357E+08  1.8401E+07 -1.3844E+07 -3.5179E+07    2.3396E+08    4.9191E-02
      47-      1
       1          -7.1934E+07 -5.2785E+07 -3.3600E+08  2.5420E+07 -3.6836E+07 -1.8030E+07    2.8659E+08    4.0927E-02
      53-      1
       1          -5.4193E+07 -7.5105E+07 -3.4086E+08  2.8961E+07 -3.0812E+07 -2.7189E+07    2.9017E+08    5.1596E-02
      61-      1
       1          -3.8454E+07 -9.1194E+07 -2.4149E+08 -2.0542E+07 -9.0943E+06 -8.9171E+06    1.8722E+08    6.1162E-02
      67-      1
       1          -1.1239E+08 -6.8199E+07 -3.4594E+08  1.5620E+07 -2.8577E+07 -6.0666E+06    2.6478E+08    3.4080E-02
      79-      1
       1          -2.2158E+08 -2.4330E+08 -4.8808E+08 -5.5805E+06 -3.8517E+06 -4.9852E+06    2.5674E+08    1.0871E-02
      81-      1
       1          -9.0533E+07 -3.5105E+07 -3.1132E+08  7.8188E+06 -2.6070E+07  1.4800E+06    2.5746E+08    4.5864E-02



 e l e m e n t   s t r a i n   c a l c u l a t i o n s   f o r   t i m e  s t e p     1502   ( at time  1.79297E+01 )

 element  strain       eps-xx      eps-yy      eps-zz      eps-xy      eps-yz      eps-zx                            yield
 num/ipt   state
      45-      1
      1            2.0633E-02  1.5840E-02 -3.8211E-02  4.1299E-03 -3.6424E-03 -9.1502E-03
      47-      1
      1            1.4828E-02  1.8286E-02 -3.5352E-02  5.6125E-03 -7.6238E-03 -4.8158E-03
      53-      1
      1            1.8368E-02  1.7239E-02 -3.7939E-02  5.8079E-03 -7.0883E-03 -7.6662E-03
      61-      1
      1            2.7265E-02  1.0008E-02 -3.8716E-02 -4.1000E-03 -8.4591E-04 -7.8252E-03
      67-      1
      1            1.1110E-02  1.9393E-02 -3.3045E-02  3.5219E-03 -6.7616E-03 -1.7834E-03
      79-      1
      1            5.8427E-03  5.1754E-03 -1.5529E-02 -1.7401E-04 -1.5800E-04 -4.6051E-04
      81-      1
      1            1.0086E-02  2.0876E-02 -3.3095E-02  1.1547E-03 -7.2320E-03 -2.4874E-04



 e l e m e n t   s t r e s s   c a l c u l a t i o n s   f o r   t i m e  s t e p     1514   ( at time 1.90901E+01 )

 element  materl
     ipt  stress       sig-xx      sig-yy      sig-zz      sig-xy      sig-yz      sig-zx                       yield
           state                                                                                  effsg      function
      45-      1
       1          -8.1080E+07 -8.4056E+07 -2.8174E+08  1.0410E+07 -2.3413E+06 -1.9231E+07    2.0280E+08    5.8096E-02
      47-      1
       1          -4.6398E+07 -4.3657E+07 -2.6671E+08  1.9402E+07 -2.1659E+07 -2.0953E+07    2.3022E+08    4.9187E-02
      53-      1
       1          -1.0763E+08 -1.0858E+08 -2.6809E+08  1.5341E+07 -1.4688E+07 -1.6091E+07    1.6651E+08    6.4674E-02
      61-      1
       1           1.7073E+07 -2.8464E+07 -2.0748E+08 -1.4437E+07 -1.6138E+07 -3.7241E+06    2.0909E+08    6.4506E-02
      67-      1
       1          -4.5323E+07 -2.0079E+07 -3.0195E+08  1.5086E+07 -2.1463E+07 -1.6179E+07    2.7536E+08    3.9729E-02
      79-      1
       1          -2.3515E+08 -2.5301E+08 -5.0946E+08  9.5821E+05 -6.1046E+06 -7.7215E+06    2.6638E+08    1.4006E-02
      81-      1
       1           3.0285E+07  5.1155E+07 -1.6455E+08  2.8140E+06 -1.9944E+07  3.0423E+06    2.0906E+08    5.6833E-02



 e l e m e n t   s t r a i n   c a l c u l a t i o n s   f o r   t i m e  s t e p     1514   ( at time  1.90901E+01 )

 element  strain       eps-xx      eps-yy      eps-zz      eps-xy      eps-yz      eps-zx                            yield
 num/ipt   state
      45-      1
      1            2.2718E-02  1.8374E-02 -4.3321E-02  4.5338E-03 -3.6749E-03 -9.6871E-03
      47-      1
      1            1.7725E-02  2.0934E-02 -4.0424E-02  6.2902E-03 -8.0233E-03 -5.5084E-03
      53-      1
      1            2.0848E-02  1.9903E-02 -4.3170E-02  6.4462E-03 -7.4619E-03 -8.3345E-03
      61-      1
      1            2.9486E-02  1.1699E-02 -4.2043E-02 -3.9076E-03 -1.4995E-03 -6.6189E-03
      67-      1
      1            1.3786E-02  2.2528E-02 -3.8124E-02  3.9675E-03 -7.1964E-03 -2.2975E-03
      79-      1
      1            7.4411E-03  6.5467E-03 -1.8710E-02 -2.5843E-05 -2.7792E-04 -6.3812E-04
      81-      1
      1            1.3565E-02  2.4603E-02 -3.8666E-02  1.5075E-03 -8.0133E-03 -1.7843E-04



 e l e m e n t   s t r e s s   c a l c u l a t i o n s   f o r   t i m e  s t e p     1521   ( at time 2.02505E+01 )

 element  materl
     ipt  stress       sig-xx      sig-yy      sig-zz      sig-xy      sig-yz      sig-zx                       yield
           state                                                                                  effsg      function
      45-      1
       1          -7.6742E+07 -9.4911E+07 -3.1054E+08  1.2825E+07 -6.8216E+06 -1.8184E+07    2.2885E+08    6.2676E-02
      47-      1
       1          -5.8277E+07 -4.8344E+07 -2.5824E+08  1.7960E+07 -1.6668E+07 -2.9666E+07    2.1566E+08    5.4510E-02
      53-      1
       1          -7.7219E+07 -7.0699E+07 -2.8309E+08  2.3670E+07 -1.3041E+07 -1.4535E+07    2.1586E+08    6.8307E-02
      61-      1
       1           1.5334E+07 -2.4013E+07 -1.8663E+08  2.8583E+06 -4.3610E+06 -2.5816E+07    1.9097E+08    7.0363E-02
      67-      1
       1          -4.7336E+07 -2.0908E+07 -2.8580E+08  8.3238E+06 -3.4073E+07 -2.6269E+07    2.6387E+08    4.5180E-02
      79-      1
       1          -2.1302E+08 -2.4453E+08 -4.7541E+08  7.5190E+06 -7.3022E+06 -1.0033E+07    2.4941E+08    1.6059E-02
      81-      1
       1           1.6604E+07  3.8702E+07 -1.4947E+08 -5.0336E+06 -1.1219E+07 -2.0511E+05    1.7942E+08    6.6787E-02



 e l e m e n t   s t r a i n   c a l c u l a t i o n s   f o r   t i m e  s t e p     1521   ( at time  2.02505E+01 )

 element  strain       eps-xx      eps-yy      eps-zz      eps-xy      eps-yz      eps-zx                            yield
 num/ipt   state
      45-      1
      1            2.4845E-02  1.9658E-02 -4.6912E-02  4.7962E-03 -3.5199E-03 -9.9940E-03
      47-      1
      1            1.9220E-02  2.2747E-02 -4.3776E-02  6.7397E-03 -8.3340E-03 -6.3533E-03
      53-      1
      1            2.2135E-02  2.1599E-02 -4.5907E-02  7.0237E-03 -7.5531E-03 -8.6134E-03
      61-      1
      1            3.2357E-02  1.3351E-02 -4.6263E-02 -2.4829E-03 -1.3385E-03 -6.7119E-03
      67-      1
      1            1.5642E-02  2.5054E-02 -4.2453E-02  4.1297E-03 -8.2974E-03 -3.1511E-03
      79-      1
      1            8.5717E-03  7.0893E-03 -2.0078E-02  1.7759E-04 -3.8453E-04 -8.2526E-04
      81-      1
      1            1.6224E-02  2.8573E-02 -4.4830E-02  1.4646E-03 -1.0632E-02 -3.6133E-04



 e l e m e n t   s t r e s s   c a l c u l a t i o n s   f o r   t i m e  s t e p     1528   ( at time 2.20896E+01 )

 element  materl
     ipt  stress       sig-xx      sig-yy      sig-zz      sig-xy      sig-yz      sig-zx                       yield
           state                                                                                  effsg      function
      45-      1
       1          -7.9143E+07 -1.0709E+08 -3.5232E+08  1.3009E+07 -1.1003E+07 -2.4005E+07    2.6528E+08    6.6546E-02
      47-      1
       1          -5.0348E+07 -3.6501E+07 -2.9859E+08  2.2940E+07 -2.0089E+07 -2.6890E+07    2.6498E+08    5.8001E-02
      53-      1
       1          -7.5262E+07 -7.2201E+07 -3.2192E+08  2.7256E+07 -1.6276E+07 -1.9069E+07    2.5636E+08    7.1849E-02
      61-      1
       1          -2.1888E+07 -5.7509E+07 -2.3273E+08  7.2539E+06 -1.2905E+07 -1.7532E+07    1.9948E+08    7.3787E-02
      67-      1
       1          -5.1252E+07 -2.2171E+07 -3.1624E+08  1.2772E+07 -3.2780E+07 -2.2562E+07    2.8984E+08    4.9046E-02
      79-      1
       1          -2.3726E+08 -2.5742E+08 -5.0038E+08  6.8837E+06 -6.9476E+06 -1.0252E+07    2.5482E+08    1.8239E-02
      81-      1
       1          -2.3063E+07  1.3047E+07 -2.1362E+08 -5.0315E+06 -5.2630E+06 -4.9640E+05    2.1132E+08    6.9706E-02



 e l e m e n t   s t r a i n   c a l c u l a t i o n s   f o r   t i m e  s t e p     1528   ( at time  2.20896E+01 )

 element  strain       eps-xx      eps-yy      eps-zz      eps-xy      eps-yz      eps-zx                            yield
 num/ipt   state
      45-      1
      1            2.6958E-02  2.1058E-02 -5.0701E-02  5.0437E-03 -3.7764E-03 -1.0568E-02
      47-      1
      1            2.0832E-02  2.4660E-02 -4.7407E-02  7.2421E-03 -8.6822E-03 -6.6965E-03
      53-      1
      1            2.3804E-02  2.3171E-02 -4.9337E-02  7.5508E-03 -7.7823E-03 -8.9661E-03
      61-      1
      1            3.5178E-02  1.4806E-02 -5.0527E-02 -2.3517E-03 -1.5447E-03 -7.1575E-03
      67-      1
      1            1.7262E-02  2.7277E-02 -4.6476E-02  4.4670E-03 -8.8936E-03 -3.4931E-03
      79-      1
      1            9.4861E-03  7.9897E-03 -2.2189E-02  2.4625E-04 -4.5023E-04 -9.5382E-04
      81-      1
      1            1.7588E-02  3.1088E-02 -4.8982E-02  1.5454E-03 -1.1759E-02 -4.2426E-04



 e l e m e n t   s t r e s s   c a l c u l a t i o n s   f o r   t i m e  s t e p     1536   ( at time 2.50044E+01 )

 element  materl
     ipt  stress       sig-xx      sig-yy      sig-zz      sig-xy      sig-yz      sig-zx                       yield
           state                                                                                  effsg      function
      45-      1
       1          -1.0086E+08 -1.2494E+08 -3.7571E+08  1.2726E+07 -1.4122E+07 -2.0130E+07    2.6796E+08    7.6644E-02
      47-      1
       1          -3.3866E+07 -2.5096E+07 -2.8890E+08  2.1968E+07 -1.6599E+07 -2.1771E+07    2.6655E+08    6.7268E-02
      53-      1
       1          -6.4180E+07 -6.4320E+07 -3.1283E+08  2.7074E+07 -1.5073E+07 -1.5142E+07    2.5565E+08    8.1876E-02
      61-      1
       1          -5.8581E+06 -3.7685E+07 -2.2228E+08  2.2628E+06 -8.8525E+06 -1.9445E+07    2.0579E+08    8.2777E-02
      67-      1
       1          -3.8690E+07 -1.0700E+07 -3.1452E+08  1.0924E+07 -2.5076E+07 -1.8020E+07    2.9632E+08    5.7845E-02
      79-      1
       1          -2.5428E+08 -2.6704E+08 -5.2287E+08  7.5693E+06 -8.1072E+06 -1.0115E+07    2.6372E+08    2.3021E-02
      81-      1
       1          -5.4375E+06  2.4445E+07 -2.1376E+08 -6.8551E+06 -6.4118E+06  1.1311E+06    2.2536E+08    7.7669E-02



 e l e m e n t   s t r a i n   c a l c u l a t i o n s   f o r   t i m e  s t e p     1536   ( at time  2.50044E+01 )

 element  strain       eps-xx      eps-yy      eps-zz      eps-xy      eps-yz      eps-zx                            yield
 num/ipt   state
      45-      1
      1            3.1673E-02  2.4696E-02 -5.9402E-02  5.6768E-03 -4.2239E-03 -1.1296E-02
      47-      1
      1            2.4679E-02  2.8756E-02 -5.5214E-02  8.2553E-03 -9.1003E-03 -7.3718E-03
      53-      1
      1            2.7886E-02  2.7119E-02 -5.7277E-02  8.8527E-03 -8.0564E-03 -9.3881E-03
      61-      1
      1            4.1826E-02  1.8752E-02 -6.0581E-02 -2.0117E-03 -1.5211E-03 -7.9069E-03
      67-      1
      1            2.0964E-02  3.2160E-02 -5.4991E-02  4.9539E-03 -9.7697E-03 -4.0691E-03
      79-      1
      1            1.1735E-02  1.0058E-02 -2.6751E-02  4.5300E-04 -6.5953E-04 -1.2111E-03
      81-      1
      1            2.1839E-02  3.7154E-02 -5.8961E-02  1.7383E-03 -1.3931E-02 -4.0978E-04



 e l e m e n t   s t r e s s   c a l c u l a t i o n s   f o r   t i m e  s t e p     1545   ( at time 2.79192E+01 )

 element  materl
     ipt  stress       sig-xx      sig-yy      sig-zz      sig-xy      sig-yz      sig-zx                       yield
           state                                                                                  effsg      function
      45-      1
       1          -1.1048E+08 -1.3100E+08 -3.8247E+08  1.1358E+07 -1.3252E+07 -2.0646E+07    2.6648E+08    8.5867E-02
      47-      1
       1          -1.3585E+07 -3.9522E+06 -2.8601E+08  2.8173E+07 -1.5322E+07 -1.7572E+07    2.8451E+08    7.4282E-02
      53-      1
       1          -2.3990E+05  7.1129E+06 -2.6536E+08  3.8713E+07 -1.3988E+07 -2.0542E+07    2.8043E+08    8.9691E-02
      61-      1
       1          -2.5202E+07 -4.6042E+07 -2.2624E+08  6.7694E+06 -6.0893E+06 -2.1820E+07    1.9580E+08    9.2287E-02
      67-      1
       1          -3.1340E+07 -5.2801E+06 -3.1321E+08  1.0993E+07 -2.5496E+07 -1.4099E+07    3.0064E+08    6.6104E-02
      79-      1
       1          -2.6408E+08 -2.7743E+08 -5.3205E+08  1.0909E+07 -1.0925E+07 -9.7833E+06    2.6346E+08    2.7487E-02
      81-      1
       1          -4.9791E+06  2.3244E+07 -2.1799E+08 -7.1679E+06 -4.2933E+06  9.5733E+05    2.2890E+08    8.5479E-02



 e l e m e n t   s t r a i n   c a l c u l a t i o n s   f o r   t i m e  s t e p     1545   ( at time  2.79192E+01 )

 element  strain       eps-xx      eps-yy      eps-zz      eps-xy      eps-yz      eps-zx                            yield
 num/ipt   state
      45-      1
      1            3.5899E-02  2.7977E-02 -6.7051E-02  6.0876E-03 -4.5142E-03 -1.2113E-02
      47-      1
      1            2.7810E-02  3.2229E-02 -6.1632E-02  9.3604E-03 -9.4749E-03 -7.7568E-03
      53-      1
      1            3.1424E-02  3.0992E-02 -6.3849E-02  1.0475E-02 -8.6144E-03 -1.0296E-02
      61-      1
      1            4.7579E-02  2.2618E-02 -6.9631E-02 -1.2712E-03 -1.4941E-03 -9.2424E-03
      67-      1
      1            2.4488E-02  3.6643E-02 -6.2975E-02  5.4443E-03 -1.0805E-02 -4.4667E-03
      79-      1
      1            1.3835E-02  1.1841E-02 -3.0782E-02  7.7206E-04 -9.7812E-04 -1.4653E-03
      81-      1
      1            2.5857E-02  4.2858E-02 -6.8593E-02  1.8528E-03 -1.6081E-02 -4.0171E-04



 e l e m e n t   s t r e s s   c a l c u l a t i o n s   f o r   t i m e  s t e p     1552   ( at time 3.08340E+01 )

 element  materl
     ipt  stress       sig-xx      sig-yy      sig-zz      sig-xy      sig-yz      sig-zx                       yield
           state                                                                                  effsg      function
      45-      1
       1          -2.4282E+07 -6.4786E+07 -3.3125E+08  2.2664E+07 -1.7696E+07 -2.9192E+07    2.9745E+08    9.4225E-02
      47-      1
       1          -5.8055E+07 -4.7595E+07 -3.0914E+08  2.6792E+07 -1.6708E+07 -1.7465E+07    2.6398E+08    8.1892E-02
      53-      1
       1          -7.4565E+07 -7.4764E+07 -2.9428E+08  2.7074E+07 -1.0488E+07 -1.2350E+07    2.2632E+08    9.5934E-02
      61-      1
       1          -7.1700E+06 -3.9996E+07 -2.3636E+08  8.3039E+06 -4.2750E+06 -2.6625E+07    2.2016E+08    9.9432E-02
      67-      1
       1          -8.6989E+07 -5.9458E+07 -3.3512E+08  1.8105E+07 -2.2569E+07 -1.2816E+07    2.6863E+08    7.3558E-02
      79-      1
       1          -2.7738E+08 -2.8546E+08 -5.5331E+08  8.9196E+06 -9.9655E+06 -9.7635E+06    2.7349E+08    3.1152E-02
      81-      1
       1          -1.3868E+07  2.5952E+07 -2.2636E+08 -1.3823E+05 -1.5948E+07 -1.3327E+06    2.3658E+08    9.1949E-02



 e l e m e n t   s t r a i n   c a l c u l a t i o n s   f o r   t i m e  s t e p     1552   ( at time  3.08340E+01 )

 element  strain       eps-xx      eps-yy      eps-zz      eps-xy      eps-yz      eps-zx                            yield
 num/ipt   state
      45-      1
      1            4.1126E-02  3.1199E-02 -7.4579E-02  7.1672E-03 -5.2455E-03 -1.3453E-02
      47-      1
      1            3.1655E-02  3.6707E-02 -6.9828E-02  1.0759E-02 -1.0691E-02 -8.8244E-03
      53-      1
      1            3.5307E-02  3.5201E-02 -7.1361E-02  1.2099E-02 -9.7579E-03 -1.1272E-02
      61-      1
      1            5.3264E-02  2.5774E-02 -7.8466E-02 -7.9255E-04 -1.3803E-03 -1.0630E-02
      67-      1
      1            2.7770E-02  4.1598E-02 -7.1158E-02  6.3523E-03 -1.1959E-02 -5.1879E-03
      79-      1
      1            1.5573E-02  1.3523E-02 -3.4411E-02  9.0744E-04 -1.1430E-03 -1.6474E-03
      81-      1
      1            2.8795E-02  4.8107E-02 -7.7083E-02  2.2000E-03 -1.7793E-02 -4.1407E-04



 e l e m e n t   s t r e s s   c a l c u l a t i o n s   f o r   t i m e  s t e p     1561   ( at time 3.54536E+01 )

 element  materl
     ipt  stress       sig-xx      sig-yy      sig-zz      sig-xy      sig-yz      sig-zx                       yield
           state                                                                                  effsg      function
      45-      1
       1          -8.0467E+07 -1.2263E+08 -3.2685E+08  8.4149E+06 -1.1234E+07 -1.7698E+07    2.3157E+08    1.0620E-01
      47-      1
       1          -9.4809E+06 -7.1585E+06 -2.6620E+08  2.8325E+07 -2.1187E+07 -2.0716E+07    2.6748E+08    9.4662E-02
      53-      1
       1          -1.3520E+08 -1.3628E+08 -3.2963E+08  1.6573E+07 -7.0905E+06 -1.0009E+07    1.9716E+08    1.0506E-01
      61-      1
       1           6.4750E+06 -2.1407E+07 -1.9453E+08  7.1301E+06 -2.1909E+05 -1.8375E+07    1.9168E+08    1.1101E-01
      67-      1
       1          -9.8072E+07 -7.3965E+07 -3.5405E+08  1.4488E+07 -2.1186E+07 -1.1043E+07    2.7316E+08    8.5278E-02
      79-      1
       1          -3.0751E+08 -3.1486E+08 -5.9430E+08  8.1293E+06 -9.5731E+06 -8.6102E+06    2.8441E+08    3.9128E-02
      81-      1
       1          -1.2252E+07  1.9274E+07 -2.3361E+08 -5.4735E+05 -1.8853E+07 -2.6883E+05    2.4091E+08    1.0296E-01



 e l e m e n t   s t r a i n   c a l c u l a t i o n s   f o r   t i m e  s t e p     1561   ( at time  3.54536E+01 )

 element  strain       eps-xx      eps-yy      eps-zz      eps-xy      eps-yz      eps-zx                            yield
 num/ipt   state
      45-      1
      1            5.0580E-02  3.7007E-02 -8.8682E-02  8.4372E-03 -6.3508E-03 -1.5603E-02
      47-      1
      1            3.8542E-02  4.4404E-02 -8.2914E-02  1.3365E-02 -1.2506E-02 -1.0613E-02
      53-      1
      1            4.2256E-02  4.3170E-02 -8.5120E-02  1.4641E-02 -1.1518E-02 -1.3097E-02
      61-      1
      1            6.3384E-02  3.2395E-02 -9.4545E-02  3.3550E-04 -1.3822E-03 -1.3092E-02
      67-      1
      1            3.3274E-02  4.8980E-02 -8.4217E-02  7.1918E-03 -1.3256E-02 -5.8944E-03
      79-      1
      1            1.9444E-02  1.7100E-02 -4.2377E-02  1.2315E-03 -1.5120E-03 -1.9611E-03
      81-      1
      1            3.4580E-02  5.6681E-02 -9.1735E-02  2.6252E-03 -2.0005E-02 -2.2261E-04



 e l e m e n t   s t r e s s   c a l c u l a t i o n s   f o r   t i m e  s t e p     1570   ( at time 4.00732E+01 )

 element  materl
     ipt  stress       sig-xx      sig-yy      sig-zz      sig-xy      sig-yz      sig-zx                       yield
           state                                                                                  effsg      function
      45-      1
       1          -1.2738E+08 -1.5208E+08 -3.3669E+08  4.0279E+06 -1.1155E+07 -1.9121E+07    2.0191E+08    1.1662E-01
      47-      1
       1          -1.0986E+08 -1.1327E+08 -3.0293E+08  1.7332E+07 -1.4316E+07 -1.3627E+07    1.9673E+08    1.0493E-01
      53-      1
       1          -1.4596E+08 -1.4687E+08 -3.4336E+08  1.6694E+07 -1.3227E+07 -1.5214E+07    2.0210E+08    1.1525E-01
      61-      1
       1           1.3182E+07 -1.6230E+07 -1.9914E+08  2.5042E+06 -1.9158E+06 -2.1024E+07    2.0262E+08    1.2194E-01
      67-      1
       1          -5.8989E+07 -3.5337E+07 -3.1561E+08  1.8921E+07 -2.7040E+07 -1.5406E+07    2.7652E+08    9.9618E-02
      79-      1
       1          -3.0455E+08 -3.2488E+08 -6.0851E+08  5.9178E+06 -7.0081E+06 -4.7580E+06    2.9487E+08    4.8133E-02
      81-      1
       1          -1.6925E+07  1.7230E+07 -2.3889E+08  1.7235E+06 -2.2833E+07 -2.6265E+06    2.4415E+08    1.1491E-01



 e l e m e n t   s t r a i n   c a l c u l a t i o n s   f o r   t i m e  s t e p     1570   ( at time  4.00732E+01 )

 element  strain       eps-xx      eps-yy      eps-zz      eps-xy      eps-yz      eps-zx                            yield
 num/ipt   state
      45-      1
      1            6.0446E-02  4.4009E-02 -1.0457E-01  9.6059E-03 -7.6833E-03 -1.8002E-02
      47-      1
      1            4.6539E-02  5.3546E-02 -9.8289E-02  1.6048E-02 -1.4488E-02 -1.2502E-02
      53-      1
      1            4.9796E-02  5.1875E-02 -1.0062E-01  1.7505E-02 -1.3091E-02 -1.5046E-02
      61-      1
      1            7.3347E-02  3.8938E-02 -1.1118E-01  6.8677E-04 -1.6514E-03 -1.5235E-02
      67-      1
      1            4.0110E-02  5.8592E-02 -9.9572E-02  8.9499E-03 -1.5408E-02 -7.2227E-03
      79-      1
      1            2.4466E-02  2.0943E-02 -5.1401E-02  1.4589E-03 -1.7588E-03 -2.0640E-03
      81-      1
      1            4.0515E-02  6.6246E-02 -1.0755E-01  3.0809E-03 -2.2024E-02 -1.8797E-04



 e l e m e n t   s t r e s s   c a l c u l a t i o n s   f o r   t i m e  s t e p     1581   ( at time 4.46928E+01 )

 element  materl
     ipt  stress       sig-xx      sig-yy      sig-zz      sig-xy      sig-yz      sig-zx                       yield
           state                                                                                  effsg      function
      45-      1
       1          -1.3257E+08 -1.5732E+08 -3.4263E+08  1.7008E+06 -1.3177E+07 -2.7636E+07    2.0581E+08    1.2620E-01
      47-      1
[...]
      79-      1
       1          -2.3612E+08 -2.8558E+08 -5.7357E+08  2.6309E+06 -3.1415E+06 -5.2642E+05    3.1572E+08    9.8677E-02
      81-      1
       1          -8.6846E+07 -5.8278E+07 -2.7754E+08  3.3760E+05 -2.9622E+07 -1.1993E+06    2.1276E+08    1.7403E-01



 e l e m e n t   s t r a i n   c a l c u l a t i o n s   f o r   t i m e  s t e p     1625   ( at time  6.31713E+01 )

 element  strain       eps-xx      eps-yy      eps-zz      eps-xy      eps-yz      eps-zx                            yield
 num/ipt   state
      45-      1
      1            1.0514E-01  7.9093E-02 -1.8156E-01  1.4656E-02 -1.1917E-02 -2.8142E-02
      47-      1
      1            8.8085E-02  9.3371E-02 -1.7387E-01  2.6727E-02 -2.5545E-02 -2.0622E-02
      53-      1
      1            9.0849E-02  9.0863E-02 -1.7501E-01  2.8450E-02 -2.0199E-02 -2.3510E-02
      61-      1
      1            1.2120E-01  7.0872E-02 -1.9099E-01  1.7198E-03 -3.2178E-03 -2.4152E-02
      67-      1
      1            7.5285E-02  1.0194E-01 -1.7652E-01  1.4437E-02 -2.6049E-02 -1.2221E-02
      79-      1
      1            5.4318E-02  4.1223E-02 -1.0123E-01  2.1639E-03 -2.4970E-03 -2.5464E-03
      81-      1
      1            7.4225E-02  1.1756E-01 -1.9194E-01  2.9119E-03 -3.1634E-02  7.2514E-04



 e l e m e n t   s t r e s s   c a l c u l a t i o n s   f o r   t i m e  s t e p     1638   ( at time 6.77910E+01 )

 element  materl
     ipt  stress       sig-xx      sig-yy      sig-zz      sig-xy      sig-yz      sig-zx                       yield
           state                                                                                  effsg      function
      45-      1
       1          -1.1954E+08 -1.3101E+08 -2.9000E+08  1.6397E+06 -1.4895E+07 -2.5404E+07    1.7275E+08    1.7049E-01
      47-      1
       1          -1.6995E+08 -1.8949E+08 -3.3645E+08  1.0154E+07 -2.4675E+07 -2.6399E+07    1.7052E+08    1.5372E-01
      53-      1
       1          -1.4727E+08 -1.4776E+08 -3.0853E+08  1.6469E+07 -2.0986E+07 -2.3865E+07    1.7254E+08    1.7243E-01
      61-      1
       1          -1.0427E+08 -1.3516E+08 -2.8754E+08  2.5411E+06 -4.2813E+06 -1.8424E+07    1.7313E+08    1.7544E-01
      67-      1
       1          -1.5735E+08 -1.6485E+08 -3.6722E+08  2.7162E+06 -3.1764E+07 -1.3259E+07    2.1472E+08    1.6820E-01
      79-      1
       1          -1.6817E+08 -2.1303E+08 -5.0635E+08 -2.4311E+06 -1.4741E+06 -6.8399E+05    3.1818E+08    1.1302E-01
      81-      1
       1          -8.2430E+07 -6.7265E+07 -2.8503E+08 -4.0958E+06 -2.8333E+07  8.8353E+05    2.1636E+08    1.8557E-01



 e l e m e n t   s t r a i n   c a l c u l a t i o n s   f o r   t i m e  s t e p     1638   ( at time  6.77910E+01 )

 element  strain       eps-xx      eps-yy      eps-zz      eps-xy      eps-yz      eps-zx                            yield
 num/ipt   state
      45-      1
      1            1.1481E-01  8.6463E-02 -1.9840E-01  1.4984E-02 -1.3382E-02 -3.0207E-02
      47-      1
      1            1.0158E-01  1.0228E-01 -1.9157E-01  3.0639E-02 -2.8199E-02 -2.2578E-02
      53-      1
      1            1.0195E-01  1.0128E-01 -1.9303E-01  3.2679E-02 -2.2740E-02 -2.5889E-02
      61-      1
      1            1.3442E-01  7.7911E-02 -2.0966E-01  1.0807E-03 -3.0726E-03 -2.5970E-02
      67-      1
      1            8.3887E-02  1.1019E-01 -1.9358E-01  1.4591E-02 -2.8200E-02 -1.2712E-02
      79-      1
      1            6.3052E-02  4.7064E-02 -1.1497E-01  1.9178E-03 -2.5640E-03 -2.5249E-03
      81-      1
      1            8.2801E-02  1.2774E-01 -2.1036E-01  2.2574E-03 -3.3115E-02  1.1425E-03



 e l e m e n t   s t r e s s   c a l c u l a t i o n s   f o r   t i m e  s t e p     1650   ( at time 7.24106E+01 )

 element  materl
     ipt  stress       sig-xx      sig-yy      sig-zz      sig-xy      sig-yz      sig-zx                       yield
           state                                                                                  effsg      function
      45-      1
       1          -1.7172E+08 -1.8468E+08 -3.0319E+08  2.1018E+06 -7.5461E+06 -2.0256E+07    1.3101E+08    1.7791E-01
      47-      1
       1          -1.5364E+08 -1.7955E+08 -2.8146E+08  1.1458E+07 -1.6341E+07 -2.2216E+07    1.2796E+08    1.6170E-01
      53-      1
       1          -1.4477E+08 -1.4361E+08 -3.0410E+08  1.7546E+07 -2.2659E+07 -2.3278E+07    1.7223E+08    1.8266E-01
      61-      1
       1          -1.2187E+08 -1.5315E+08 -3.0273E+08  4.9735E+06 -8.1765E+06 -1.9899E+07    1.7174E+08    1.8567E-01
      67-      1
       1          -1.3675E+08 -1.5394E+08 -3.5195E+08  9.2049E+06 -2.8435E+07 -1.4462E+07    2.1498E+08    1.7898E-01
      79-      1
       1          -1.4815E+08 -1.7103E+08 -4.7570E+08  7.4128E+05 -2.2845E+06 -2.0672E+06    3.1677E+08    1.2483E-01
      81-      1
       1          -8.0937E+07 -7.8232E+07 -2.9171E+08 -1.2159E+06 -2.7490E+07  2.5543E+06    2.1748E+08    1.9730E-01



 e l e m e n t   s t r a i n   c a l c u l a t i o n s   f o r   t i m e  s t e p     1650   ( at time  7.24106E+01 )

 element  strain       eps-xx      eps-yy      eps-zz      eps-xy      eps-yz      eps-zx                            yield
 num/ipt   state
      45-      1
      1            1.2507E-01  9.3299E-02 -2.1526E-01  1.5532E-02 -1.4541E-02 -3.2593E-02
      47-      1
      1            1.1493E-01  1.1240E-01 -2.0916E-01  3.5250E-02 -3.0648E-02 -2.4666E-02
      53-      1
      1            1.1228E-01  1.1107E-01 -2.1114E-01  3.6943E-02 -2.5178E-02 -2.7990E-02
      61-      1
      1            1.4683E-01  8.4486E-02 -2.2758E-01  6.1213E-04 -3.6828E-03 -2.7821E-02
      67-      1
      1            9.2897E-02  1.1829E-01 -2.1010E-01  1.6278E-02 -2.9946E-02 -1.3395E-02
      79-      1
      1            6.9269E-02  5.2467E-02 -1.2624E-01  2.0250E-03 -2.7957E-03 -2.6849E-03
      81-      1
      1            9.1788E-02  1.3728E-01 -2.2895E-01  2.2323E-03 -3.4574E-02  1.7868E-03



 e l e m e n t   s t r e s s   c a l c u l a t i o n s   f o r   t i m e  s t e p     1663   ( at time 7.70302E+01 )

 element  materl
     ipt  stress       sig-xx      sig-yy      sig-zz      sig-xy      sig-yz      sig-zx                       yield
           state                                                                                  effsg      function
      45-      1
       1          -1.2880E+08 -1.3330E+08 -2.5041E+08 -5.6104E+04 -8.4100E+06 -2.4951E+07    1.2783E+08    1.8730E-01
      47-      1
       1          -1.0759E+08 -1.2943E+08 -2.2810E+08  1.3856E+07 -2.4055E+07 -2.6249E+07    1.2941E+08    1.7055E-01
      53-      1
       1          -1.6157E+08 -1.7668E+08 -2.8748E+08  1.0299E+07 -1.8397E+07 -2.3717E+07    1.3115E+08    1.9207E-01
      61-      1
       1          -1.1515E+08 -1.4503E+08 -2.9669E+08  1.5236E+07 -1.0170E+07 -2.3644E+07    1.7638E+08    1.9635E-01
      67-      1
       1          -1.2408E+08 -1.4043E+08 -2.8911E+08  8.0053E+06 -3.3652E+07 -2.1350E+07    1.7251E+08    1.8912E-01
      79-      1
       1          -9.8000E+07 -1.1781E+08 -4.3101E+08  4.7838E+05 -9.7029E+05 -2.5809E+06    3.2360E+08    1.3920E-01
      81-      1
       1          -8.2958E+07 -8.9008E+07 -2.9657E+08  7.0315E+06 -3.3044E+07  2.4724E+06    2.1867E+08    2.1007E-01



 e l e m e n t   s t r a i n   c a l c u l a t i o n s   f o r   t i m e  s t e p     1663   ( at time  7.70302E+01 )

 element  strain       eps-xx      eps-yy      eps-zz      eps-xy      eps-yz      eps-zx                            yield
 num/ipt   state
      45-      1
      1            1.3696E-01  1.0306E-01 -2.3417E-01  1.6009E-02 -1.6243E-02 -3.6164E-02
      47-      1
      1            1.2693E-01  1.2378E-01 -2.2819E-01  4.0998E-02 -3.3515E-02 -2.6702E-02
      53-      1
      1            1.2428E-01  1.2256E-01 -2.3054E-01  4.0978E-02 -2.7565E-02 -3.1214E-02
      61-      1
      1            1.6056E-01  9.1246E-02 -2.4601E-01  3.1035E-04 -4.8926E-03 -2.9688E-02
      67-      1
      1            1.0580E-01  1.2737E-01 -2.2857E-01  1.8809E-02 -3.2147E-02 -1.4615E-02
      79-      1
      1            7.7115E-02  5.9079E-02 -1.4014E-01  2.0571E-03 -2.9010E-03 -2.7725E-03
      81-      1
      1            1.0171E-01  1.4730E-01 -2.4887E-01  2.6938E-03 -3.6153E-02  2.2792E-03



 e l e m e n t   s t r e s s   c a l c u l a t i o n s   f o r   t i m e  s t e p     1676   ( at time 8.16498E+01 )

 element  materl
     ipt  stress       sig-xx      sig-yy      sig-zz      sig-xy      sig-yz      sig-zx                       yield
           state                                                                                  effsg      function
      45-      1
       1          -6.4409E+07 -7.2265E+07 -1.9575E+08  2.7665E+05 -9.4096E+06 -1.5300E+07    1.3133E+08    1.9566E-01
      47-      1
       1          -1.2689E+08 -1.4342E+08 -2.0950E+08  8.5616E+06 -1.2662E+07 -2.4582E+07    9.0805E+07    1.7661E-01
      53-      1
       1          -1.3769E+08 -1.5780E+08 -2.7512E+08  1.1232E+07 -1.1153E+07 -1.4355E+07    1.3379E+08    2.0111E-01
      61-      1
       1          -1.0851E+08 -1.3773E+08 -2.9236E+08  1.3946E+07 -1.0136E+07 -2.1450E+07    1.7763E+08    2.0601E-01
      67-      1
       1          -1.6985E+08 -1.8301E+08 -2.8978E+08  8.3233E+06 -3.0317E+07 -2.0175E+07    1.3101E+08    1.9706E-01
      79-      1
       1          -1.6659E+07 -3.1865E+07 -3.5132E+08  4.2665E+06 -2.5692E+06 -2.9389E+06    3.2748E+08    1.5398E-01
      81-      1
       1          -1.1016E+08 -1.1589E+08 -3.2498E+08  8.0439E+06 -3.3108E+07  3.4525E+06    2.2016E+08    2.2279E-01



 e l e m e n t   s t r a i n   c a l c u l a t i o n s   f o r   t i m e  s t e p     1676   ( at time  8.16498E+01 )

 element  strain       eps-xx      eps-yy      eps-zz      eps-xy      eps-yz      eps-zx                            yield
 num/ipt   state
      45-      1
      1            1.4827E-01  1.1224E-01 -2.5308E-01  1.6699E-02 -1.8119E-02 -3.8188E-02
      47-      1
      1            1.3742E-01  1.3590E-01 -2.4678E-01  4.4932E-02 -3.5743E-02 -2.8897E-02
      53-      1
      1            1.3640E-01  1.3282E-01 -2.5041E-01  4.4696E-02 -2.9407E-02 -3.4025E-02
      61-      1
      1            1.7271E-01  9.7771E-02 -2.6356E-01  2.1016E-04 -5.8897E-03 -3.0630E-02
      67-      1
      1            1.1784E-01  1.3830E-01 -2.4720E-01  2.2757E-02 -3.4852E-02 -1.5361E-02
      79-      1
      1            8.5156E-02  6.6173E-02 -1.5425E-01  2.3965E-03 -3.1646E-03 -2.7922E-03
      81-      1
      1            1.1078E-01  1.5754E-01 -2.6851E-01  3.1743E-03 -3.7680E-02  2.5587E-03



 e l e m e n t   s t r e s s   c a l c u l a t i o n s   f o r   t i m e  s t e p     1686   ( at time 8.62695E+01 )

 element  materl
     ipt  stress       sig-xx      sig-yy      sig-zz      sig-xy      sig-yz      sig-zx                       yield
           state                                                                                  effsg      function
      45-      1
       1          -1.6320E+07 -2.7929E+07 -1.5122E+08  4.9507E+06 -1.1666E+07 -1.9404E+07    1.3556E+08    2.0338E-01
      47-      1
       1          -1.0222E+08 -1.0935E+08 -1.8587E+08  6.2999E+06 -1.6261E+07 -1.9715E+07    9.2357E+07    1.8134E-01
      53-      1
       1          -1.2396E+08 -1.3981E+08 -2.6266E+08  7.7024E+06 -1.3363E+07 -1.5423E+07    1.3681E+08    2.0846E-01
      61-      1
       1          -9.4385E+07 -1.1640E+08 -2.7497E+08  1.1865E+07 -8.2915E+06 -2.5175E+07    1.7790E+08    2.1482E-01
      67-      1
       1          -1.4194E+08 -1.5632E+08 -2.6918E+08  9.2897E+06 -2.3267E+07 -1.7968E+07    1.3198E+08    2.0328E-01
      79-      1
       1           1.7168E+07  1.3399E+07 -3.1838E+08  3.5898E+06 -3.0548E+06 -2.3922E+05    3.3378E+08    1.6556E-01
      81-      1
       1          -1.0479E+08 -1.0836E+08 -3.2044E+08  1.0709E+07 -3.2367E+07 -1.3056E+06    2.2190E+08    2.3310E-01



 e l e m e n t   s t r a i n   c a l c u l a t i o n s   f o r   t i m e  s t e p     1686   ( at time  8.62695E+01 )

 element  strain       eps-xx      eps-yy      eps-zz      eps-xy      eps-yz      eps-zx                            yield
 num/ipt   state
      45-      1
      1            1.6125E-01  1.2034E-01 -2.7149E-01  1.7909E-02 -1.9271E-02 -3.9754E-02
      47-      1
      1            1.4606E-01  1.4598E-01 -2.6345E-01  4.7159E-02 -3.7048E-02 -2.9895E-02
      53-      1
      1            1.4667E-01  1.4093E-01 -2.6810E-01  4.6582E-02 -3.0133E-02 -3.5528E-02
      61-      1
      1            1.8283E-01  1.0430E-01 -2.7920E-01  9.3523E-04 -6.7906E-03 -3.1543E-02
      67-      1
      1            1.2678E-01  1.4671E-01 -2.6252E-01  2.5289E-02 -3.6109E-02 -1.6156E-02
      79-      1
      1            9.1039E-02  7.2066E-02 -1.6559E-01  2.5629E-03 -3.4952E-03 -2.8839E-03
      81-      1
      1            1.1833E-01  1.6615E-01 -2.8403E-01  3.8211E-03 -3.8965E-02  2.5952E-03



 e l e m e n t   s t r e s s   c a l c u l a t i o n s   f o r   t i m e  s t e p     1698   ( at time 9.08891E+01 )

 element  materl
     ipt  stress       sig-xx      sig-yy      sig-zz      sig-xy      sig-yz      sig-zx                       yield
           state                                                                                  effsg      function
      45-      1
       1          -3.4063E+07 -4.5192E+07 -1.6657E+08  3.6997E+06 -1.5600E+07 -2.3695E+07    1.3661E+08    2.1255E-01
      47-      1
       1          -7.1958E+07 -7.5345E+07 -1.5572E+08  8.3619E+06 -1.6255E+07 -1.8125E+07    9.3441E+07    1.8685E-01
      53-      1
       1          -1.2153E+08 -1.3464E+08 -2.5540E+08  1.0714E+07 -1.0880E+07 -1.7169E+07    1.3387E+08    2.1768E-01
      61-      1
       1          -1.5186E+08 -1.7339E+08 -3.3083E+08  1.3284E+07 -1.1110E+07 -2.6466E+07    1.7789E+08    2.2465E-01
      67-      1
       1          -1.5359E+08 -1.6671E+08 -2.8296E+08  9.4680E+06 -2.0799E+07 -1.5875E+07    1.3242E+08    2.1081E-01
      79-      1
       1           1.0567E+08  9.1932E+07 -2.3414E+08  4.2728E+06 -3.5252E+06 -1.0966E+06    3.3330E+08    1.7946E-01
      81-      1
       1          -7.0976E+07 -7.6652E+07 -2.9098E+08  1.4813E+07 -2.4492E+07  8.3996E+05    2.2281E+08    2.4694E-01



 e l e m e n t   s t r a i n   c a l c u l a t i o n s   f o r   t i m e  s t e p     1698   ( at time  9.08891E+01 )

 element  strain       eps-xx      eps-yy      eps-zz      eps-xy      eps-yz      eps-zx                            yield
 num/ipt   state
      45-      1
      1            1.7501E-01  1.2850E-01 -2.9208E-01  1.9007E-02 -2.0855E-02 -4.2980E-02
      47-      1
      1            1.5621E-01  1.5797E-01 -2.8140E-01  5.0774E-02 -3.9460E-02 -3.1571E-02
      53-      1
      1            1.5856E-01  1.5054E-01 -2.8692E-01  5.0023E-02 -3.1941E-02 -3.8870E-02
      61-      1
      1            1.9356E-01  1.1074E-01 -2.9703E-01  1.5843E-03 -8.0186E-03 -3.2433E-02
      67-      1
      1            1.3764E-01  1.5644E-01 -2.8091E-01  2.8389E-02 -3.7988E-02 -1.6617E-02
      79-      1
      1            9.8678E-02  7.8663E-02 -1.7877E-01  2.8403E-03 -3.8432E-03 -2.8486E-03
      81-      1
      1            1.2853E-01  1.7716E-01 -3.0496E-01  5.1235E-03 -4.0518E-02  2.9128E-03



 e l e m e n t   s t r e s s   c a l c u l a t i o n s   f o r   t i m e  s t e p     1711   ( at time 9.55087E+01 )

 element  materl
     ipt  stress       sig-xx      sig-yy      sig-zz      sig-xy      sig-yz      sig-zx                       yield
           state                                                                                  effsg      function
      45-      1
       1          -2.5612E+07 -3.7414E+07 -1.5376E+08  1.4352E+06 -1.8192E+07 -2.4931E+07    1.3384E+08    2.2015E-01
      47-      1
       1          -8.0957E+07 -8.6592E+07 -1.6659E+08  5.1553E+06 -1.4725E+07 -2.0692E+07    9.4321E+07    1.9188E-01
      53-      1
       1          -1.3996E+08 -1.4836E+08 -2.6944E+08  4.8195E+06 -1.3499E+07 -2.1960E+07    1.3346E+08    2.2625E-01
      61-      1
       1          -1.4235E+08 -1.5422E+08 -3.2061E+08  8.2815E+06 -9.1501E+06 -2.8358E+07    1.8075E+08    2.3284E-01
      67-      1
       1          -7.3822E+07 -9.1692E+07 -2.4808E+08  1.1792E+06 -1.7733E+07 -1.5779E+07    1.7107E+08    2.1933E-01
      79-      1
       1           2.2732E+08  2.1965E+08 -6.8241E+07 -5.5312E+06 -4.1606E+06 -6.0611E+06    2.9224E+08    1.9426E-01
      81-      1
       1           1.5518E+07  2.8113E+06 -2.0728E+08  1.3244E+07 -2.6753E+07  2.2535E+06    2.2284E+08    2.5856E-01



 e l e m e n t   s t r a i n   c a l c u l a t i o n s   f o r   t i m e  s t e p     1711   ( at time  9.55087E+01 )

 element  strain       eps-xx      eps-yy      eps-zz      eps-xy      eps-yz      eps-zx                            yield
 num/ipt   state
      45-      1
      1            1.8648E-01  1.3602E-01 -3.1059E-01  1.9540E-02 -2.1699E-02 -4.4090E-02
      47-      1
      1            1.6538E-01  1.6866E-01 -2.9922E-01  5.2728E-02 -4.0557E-02 -3.2933E-02
      53-      1
      1            1.6904E-01  1.5951E-01 -3.0535E-01  5.1388E-02 -3.3579E-02 -4.1234E-02
      61-      1
      1            2.0238E-01  1.1791E-01 -3.1326E-01  2.1210E-03 -8.6047E-03 -3.1650E-02
      67-      1
      1            1.4920E-01  1.6546E-01 -2.9792E-01  3.0189E-02 -3.8911E-02 -1.7024E-02
      79-      1
      1            1.0822E-01  8.7599E-02 -1.9394E-01  2.2106E-03 -4.3757E-03 -3.1848E-03
      81-      1
      1            1.3805E-01  1.8602E-01 -3.2199E-01  5.6538E-03 -4.1429E-02  3.0586E-03



 e l e m e n t   s t r e s s   c a l c u l a t i o n s   f o r   t i m e  s t e p     1726   ( at time 1.00000E+02 )

 element  materl
     ipt  stress       sig-xx      sig-yy      sig-zz      sig-xy      sig-yz      sig-zx                       yield
           state                                                                                  effsg      function
      45-      1
       1          -2.0192E+07 -1.6754E+07 -1.4208E+08  3.6989E+06 -1.3834E+07 -2.7051E+07    1.3453E+08    2.2790E-01
      47-      1
       1          -8.8240E+07 -9.0841E+07 -1.6971E+08  5.2635E+06 -1.7045E+07 -2.3347E+07    9.4988E+07    1.9669E-01
      53-      1
       1          -1.4545E+08 -1.5669E+08 -2.7646E+08  4.7027E+06 -1.4255E+07 -2.4971E+07    1.3552E+08    2.3395E-01
      61-      1
       1          -1.1434E+08 -1.2405E+08 -2.9100E+08  3.7403E+06 -8.6470E+06 -3.1071E+07    1.8097E+08    2.4083E-01
      67-      1
       1          -2.6529E+07 -1.9070E+07 -1.8569E+08 -1.3865E+06 -2.8688E+07 -1.6841E+07    1.7292E+08    2.3035E-01
      79-      1
       1           6.4450E+07  6.3753E+07 -6.1930E+07 -2.7986E+06  2.2233E+06 -2.9987E+06    1.2629E+08    2.0094E-01
      81-      1
       1           6.1418E+07  7.2191E+07 -6.6663E+07  5.3417E+06 -1.8370E+07  7.6877E+06    1.3848E+08    2.7004E-01



 e l e m e n t   s t r a i n   c a l c u l a t i o n s   f o r   t i m e  s t e p     1726   ( at time  1.00000E+02 )

 element  strain       eps-xx      eps-yy      eps-zz      eps-xy      eps-yz      eps-zx                            yield
 num/ipt   state
      45-      1
      1            1.9711E-01  1.4507E-01 -3.2970E-01  1.9753E-02 -2.2195E-02 -4.4560E-02
      47-      1
      1            1.7480E-01  1.7755E-01 -3.1699E-01  5.5689E-02 -4.0743E-02 -3.3105E-02
      53-      1
      1            1.8036E-01  1.6718E-01 -3.2360E-01  5.2538E-02 -3.3457E-02 -4.2170E-02
      61-      1
      1            2.1144E-01  1.2447E-01 -3.2939E-01  1.2548E-03 -9.1127E-03 -3.0354E-02
      67-      1
      1            1.6106E-01  1.7659E-01 -3.1808E-01  3.1664E-02 -4.0557E-02 -1.6796E-02
      79-      1
      1            1.1791E-01  9.8122E-02 -2.0940E-01  1.1519E-03 -5.3542E-03 -3.6627E-03
      81-      1
      1            1.5015E-01  2.0351E-01 -3.4714E-01  7.0274E-03 -4.3951E-02  3.6404E-03
