 LS-DYNA keyword deck by LS-PrePost                                      
                    ls-dyna smp d R14 R14.1.1s_1_ef50e1 date 06/16/2024
 single point constraint forces

 output at time =   0.00000E+00
 node=    45 local x,y,z forces =    0.0000E+00   -8.4366E-15    2.0768E-14  setid=       0
 node=    45 local x,y,z moments=    1.6559E-18   -3.8871E-18    5.1419E-18  setid=       0
 node=    46 local x,y,z forces =    0.0000E+00    2.5220E-13    4.1899E-13  setid=       0
 node=    46 local x,y,z moments=    1.2035E-17   -8.7601E-18    9.7717E-18  setid=       0
 node=    47 local x,y,z forces =    0.0000E+00    3.4792E-13    4.2051E-13  setid=       0
 node=    47 local x,y,z moments=    1.1908E-17    3.7823E-18    1.4854E-17  setid=       0
 node=    48 local x,y,z forces =    0.0000E+00    5.5402E-13    2.5847E-13  setid=       0
 node=    48 local x,y,z moments=   -5.8133E-18    1.0139E-17   -8.9903E-18  setid=       0
 node=    49 local x,y,z forces =    0.0000E+00    2.5831E-13    2.2832E-13  setid=       0
 node=    49 local x,y,z moments=   -7.9733E-18   -7.0390E-18    3.5412E-18  setid=       0
 node=    50 local x,y,z forces =    0.0000E+00    2.3498E-13    1.7236E-13  setid=       0
 node=    50 local x,y,z moments=   -1.1501E-17    1.3454E-17   -3.0887E-18  setid=       0
 node=    51 local x,y,z forces =    0.0000E+00    1.8246E-13    9.2923E-14  setid=       0
 node=    51 local x,y,z moments=   -9.7645E-18   -1.4886E-18   -5.3665E-18  setid=       0
 node=    52 local x,y,z forces =    0.0000E+00    2.5527E-13    1.6443E-13  setid=       0
 node=    52 local x,y,z moments=   -6.6352E-18    6.6802E-18    3.7038E-18  setid=       0
 node=    53 local x,y,z forces =    1.5322E-13    1.6228E-13    7.6045E-14  setid=       0
 node=    53 local x,y,z moments=    2.7636E-18   -3.6819E-18    4.1720E-19  setid=       0
 node=    54 local x,y,z forces =    2.5859E-13    0.0000E+00    9.9158E-14  setid=       0
 node=    54 local x,y,z moments=   -5.4904E-18    6.4685E-18   -4.5443E-18  setid=       0
 node=    55 local x,y,z forces =    3.4453E-13    0.0000E+00    1.6058E-13  setid=       0
 node=    55 local x,y,z moments=    4.7666E-18    7.6198E-18    2.2826E-18  setid=       0
 node=    56 local x,y,z forces =    1.5899E-13    0.0000E+00    7.4243E-14  setid=       0
 node=    56 local x,y,z moments=   -5.9480E-18   -1.8042E-18    3.9250E-18  setid=       0
 node=    57 local x,y,z forces =    4.3165E-14    0.0000E+00    1.2187E-13  setid=       0
 node=    57 local x,y,z moments=    4.7791E-18    1.5754E-18   -8.6317E-19  setid=       0
 node=    58 local x,y,z forces =    1.2178E-13    0.0000E+00    1.5012E-13  setid=       0
 node=    58 local x,y,z moments=   -2.1986E-18    6.7908E-18   -7.0286E-18  setid=       0
 node=    59 local x,y,z forces =    2.1976E-13    0.0000E+00    1.9605E-13  setid=       0
 node=    59 local x,y,z moments=    7.9681E-18    1.9887E-18    4.0451E-18  setid=       0
 node=    60 local x,y,z forces =    2.0359E-13    0.0000E+00    3.9673E-13  setid=       0
 node=    60 local x,y,z moments=   -1.2400E-17   -1.2845E-17    6.3736E-18  setid=       0
 node=    61 local x,y,z forces =    7.4180E-15    0.0000E+00    5.8128E-14  setid=       0
 node=    61 local x,y,z moments=    7.4559E-18   -5.7756E-18   -1.5803E-17  setid=       0
 node=    62 local x,y,z forces =    0.0000E+00    0.0000E+00    9.6583E-14  setid=       0
 node=    62 local x,y,z moments=    1.5952E-17   -3.2552E-18    0.0000E+00  setid=       0
 node=    63 local x,y,z forces =    0.0000E+00    0.0000E+00    2.3319E-13  setid=       0
 node=    63 local x,y,z moments=    1.3134E-17   -9.1689E-18    0.0000E+00  setid=       0
 node=    64 local x,y,z forces =    0.0000E+00    0.0000E+00    1.3836E-13  setid=       0
 node=    64 local x,y,z moments=    1.3035E-17    6.4819E-18    0.0000E+00  setid=       0
 node=    65 local x,y,z forces =    0.0000E+00    0.0000E+00    2.5145E-13  setid=       0
 node=    65 local x,y,z moments=    9.4624E-18   -1.0223E-17    0.0000E+00  setid=       0
 node=    66 local x,y,z forces =    0.0000E+00    0.0000E+00   -6.4242E-15  setid=       0
 node=    66 local x,y,z moments=    2.6297E-18   -3.5569E-18    0.0000E+00  setid=       0
 node=    67 local x,y,z forces =    0.0000E+00    0.0000E+00   -2.2992E-14  setid=       0
 node=    67 local x,y,z moments=    2.7714E-18   -7.6724E-18    0.0000E+00  setid=       0
 node=    68 local x,y,z forces =    0.0000E+00    0.0000E+00   -5.5124E-15  setid=       0
 node=    68 local x,y,z moments=    9.9765E-19   -7.7464E-18    0.0000E+00  setid=       0
 node=    69 local x,y,z forces =    0.0000E+00    0.0000E+00    3.0026E-13  setid=       0
 node=    69 local x,y,z moments=    1.4231E-17   -8.4573E-18    0.0000E+00  setid=       0
 node=    70 local x,y,z forces =    0.0000E+00    0.0000E+00    8.1178E-14  setid=       0
 node=    70 local x,y,z moments=    5.5934E-19   -3.5097E-19    0.0000E+00  setid=       0
 node=    71 local x,y,z forces =    0.0000E+00    0.0000E+00    7.1241E-15  setid=       0
 node=    71 local x,y,z moments=    2.9501E-19    8.7466E-19    0.0000E+00  setid=       0
 node=    72 local x,y,z forces =    0.0000E+00    0.0000E+00    2.9089E-13  setid=       0
 node=    72 local x,y,z moments=    6.4016E-18   -9.9519E-18    0.0000E+00  setid=       0
 node=    73 local x,y,z forces =    0.0000E+00    0.0000E+00    4.4882E-13  setid=       0
 node=    73 local x,y,z moments=    4.3724E-18   -8.7711E-18    0.0000E+00  setid=       0
 node=    74 local x,y,z forces =    0.0000E+00    0.0000E+00   -1.0214E-14  setid=       0
 node=    74 local x,y,z moments=    3.8854E-18    2.4058E-18    0.0000E+00  setid=       0
 node=    75 local x,y,z forces =    0.0000E+00    0.0000E+00    6.0493E-14  setid=       0
 node=    75 local x,y,z moments=    6.9698E-18    1.5595E-18    0.0000E+00  setid=       0
 node=    76 local x,y,z forces =    0.0000E+00    0.0000E+00    1.0805E-13  setid=       0
 node=    76 local x,y,z moments=   -1.1462E-17    1.1768E-18    0.0000E+00  setid=       0
 node=    77 local x,y,z forces =    0.0000E+00    0.0000E+00    3.0928E-13  setid=       0
 node=    77 local x,y,z moments=   -8.0930E-19   -1.9714E-18    0.0000E+00  setid=       0
 node=    78 local x,y,z forces =    0.0000E+00    0.0000E+00    3.1447E-13  setid=       0
 node=    78 local x,y,z moments=   -9.1350E-18    1.4132E-17    0.0000E+00  setid=       0
 node=    79 local x,y,z forces =    0.0000E+00    0.0000E+00    1.6866E-13  setid=       0
 node=    79 local x,y,z moments=   -9.7577E-19   -9.5506E-18    0.0000E+00  setid=       0
 node=    80 local x,y,z forces =    0.0000E+00    0.0000E+00    3.4693E-13  setid=       0
 node=    80 local x,y,z moments=   -2.9171E-18    4.3896E-18    0.0000E+00  setid=       0
 node=    81 local x,y,z forces =    0.0000E+00    0.0000E+00    3.9745E-13  setid=       0
 node=    81 local x,y,z moments=    5.5617E-18    6.2916E-18    0.0000E+00  setid=       0
 node=    82 local x,y,z forces =    0.0000E+00    0.0000E+00    2.5034E-13  setid=       0
 node=    82 local x,y,z moments=    4.3937E-18    4.6084E-18    0.0000E+00  setid=       0
 node=    83 local x,y,z forces =    0.0000E+00    0.0000E+00    3.4985E-13  setid=       0
 node=    83 local x,y,z moments=    2.1876E-18    1.5271E-18    0.0000E+00  setid=       0
 node=    84 local x,y,z forces =    0.0000E+00    0.0000E+00    4.0872E-13  setid=       0
 node=    84 local x,y,z moments=   -3.6406E-18    4.0861E-18    0.0000E+00  setid=       0
 node=    85 local x,y,z forces =    0.0000E+00    0.0000E+00    1.2639E-13  setid=       0
 node=    85 local x,y,z moments=   -5.8202E-18    1.3189E-17    0.0000E+00  setid=       0
 node=    86 local x,y,z forces =    0.0000E+00    0.0000E+00    2.8822E-13  setid=       0
 node=    86 local x,y,z moments=   -1.4654E-17   -1.8589E-17    0.0000E+00  setid=       0
 node=    87 local x,y,z forces =    0.0000E+00    0.0000E+00    5.6613E-13  setid=       0
 node=    87 local x,y,z moments=   -2.8463E-17   -1.2929E-17    0.0000E+00  setid=       0
 node=    88 local x,y,z forces =    0.0000E+00    0.0000E+00    1.4474E-13  setid=       0
 node=    88 local x,y,z moments=   -2.2665E-17   -4.0189E-18    0.0000E+00  setid=       0
 node=    89 local x,y,z forces =    0.0000E+00    0.0000E+00    7.4246E-13  setid=       0
 node=    89 local x,y,z moments=    8.7498E-18    1.4547E-20    0.0000E+00  setid=       0
 node=    90 local x,y,z forces =    0.0000E+00    0.0000E+00    6.2464E-13  setid=       0
 node=    90 local x,y,z moments=    2.5200E-17   -2.3308E-18    0.0000E+00  setid=       0
 node=    91 local x,y,z forces =    0.0000E+00    0.0000E+00    4.0713E-13  setid=       0
 node=    91 local x,y,z moments=   -8.8424E-18    1.4945E-17    0.0000E+00  setid=       0
 node=    92 local x,y,z forces =    0.0000E+00    0.0000E+00    7.5584E-13  setid=       0
 node=    92 local x,y,z moments=    1.5221E-17    1.0790E-17    0.0000E+00  setid=       0
 node=    93 local x,y,z forces =    0.0000E+00    0.0000E+00    4.4682E-13  setid=       0
 node=    93 local x,y,z moments=   -3.5065E-18    2.8594E-18    0.0000E+00  setid=       0
 node=    94 local x,y,z forces =    0.0000E+00    0.0000E+00    4.0096E-13  setid=       0
 node=    94 local x,y,z moments=   -3.9223E-18   -6.2677E-18    0.0000E+00  setid=       0
 node=    95 local x,y,z forces =    0.0000E+00    0.0000E+00    5.9950E-13  setid=       0
 node=    95 local x,y,z moments=   -6.5299E-19   -7.3626E-18    0.0000E+00  setid=       0
 node=    96 local x,y,z forces =    0.0000E+00    0.0000E+00    6.1117E-13  setid=       0
 node=    96 local x,y,z moments=   -5.1735E-18    9.5622E-18    0.0000E+00  setid=       0
 node=    97 local x,y,z forces =    0.0000E+00    0.0000E+00    4.6528E-14  setid=       0
 node=    97 local x,y,z moments=   -4.0948E-18   -2.8972E-18    0.0000E+00  setid=       0
 node=    98 local x,y,z forces =    0.0000E+00    0.0000E+00    1.7133E-13  setid=       0
 node=    98 local x,y,z moments=    1.0792E-17    7.0237E-18    0.0000E+00  setid=       0
 node=    99 local x,y,z forces =    0.0000E+00    0.0000E+00    4.8142E-13  setid=       0
 node=    99 local x,y,z moments=   -1.1804E-17    4.1452E-18    0.0000E+00  setid=       0
 node=   100 local x,y,z forces =    0.0000E+00    0.0000E+00    4.5028E-13  setid=       0
 node=   100 local x,y,z moments=    4.9094E-18   -1.4473E-17    0.0000E+00  setid=       0
 node=   101 local x,y,z forces =    0.0000E+00    0.0000E+00    7.2935E-13  setid=       0
 node=   101 local x,y,z moments=    1.2338E-17   -1.4513E-17    0.0000E+00  setid=       0
 node=   102 local x,y,z forces =    0.0000E+00    0.0000E+00    6.0461E-13  setid=       0
 node=   102 local x,y,z moments=   -9.4138E-18   -8.4989E-18    0.0000E+00  setid=       0
 node=   103 local x,y,z forces =    0.0000E+00    0.0000E+00    3.1232E-13  setid=       0
 node=   103 local x,y,z moments=    5.6853E-19    2.2901E-17    0.0000E+00  setid=       0
 node=   104 local x,y,z forces =    0.0000E+00    0.0000E+00    5.0930E-13  setid=       0
 node=   104 local x,y,z moments=   -1.4877E-17    1.5674E-17    0.0000E+00  setid=       0
 node=   105 local x,y,z forces =    0.0000E+00    0.0000E+00    6.2166E-13  setid=       0
 node=   105 local x,y,z moments=    5.5668E-18    5.1920E-18    0.0000E+00  setid=       0
 node=   157 local x,y,z forces =    0.0000E+00    5.6414E-13    0.0000E+00  setid=       0
 node=   157 local x,y,z moments=    9.5746E-18    0.0000E+00    2.2995E-17  setid=       0
 node=   158 local x,y,z forces =    0.0000E+00   -1.6447E-14    0.0000E+00  setid=       0
 node=   158 local x,y,z moments=    1.1119E-18    0.0000E+00    1.0423E-17  setid=       0
 node=   161 local x,y,z forces =    0.0000E+00    3.0864E-13    0.0000E+00  setid=       0
 node=   161 local x,y,z moments=    1.0344E-17    0.0000E+00    3.5134E-17  setid=       0
 node=   162 local x,y,z forces =    0.0000E+00    9.5105E-14    0.0000E+00  setid=       0
 node=   162 local x,y,z moments=   -9.2259E-18    0.0000E+00    4.2844E-18  setid=       0
 node=   165 local x,y,z forces =    0.0000E+00    2.3864E-13    0.0000E+00  setid=       0
 node=   165 local x,y,z moments=    4.4789E-18    0.0000E+00    1.4909E-17  setid=       0
 node=   166 local x,y,z forces =    0.0000E+00    1.0464E-13    0.0000E+00  setid=       0
 node=   166 local x,y,z moments=    1.1891E-17    0.0000E+00   -1.0410E-17  setid=       0
 node=   169 local x,y,z forces =    0.0000E+00    1.7193E-13    0.0000E+00  setid=       0
 node=   169 local x,y,z moments=    2.5351E-17    0.0000E+00    1.8334E-17  setid=       0
 node=   170 local x,y,z forces =    0.0000E+00    1.3331E-13    0.0000E+00  setid=       0
 node=   170 local x,y,z moments=    3.8812E-17    0.0000E+00    2.2829E-18  setid=       0
 node=   173 local x,y,z forces =    0.0000E+00    8.8938E-13    0.0000E+00  setid=       0
 node=   173 local x,y,z moments=   -3.2433E-17    0.0000E+00   -1.8380E-17  setid=       0
 node=   174 local x,y,z forces =    0.0000E+00    3.3624E-13    0.0000E+00  setid=       0
 node=   174 local x,y,z moments=    6.1566E-17    0.0000E+00    5.7678E-17  setid=       0
 node=   192 local x,y,z forces =    5.7089E-13    0.0000E+00    0.0000E+00  setid=       0
 node=   192 local x,y,z moments=    0.0000E+00    2.1553E-17   -1.5742E-17  setid=       0
 node=   193 local x,y,z forces =    9.2694E-14    3.7616E-14    0.0000E+00  setid=       0
 node=   193 local x,y,z moments=   -2.8687E-18    1.0739E-17   -4.6216E-18  setid=       0
 node=   194 local x,y,z forces =    0.0000E+00    4.9064E-13    0.0000E+00  setid=       0
 node=   194 local x,y,z moments=   -1.7494E-18    0.0000E+00    1.0598E-17  setid=       0
 node=   196 local x,y,z forces =    3.1475E-13    0.0000E+00    0.0000E+00  setid=       0
 node=   196 local x,y,z moments=    0.0000E+00   -3.0045E-17   -8.9955E-18  setid=       0
 node=   197 local x,y,z forces =    9.3290E-14    1.9675E-14    0.0000E+00  setid=       0
 node=   197 local x,y,z moments=    1.5278E-18   -7.4924E-18   -5.1368E-18  setid=       0
 node=   198 local x,y,z forces =    0.0000E+00    4.1546E-13    0.0000E+00  setid=       0
 node=   198 local x,y,z moments=   -1.4280E-18    0.0000E+00    1.3090E-17  setid=       0
 node=   200 local x,y,z forces =    5.5669E-13    0.0000E+00    0.0000E+00  setid=       0
 node=   200 local x,y,z moments=    0.0000E+00    5.4422E-18    9.6080E-19  setid=       0
 node=   201 local x,y,z forces =    2.1506E-13    7.3469E-14    0.0000E+00  setid=       0
 node=   201 local x,y,z moments=    5.4478E-18    9.4866E-20   -4.6246E-18  setid=       0
 node=   202 local x,y,z forces =    0.0000E+00    7.9492E-13    0.0000E+00  setid=       0
 node=   202 local x,y,z moments=    1.2417E-17    0.0000E+00    2.4065E-17  setid=       0
 node=   204 local x,y,z forces =    4.7753E-13    0.0000E+00    0.0000E+00  setid=       0
 node=   204 local x,y,z moments=    0.0000E+00    6.8553E-18   -7.0157E-18  setid=       0
 node=   205 local x,y,z forces =    3.8288E-13    2.5239E-13    0.0000E+00  setid=       0
 node=   205 local x,y,z moments=   -1.3699E-17   -6.7617E-18   -2.7511E-19  setid=       0
 node=   206 local x,y,z forces =    0.0000E+00    5.8002E-13    0.0000E+00  setid=       0
 node=   206 local x,y,z moments=   -4.0469E-18    0.0000E+00    3.6711E-18  setid=       0
 node=   208 local x,y,z forces =    6.9296E-13    0.0000E+00    0.0000E+00  setid=       0
 node=   208 local x,y,z moments=    0.0000E+00    1.3595E-17   -3.8339E-18  setid=       0
 node=   209 local x,y,z forces =    4.5045E-13    4.5565E-13    0.0000E+00  setid=       0
 node=   209 local x,y,z moments=    5.5063E-18    2.7212E-17   -3.7834E-18  setid=       0
 node=   210 local x,y,z forces =    0.0000E+00    6.9063E-13    0.0000E+00  setid=       0
 node=   210 local x,y,z moments=    6.0610E-18    0.0000E+00    2.9103E-18  setid=       0
 node=   217 local x,y,z forces =    1.2974E-13    0.0000E+00    0.0000E+00  setid=       0
 node=   217 local x,y,z moments=    0.0000E+00    1.0953E-17   -7.4337E-18  setid=       0
 node=   218 local x,y,z forces =    3.3562E-13    0.0000E+00    0.0000E+00  setid=       0
 node=   218 local x,y,z moments=    0.0000E+00    1.0107E-17    1.9376E-17  setid=       0
 node=   221 local x,y,z forces =    1.9047E-13    0.0000E+00    0.0000E+00  setid=       0
 node=   221 local x,y,z moments=    0.0000E+00   -9.4125E-18   -3.2312E-18  setid=       0
 node=   222 local x,y,z forces =    2.2841E-13    0.0000E+00    0.0000E+00  setid=       0
 node=   222 local x,y,z moments=    0.0000E+00   -2.1838E-17    1.5254E-17  setid=       0
 node=   225 local x,y,z forces =    1.4279E-13    0.0000E+00    0.0000E+00  setid=       0
 node=   225 local x,y,z moments=    0.0000E+00    1.2896E-18   -1.4242E-18  setid=       0
 node=   226 local x,y,z forces =    2.5802E-13    0.0000E+00    0.0000E+00  setid=       0
 node=   226 local x,y,z moments=    0.0000E+00    1.5340E-18    6.1382E-18  setid=       0
 node=   229 local x,y,z forces =    6.1724E-13    0.0000E+00    0.0000E+00  setid=       0
 node=   229 local x,y,z moments=    0.0000E+00   -2.2012E-18   -2.8492E-18  setid=       0
 node=   230 local x,y,z forces =    2.8577E-13    0.0000E+00    0.0000E+00  setid=       0
 node=   230 local x,y,z moments=    0.0000E+00    3.2692E-18    2.7409E-18  setid=       0
 node=   233 local x,y,z forces =    5.0424E-13    0.0000E+00    0.0000E+00  setid=       0
 node=   233 local x,y,z moments=    0.0000E+00    1.4377E-17    2.3750E-17  setid=       0
 node=   234 local x,y,z forces =    8.0169E-13    0.0000E+00    0.0000E+00  setid=       0
 node=   234 local x,y,z moments=    0.0000E+00    1.6755E-17    1.5968E-17  setid=       0
 node=   251 local x,y,z forces =    0.0000E+00    3.1407E-13    0.0000E+00  setid=       0
 node=   251 local x,y,z moments=    9.9495E-18    0.0000E+00   -5.4460E-18  setid=       0
 node=   252 local x,y,z forces =    0.0000E+00    3.3503E-13    0.0000E+00  setid=       0
 node=   252 local x,y,z moments=   -1.0620E-17    0.0000E+00   -5.2672E-18  setid=       0
 node=   253 local x,y,z forces =    0.0000E+00    5.1247E-13    0.0000E+00  setid=       0
 node=   253 local x,y,z moments=   -7.4355E-18    0.0000E+00   -2.4939E-18  setid=       0
 node=   254 local x,y,z forces =    0.0000E+00    3.2980E-13    0.0000E+00  setid=       0
 node=   254 local x,y,z moments=    1.2129E-17    0.0000E+00    8.5318E-18  setid=       0
 node=   255 local x,y,z forces =    0.0000E+00    6.4261E-13    0.0000E+00  setid=       0
 node=   255 local x,y,z moments=   -2.2443E-18    0.0000E+00    7.6093E-18  setid=       0
 node=   262 local x,y,z forces =    7.1723E-13    0.0000E+00    0.0000E+00  setid=       0
 node=   262 local x,y,z moments=    0.0000E+00   -4.0850E-18   -3.7599E-18  setid=       0
 node=   263 local x,y,z forces =    6.6398E-13    0.0000E+00    0.0000E+00  setid=       0
 node=   263 local x,y,z moments=    0.0000E+00    3.5401E-18   -4.6296E-18  setid=       0
 node=   265 local x,y,z forces =    5.9652E-13    0.0000E+00    0.0000E+00  setid=       0
 node=   265 local x,y,z moments=    0.0000E+00    2.5995E-17   -6.9084E-18  setid=       0
 node=   266 local x,y,z forces =    5.6777E-13    0.0000E+00    0.0000E+00  setid=       0
 node=   266 local x,y,z moments=    0.0000E+00    2.6817E-17   -3.2305E-17  setid=       0
 node=   268 local x,y,z forces =    6.6692E-13    0.0000E+00    0.0000E+00  setid=       0
 node=   268 local x,y,z moments=    0.0000E+00    7.9322E-19    2.0065E-17  setid=       0
 node=   269 local x,y,z forces =    7.2934E-13    0.0000E+00    0.0000E+00  setid=       0
 node=   269 local x,y,z moments=    0.0000E+00   -2.4932E-17    1.0828E-17  setid=       0
 node=   271 local x,y,z forces =    2.3839E-13    0.0000E+00    0.0000E+00  setid=       0
 node=   271 local x,y,z moments=    0.0000E+00   -2.7454E-17   -7.5460E-18  setid=       0
 node=   272 local x,y,z forces =    3.1963E-13    0.0000E+00    0.0000E+00  setid=       0
 node=   272 local x,y,z moments=    0.0000E+00    1.9893E-18    1.0799E-17  setid=       0
 node=   274 local x,y,z forces =    6.5806E-13    0.0000E+00    0.0000E+00  setid=       0
 node=   274 local x,y,z moments=    0.0000E+00    9.4924E-18   -2.0315E-17  setid=       0
 node=   275 local x,y,z forces =    4.9297E-13    0.0000E+00    0.0000E+00  setid=       0
 node=   275 local x,y,z moments=    0.0000E+00    2.3093E-17   -1.6263E-17  setid=       0
 node=   277 local x,y,z forces =    0.0000E+00    7.9427E-13    0.0000E+00  setid=       0
 node=   277 local x,y,z moments=   -8.7303E-18    0.0000E+00    1.3031E-17  setid=       0
 node=   279 local x,y,z forces =    0.0000E+00    4.6849E-13    0.0000E+00  setid=       0
 node=   279 local x,y,z moments=    2.8936E-18    0.0000E+00    3.9978E-18  setid=       0
 node=   281 local x,y,z forces =    0.0000E+00    2.2083E-13    0.0000E+00  setid=       0
 node=   281 local x,y,z moments=    2.0078E-17    0.0000E+00    1.5929E-17  setid=       0
 node=   283 local x,y,z forces =    0.0000E+00    1.7209E-13    0.0000E+00  setid=       0
 node=   283 local x,y,z moments=   -1.2679E-18    0.0000E+00   -4.6490E-18  setid=       0
 node=   285 local x,y,z forces =    0.0000E+00    5.1580E-13    0.0000E+00  setid=       0
 node=   285 local x,y,z moments=    9.3917E-18    0.0000E+00   -3.6266E-17  setid=       0
 node=   376 local x,y,z forces =    3.4734E-13    0.0000E+00    0.0000E+00  setid=       0
 node=   376 local x,y,z moments=    0.0000E+00    6.9286E-18    3.8305E-18  setid=       0
 node=   377 local x,y,z forces =    2.3964E-13    0.0000E+00    0.0000E+00  setid=       0
 node=   377 local x,y,z moments=    0.0000E+00    2.8513E-18    1.9026E-18  setid=       0
 node=   378 local x,y,z forces =    2.6341E-13    0.0000E+00    0.0000E+00  setid=       0
 node=   378 local x,y,z moments=    0.0000E+00   -5.6235E-18   -1.4127E-17  setid=       0
 node=   379 local x,y,z forces =    4.1341E-13    0.0000E+00    0.0000E+00  setid=       0
 node=   379 local x,y,z moments=    0.0000E+00   -6.5737E-19   -1.2387E-17  setid=       0
 node=   380 local x,y,z forces =    4.1351E-13    0.0000E+00    0.0000E+00  setid=       0
 node=   380 local x,y,z moments=    0.0000E+00   -4.4702E-18   -1.8878E-17  setid=       0
 node=   381 local x,y,z forces =    5.0745E-13    0.0000E+00    0.0000E+00  setid=       0
 node=   381 local x,y,z moments=    0.0000E+00    2.1735E-19   -3.3621E-21  setid=       0
 node=   382 local x,y,z forces =    4.4374E-13    0.0000E+00    0.0000E+00  setid=       0
 node=   382 local x,y,z moments=    0.0000E+00    1.5840E-17   -3.9183E-18  setid=       0
 node=   383 local x,y,z forces =    6.9828E-13    0.0000E+00    0.0000E+00  setid=       0
 node=   383 local x,y,z moments=    0.0000E+00   -1.6689E-17   -2.1732E-17  setid=       0
 node=   384 local x,y,z forces =    3.7369E-13    0.0000E+00    0.0000E+00  setid=       0
 node=   384 local x,y,z moments=    0.0000E+00   -9.1254E-19    3.4662E-18  setid=       0
 node=   385 local x,y,z forces =    5.5101E-13    0.0000E+00    0.0000E+00  setid=       0
 node=   385 local x,y,z moments=    0.0000E+00   -1.0633E-17    3.3091E-17  setid=       0
 node=   391 local x,y,z forces =    0.0000E+00    4.5256E-13    0.0000E+00  setid=       0
 node=   391 local x,y,z moments=    1.3060E-17    0.0000E+00   -9.9421E-18  setid=       0
 node=   392 local x,y,z forces =    0.0000E+00    3.8357E-13    0.0000E+00  setid=       0
 node=   392 local x,y,z moments=   -4.1733E-18    0.0000E+00   -6.4771E-18  setid=       0
 node=   393 local x,y,z forces =    0.0000E+00    2.5917E-13    0.0000E+00  setid=       0
 node=   393 local x,y,z moments=   -5.9952E-18    0.0000E+00   -1.7845E-17  setid=       0
 node=   394 local x,y,z forces =    0.0000E+00    2.4061E-13    0.0000E+00  setid=       0
 node=   394 local x,y,z moments=    4.3202E-18    0.0000E+00   -2.2981E-17  setid=       0
 node=   395 local x,y,z forces =    0.0000E+00    5.5541E-13    0.0000E+00  setid=       0
 node=   395 local x,y,z moments=   -1.0107E-17    0.0000E+00   -1.2134E-17  setid=       0
 node=   396 local x,y,z forces =    0.0000E+00    4.0396E-13    0.0000E+00  setid=       0
 node=   396 local x,y,z moments=    1.1153E-17    0.0000E+00    6.2301E-18  setid=       0
 node=   397 local x,y,z forces =    0.0000E+00    4.0922E-13    0.0000E+00  setid=       0
 node=   397 local x,y,z moments=    1.6292E-17    0.0000E+00   -1.0312E-17  setid=       0
 node=   398 local x,y,z forces =    0.0000E+00    4.6289E-13    0.0000E+00  setid=       0
 node=   398 local x,y,z moments=   -1.3968E-17    0.0000E+00    1.2086E-17  setid=       0
 node=   399 local x,y,z forces =    0.0000E+00    6.2051E-13    0.0000E+00  setid=       0
 node=   399 local x,y,z moments=   -7.6139E-18    0.0000E+00    4.5301E-18  setid=       0
 node=   400 local x,y,z forces =    0.0000E+00    6.6319E-13    0.0000E+00  setid=       0
 node=   400 local x,y,z moments=   -1.6854E-17    0.0000E+00    1.3011E-17  setid=       0
 node=   401 local x,y,z forces =    0.0000E+00    1.1448E-12    0.0000E+00  setid=       0
 node=   401 local x,y,z moments=   -5.8827E-18    0.0000E+00   -1.2900E-18  setid=       0
 node=   402 local x,y,z forces =    0.0000E+00    3.3294E-13    0.0000E+00  setid=       0
 node=   402 local x,y,z moments=    9.5648E-18    0.0000E+00    1.4943E-17  setid=       0
 node=   403 local x,y,z forces =    0.0000E+00    7.4025E-13    0.0000E+00  setid=       0
 node=   403 local x,y,z moments=    2.7224E-17    0.0000E+00   -1.0332E-18  setid=       0
 node=   404 local x,y,z forces =    0.0000E+00    4.7408E-13    0.0000E+00  setid=       0
 node=   404 local x,y,z moments=   -3.4134E-17    0.0000E+00   -2.2174E-17  setid=       0
 node=   405 local x,y,z forces =    0.0000E+00    5.6993E-13    0.0000E+00  setid=       0
 node=   405 local x,y,z moments=   -2.9145E-17    0.0000E+00    1.3760E-17  setid=       0
 node=   406 local x,y,z forces =   -8.1856E-15    0.0000E+00    0.0000E+00  setid=       0
 node=   406 local x,y,z moments=    0.0000E+00   -1.4901E-18   -1.8646E-17  setid=       0
 node=   407 local x,y,z forces =    2.0780E-13    0.0000E+00    0.0000E+00  setid=       0
 node=   407 local x,y,z moments=    0.0000E+00   -2.6067E-17   -3.0170E-17  setid=       0
 node=   408 local x,y,z forces =    5.1047E-13    0.0000E+00    0.0000E+00  setid=       0
 node=   408 local x,y,z moments=    0.0000E+00   -4.3562E-17   -3.1074E-17  setid=       0
 node=   409 local x,y,z forces =    4.8181E-14    0.0000E+00    0.0000E+00  setid=       0
 node=   409 local x,y,z moments=    0.0000E+00   -7.5842E-18   -1.0142E-18  setid=       0
 node=   410 local x,y,z forces =    4.7432E-13    0.0000E+00    0.0000E+00  setid=       0
 node=   410 local x,y,z moments=    0.0000E+00    3.4113E-18   -4.8836E-18  setid=       0
 node=   595 local x,y,z forces =    0.0000E+00    2.9540E-13    0.0000E+00  setid=       0
 node=   595 local x,y,z moments=   -1.2005E-17    0.0000E+00   -2.3547E-18  setid=       0
 node=   598 local x,y,z forces =    0.0000E+00    4.1796E-13    0.0000E+00  setid=       0
 node=   598 local x,y,z moments=    2.2839E-17    0.0000E+00   -7.4917E-18  setid=       0
 node=   599 local x,y,z forces =    0.0000E+00    6.2343E-13    0.0000E+00  setid=       0
 node=   599 local x,y,z moments=    2.7394E-17    0.0000E+00    1.0953E-17  setid=       0
 node=   602 local x,y,z forces =    0.0000E+00    3.0833E-13    0.0000E+00  setid=       0
 node=   602 local x,y,z moments=    3.9809E-18    0.0000E+00   -1.0364E-17  setid=       0
 node=   603 local x,y,z forces =    0.0000E+00    1.2054E-12    0.0000E+00  setid=       0
 node=   603 local x,y,z moments=   -1.3897E-17    0.0000E+00   -1.4772E-17  setid=       0
 node=   606 local x,y,z forces =    0.0000E+00    9.5600E-13    0.0000E+00  setid=       0
 node=   606 local x,y,z moments=   -3.1623E-17    0.0000E+00    2.3991E-18  setid=       0
 node=   607 local x,y,z forces =    0.0000E+00    8.2982E-13    0.0000E+00  setid=       0
 node=   607 local x,y,z moments=   -1.3402E-18    0.0000E+00   -6.2234E-18  setid=       0
 node=   610 local x,y,z forces =    0.0000E+00    7.2033E-13    0.0000E+00  setid=       0
 node=   610 local x,y,z moments=    5.0514E-18    0.0000E+00   -8.5152E-18  setid=       0
 node=   611 local x,y,z forces =    0.0000E+00    6.9798E-13    0.0000E+00  setid=       0
 node=   611 local x,y,z moments=   -1.7287E-17    0.0000E+00   -1.0705E-18  setid=       0
 node=   614 local x,y,z forces =    0.0000E+00    4.7927E-13    0.0000E+00  setid=       0
 node=   614 local x,y,z moments=    9.2985E-18    0.0000E+00   -3.2660E-18  setid=       0
 node=   615 local x,y,z forces =    0.0000E+00    7.9951E-13    0.0000E+00  setid=       0
 node=   615 local x,y,z moments=    1.6182E-17    0.0000E+00    1.0054E-17  setid=       0
 node=   618 local x,y,z forces =    0.0000E+00    4.1636E-13    0.0000E+00  setid=       0
 node=   618 local x,y,z moments=   -9.3451E-18    0.0000E+00   -6.8701E-18  setid=       0
 node=   619 local x,y,z forces =    0.0000E+00    2.9056E-13    0.0000E+00  setid=       0
 node=   619 local x,y,z moments=   -1.1858E-18    0.0000E+00    1.5418E-17  setid=       0
 node=   622 local x,y,z forces =    0.0000E+00    3.4448E-13    0.0000E+00  setid=       0
 node=   622 local x,y,z moments=    1.8453E-17    0.0000E+00   -1.9278E-17  setid=       0
 node=   623 local x,y,z forces =    0.0000E+00    2.1708E-13    0.0000E+00  setid=       0
 node=   623 local x,y,z moments=    5.3087E-19    0.0000E+00    1.0777E-18  setid=       0
 node=   626 local x,y,z forces =    0.0000E+00    4.1286E-13    0.0000E+00  setid=       0
 node=   626 local x,y,z moments=    2.3530E-18    0.0000E+00   -3.6005E-19  setid=       0
 node=   627 local x,y,z forces =    0.0000E+00    2.8974E-13    0.0000E+00  setid=       0
 node=   627 local x,y,z moments=    1.3757E-18    0.0000E+00   -1.6468E-17  setid=       0
 node=   630 local x,y,z forces =    0.0000E+00    3.2616E-13    0.0000E+00  setid=       0
 node=   630 local x,y,z moments=   -2.4896E-17    0.0000E+00    2.4484E-17  setid=       0
 node=   631 local x,y,z forces =    0.0000E+00    5.6187E-13    0.0000E+00  setid=       0
 node=   631 local x,y,z moments=    8.5496E-18    0.0000E+00   -1.4504E-17  setid=       0
 node=   634 local x,y,z forces =    0.0000E+00    7.6539E-13    0.0000E+00  setid=       0
 node=   634 local x,y,z moments=    1.9311E-17    0.0000E+00    3.8398E-18  setid=       0
 node=   635 local x,y,z forces =    0.0000E+00    4.6154E-13    0.0000E+00  setid=       0
 node=   635 local x,y,z moments=   -1.0712E-17    0.0000E+00    7.1111E-18  setid=       0
 node=   638 local x,y,z forces =    0.0000E+00    6.8960E-13    0.0000E+00  setid=       0
 node=   638 local x,y,z moments=   -5.2744E-18    0.0000E+00   -2.2766E-17  setid=       0
 node=   639 local x,y,z forces =    0.0000E+00    3.9732E-13    0.0000E+00  setid=       0
 node=   639 local x,y,z moments=    1.5273E-18    0.0000E+00    1.6337E-18  setid=       0
 node=   642 local x,y,z forces =    0.0000E+00    3.5094E-13    0.0000E+00  setid=       0
 node=   642 local x,y,z moments=   -2.8515E-18    0.0000E+00   -1.1985E-17  setid=       0
 node=   643 local x,y,z forces =    0.0000E+00    2.7812E-13    0.0000E+00  setid=       0
 node=   643 local x,y,z moments=    7.5290E-18    0.0000E+00    5.0322E-18  setid=       0
 node=   646 local x,y,z forces =    0.0000E+00    1.6854E-13    0.0000E+00  setid=       0
 node=   646 local x,y,z moments=   -6.9804E-19    0.0000E+00   -4.7040E-18  setid=       0
 node=   647 local x,y,z forces =    0.0000E+00    2.2732E-13    0.0000E+00  setid=       0
 node=   647 local x,y,z moments=   -4.9027E-18    0.0000E+00    2.0726E-18  setid=       0
 node=   650 local x,y,z forces =    0.0000E+00    3.3262E-13    0.0000E+00  setid=       0
 node=   650 local x,y,z moments=   -5.3204E-19    0.0000E+00   -1.2119E-17  setid=       0
 node=   651 local x,y,z forces =    0.0000E+00    6.4102E-13    0.0000E+00  setid=       0
 node=   651 local x,y,z moments=    5.4558E-18    0.0000E+00   -5.9947E-18  setid=       0
 node=   654 local x,y,z forces =    0.0000E+00    1.8866E-13    0.0000E+00  setid=       0
 node=   654 local x,y,z moments=    1.2075E-18    0.0000E+00   -8.1422E-18  setid=       0
 node=   655 local x,y,z forces =    0.0000E+00    4.8455E-13    0.0000E+00  setid=       0
 node=   655 local x,y,z moments=   -1.6223E-17    0.0000E+00   -2.6566E-17  setid=       0
 node=   658 local x,y,z forces =    0.0000E+00    4.3654E-13    0.0000E+00  setid=       0
 node=   658 local x,y,z moments=   -2.7903E-18    0.0000E+00    1.5162E-17  setid=       0
 node=   659 local x,y,z forces =    0.0000E+00    3.7225E-13    0.0000E+00  setid=       0
 node=   659 local x,y,z moments=    9.6537E-18    0.0000E+00   -1.8096E-17  setid=       0
 node=   662 local x,y,z forces =    0.0000E+00    5.5331E-13    0.0000E+00  setid=       0
 node=   662 local x,y,z moments=    1.5353E-17    0.0000E+00    3.2988E-18  setid=       0
 node=   663 local x,y,z forces =    0.0000E+00    7.1828E-13    0.0000E+00  setid=       0
 node=   663 local x,y,z moments=   -1.2642E-17    0.0000E+00   -9.6934E-18  setid=       0
 node=   666 local x,y,z forces =    0.0000E+00    3.9812E-13    0.0000E+00  setid=       0
 node=   666 local x,y,z moments=   -2.7029E-17    0.0000E+00    4.0280E-18  setid=       0
 node=   667 local x,y,z forces =    0.0000E+00    5.2693E-13    0.0000E+00  setid=       0
 node=   667 local x,y,z moments=    2.1081E-17    0.0000E+00   -1.7425E-17  setid=       0
 node=   670 local x,y,z forces =    0.0000E+00    4.5916E-13    0.0000E+00  setid=       0
 node=   670 local x,y,z moments=    2.2805E-17    0.0000E+00    1.6704E-17  setid=       0
 node=   671 local x,y,z forces =    0.0000E+00    4.5200E-14    0.0000E+00  setid=       0
 node=   671 local x,y,z moments=   -1.7467E-18    0.0000E+00   -4.2379E-18  setid=       0
 node=   674 local x,y,z forces =    0.0000E+00    1.3813E-13    0.0000E+00  setid=       0
 node=   674 local x,y,z moments=   -1.7182E-17    0.0000E+00   -1.0970E-17  setid=       0
 node=   675 local x,y,z forces =    0.0000E+00    4.0605E-13    0.0000E+00  setid=       0
 node=   675 local x,y,z moments=   -1.0325E-17    0.0000E+00    5.6104E-18  setid=       0
 node=   678 local x,y,z forces =    0.0000E+00    2.5084E-13    0.0000E+00  setid=       0
 node=   678 local x,y,z moments=   -6.8029E-19    0.0000E+00   -2.7952E-17  setid=       0
 node=   679 local x,y,z forces =    0.0000E+00    3.3530E-13    0.0000E+00  setid=       0
 node=   679 local x,y,z moments=   -1.4901E-18    0.0000E+00    7.2669E-18  setid=       0
 node=   682 local x,y,z forces =    0.0000E+00    3.1271E-13    0.0000E+00  setid=       0
 node=   682 local x,y,z moments=    8.8694E-18    0.0000E+00   -1.7081E-17  setid=       0
 node=   683 local x,y,z forces =    0.0000E+00    3.7852E-13    0.0000E+00  setid=       0
 node=   683 local x,y,z moments=    9.6174E-18    0.0000E+00    1.3402E-17  setid=       0
 node=   686 local x,y,z forces =    0.0000E+00    5.2228E-13    0.0000E+00  setid=       0
 node=   686 local x,y,z moments=    1.2252E-17    0.0000E+00   -2.0501E-17  setid=       0
 node=   687 local x,y,z forces =    0.0000E+00    2.5248E-13    0.0000E+00  setid=       0
 node=   687 local x,y,z moments=   -4.9811E-18    0.0000E+00    7.2057E-18  setid=       0
 node=   690 local x,y,z forces =    0.0000E+00    3.5643E-13    0.0000E+00  setid=       0
 node=   690 local x,y,z moments=   -9.5453E-18    0.0000E+00   -1.7987E-17  setid=       0
 node=   691 local x,y,z forces =    0.0000E+00    2.3439E-13    0.0000E+00  setid=       0
 node=   691 local x,y,z moments=   -7.5124E-18    0.0000E+00    2.3389E-17  setid=       0
 node=   694 local x,y,z forces =    0.0000E+00    3.4930E-13    0.0000E+00  setid=       0
 node=   694 local x,y,z moments=    1.0292E-18    0.0000E+00    7.6486E-18  setid=       0
 node=   695 local x,y,z forces =    0.0000E+00    5.3509E-13    0.0000E+00  setid=       0
 node=   695 local x,y,z moments=   -3.2358E-18    0.0000E+00    5.6855E-18  setid=       0
 node=   698 local x,y,z forces =    0.0000E+00    4.5527E-13    0.0000E+00  setid=       0
 node=   698 local x,y,z moments=   -2.2718E-17    0.0000E+00    1.6970E-18  setid=       0
 node=   699 local x,y,z forces =    0.0000E+00    3.3147E-13    0.0000E+00  setid=       0
 node=   699 local x,y,z moments=    9.3234E-18    0.0000E+00   -5.4889E-18  setid=       0
 node=   702 local x,y,z forces =    0.0000E+00    3.8395E-13    0.0000E+00  setid=       0
 node=   702 local x,y,z moments=    2.0847E-17    0.0000E+00   -3.4902E-18  setid=       0
 node=   703 local x,y,z forces =    0.0000E+00    4.5418E-13    0.0000E+00  setid=       0
 node=   703 local x,y,z moments=    9.4566E-18    0.0000E+00    8.5191E-18  setid=       0
 node=   706 local x,y,z forces =    0.0000E+00    6.0798E-14    0.0000E+00  setid=       0
 node=   706 local x,y,z moments=    1.0552E-19    0.0000E+00   -4.6928E-18  setid=       0
 node=   707 local x,y,z forces =    0.0000E+00    7.4666E-13    0.0000E+00  setid=       0
 node=   707 local x,y,z moments=   -1.0877E-17    0.0000E+00   -1.3361E-18  setid=       0
 node=   710 local x,y,z forces =    0.0000E+00    5.2330E-13    0.0000E+00  setid=       0
 node=   710 local x,y,z moments=   -1.5521E-17    0.0000E+00    1.3954E-18  setid=       0
 node=   711 local x,y,z forces =    0.0000E+00    9.7723E-13    0.0000E+00  setid=       0
 node=   711 local x,y,z moments=    3.9728E-18    0.0000E+00    8.5118E-18  setid=       0
 node=   714 local x,y,z forces =    0.0000E+00    4.7051E-13    0.0000E+00  setid=       0
 node=   714 local x,y,z moments=    1.8861E-17    0.0000E+00    1.1001E-18  setid=       0
 node=   715 local x,y,z forces =    0.0000E+00    5.9807E-13    0.0000E+00  setid=       0
 node=   715 local x,y,z moments=    1.5322E-17    0.0000E+00    8.2084E-18  setid=       0
 node=   718 local x,y,z forces =    0.0000E+00    3.0200E-13    0.0000E+00  setid=       0
 node=   718 local x,y,z moments=   -4.0568E-18    0.0000E+00   -3.5750E-18  setid=       0
 node=   719 local x,y,z forces =    0.0000E+00    4.7100E-13    0.0000E+00  setid=       0
 node=   719 local x,y,z moments=   -1.9106E-17    0.0000E+00    1.4524E-20  setid=       0
 node=   722 local x,y,z forces =    0.0000E+00    9.5700E-14    0.0000E+00  setid=       0
 node=   722 local x,y,z moments=   -7.8800E-19    0.0000E+00   -1.8479E-18  setid=       0
 node=   723 local x,y,z forces =    0.0000E+00    2.3206E-13    0.0000E+00  setid=       0
 node=   723 local x,y,z moments=   -3.2771E-18    0.0000E+00   -9.6085E-19  setid=       0
 node=   726 local x,y,z forces =    0.0000E+00    7.2431E-13    0.0000E+00  setid=       0
 node=   726 local x,y,z moments=   -1.4471E-17    0.0000E+00   -1.6116E-17  setid=       0
 node=   727 local x,y,z forces =    0.0000E+00    7.4392E-13    0.0000E+00  setid=       0
 node=   727 local x,y,z moments=    1.2912E-17    0.0000E+00   -3.1019E-17  setid=       0
 node=   730 local x,y,z forces =    0.0000E+00    1.2342E-12    0.0000E+00  setid=       0
 node=   730 local x,y,z moments=    3.1009E-17    0.0000E+00    1.5174E-18  setid=       0
 node=   731 local x,y,z forces =    0.0000E+00    7.4282E-13    0.0000E+00  setid=       0
 node=   731 local x,y,z moments=   -7.2169E-18    0.0000E+00   -4.0411E-17  setid=       0
 node=   734 local x,y,z forces =    0.0000E+00    8.9093E-13    0.0000E+00  setid=       0
 node=   734 local x,y,z moments=   -2.1857E-17    0.0000E+00    1.9058E-17  setid=       0
 node=   735 local x,y,z forces =    0.0000E+00    9.0208E-13    0.0000E+00  setid=       0
 node=   735 local x,y,z moments=    7.0922E-18    0.0000E+00   -3.4825E-17  setid=       0
 node=   738 local x,y,z forces =    0.0000E+00    9.7753E-13    0.0000E+00  setid=       0
 node=   738 local x,y,z moments=   -6.4272E-19    0.0000E+00   -3.6963E-18  setid=       0
 node=   739 local x,y,z forces =    0.0000E+00    7.6282E-14    0.0000E+00  setid=       0
 node=   739 local x,y,z moments=   -6.1815E-18    0.0000E+00   -4.8118E-18  setid=       0
 node=   742 local x,y,z forces =    0.0000E+00    3.4796E-13    0.0000E+00  setid=       0
 node=   742 local x,y,z moments=    7.1508E-18    0.0000E+00   -7.0027E-18  setid=       0
 node=   743 local x,y,z forces =    0.0000E+00    4.5263E-14    0.0000E+00  setid=       0
 node=   743 local x,y,z moments=   -3.5162E-18    0.0000E+00   -3.7134E-18  setid=       0
 node=   746 local x,y,z forces =    0.0000E+00    4.2153E-13    0.0000E+00  setid=       0
 node=   746 local x,y,z moments=   -1.0173E-17    0.0000E+00   -1.8924E-17  setid=       0
 node=   747 local x,y,z forces =    0.0000E+00    1.7677E-13    0.0000E+00  setid=       0
 node=   747 local x,y,z moments=    3.2665E-18    0.0000E+00   -2.3689E-18  setid=       0
 node=   750 local x,y,z forces =    0.0000E+00    7.3878E-13    0.0000E+00  setid=       0
 node=   750 local x,y,z moments=    2.2891E-17    0.0000E+00   -1.6826E-17  setid=       0
 node=   751 local x,y,z forces =    0.0000E+00    2.6565E-13    0.0000E+00  setid=       0
 node=   751 local x,y,z moments=   -2.0888E-17    0.0000E+00   -8.9874E-19  setid=       0
 node=   754 local x,y,z forces =    0.0000E+00    3.9829E-13    0.0000E+00  setid=       0
 node=   754 local x,y,z moments=   -2.6189E-17    0.0000E+00    2.0468E-17  setid=       0
 node=   755 local x,y,z forces =    0.0000E+00    5.8492E-13    0.0000E+00  setid=       0
 node=   755 local x,y,z moments=    2.1473E-17    0.0000E+00   -3.5387E-18  setid=       0
 node=   758 local x,y,z forces =    0.0000E+00    5.3900E-13    0.0000E+00  setid=       0
 node=   758 local x,y,z moments=    2.2631E-17    0.0000E+00    3.4112E-18  setid=       0
 node=   759 local x,y,z forces =    0.0000E+00    4.6282E-13    0.0000E+00  setid=       0
 node=   759 local x,y,z moments=   -6.6017E-18    0.0000E+00   -1.0500E-17  setid=       0
 node=   762 local x,y,z forces =    0.0000E+00    1.9038E-13    0.0000E+00  setid=       0
 node=   762 local x,y,z moments=   -1.8117E-17    0.0000E+00   -2.0608E-17  setid=       0
 node=   763 local x,y,z forces =    0.0000E+00    4.0738E-13    0.0000E+00  setid=       0
 node=   763 local x,y,z moments=    3.9801E-18    0.0000E+00   -1.3397E-17  setid=       0
 node=   766 local x,y,z forces =    0.0000E+00    2.8038E-13    0.0000E+00  setid=       0
 node=   766 local x,y,z moments=    5.9615E-18    0.0000E+00   -1.5032E-17  setid=       0
 node=   767 local x,y,z forces =    0.0000E+00    3.0696E-13    0.0000E+00  setid=       0
 node=   767 local x,y,z moments=   -8.9028E-18    0.0000E+00   -1.2170E-17  setid=       0
 node=   770 local x,y,z forces =    0.0000E+00    3.2001E-13    0.0000E+00  setid=       0
 node=   770 local x,y,z moments=   -7.8621E-18    0.0000E+00    1.6714E-17  setid=       0
 node=   771 local x,y,z forces =    0.0000E+00    6.9243E-07    0.0000E+00  setid=       0
 node=   771 local x,y,z moments=    5.1183E-11    0.0000E+00   -1.0043E-14  setid=       0
 node=   774 local x,y,z forces =    0.0000E+00    6.9308E-07    0.0000E+00  setid=       0
 node=   774 local x,y,z moments=    6.0046E-11    0.0000E+00   -2.7282E-16  setid=       0
 node=   775 local x,y,z forces =    0.0000E+00    6.9254E-07    0.0000E+00  setid=       0
 node=   775 local x,y,z moments=   -5.1183E-11    0.0000E+00   -1.1707E-14  setid=       0
 node=   778 local x,y,z forces =    0.0000E+00    6.9314E-07    0.0000E+00  setid=       0
 node=   778 local x,y,z moments=   -6.0046E-11    0.0000E+00   -1.0034E-15  setid=       0
 node=  1469 local x,y,z forces =    4.9637E-13    0.0000E+00    0.0000E+00  setid=       0
 node=  1469 local x,y,z moments=    0.0000E+00    2.2015E-17   -5.4523E-18  setid=       0
 node=  1470 local x,y,z forces =    1.1967E-12    0.0000E+00    0.0000E+00  setid=       0
 node=  1470 local x,y,z moments=    0.0000E+00   -3.1593E-18    2.5856E-18  setid=       0
 node=  1471 local x,y,z forces =    8.6225E-13    0.0000E+00    0.0000E+00  setid=       0
 node=  1471 local x,y,z moments=    0.0000E+00    4.4671E-19   -1.8218E-17  setid=       0
 node=  1472 local x,y,z forces =    8.1898E-13    0.0000E+00    0.0000E+00  setid=       0
 node=  1472 local x,y,z moments=    0.0000E+00    1.0392E-17    1.0839E-18  setid=       0
 node=  1473 local x,y,z forces =    5.3706E-13    0.0000E+00    0.0000E+00  setid=       0
 node=  1473 local x,y,z moments=    0.0000E+00   -1.4851E-17   -4.0934E-19  setid=       0
 node=  1474 local x,y,z forces =    9.6855E-13    0.0000E+00    0.0000E+00  setid=       0
 node=  1474 local x,y,z moments=    0.0000E+00   -3.6995E-17    9.3645E-18  setid=       0
 node=  1475 local x,y,z forces =    2.7247E-13    0.0000E+00    0.0000E+00  setid=       0
 node=  1475 local x,y,z moments=    0.0000E+00   -3.6876E-19    1.2867E-17  setid=       0
 node=  1476 local x,y,z forces =    1.4134E-12    0.0000E+00    0.0000E+00  setid=       0
 node=  1476 local x,y,z moments=    0.0000E+00    5.0743E-18   -1.6181E-17  setid=       0
 node=  1477 local x,y,z forces =    3.6558E-13    0.0000E+00    0.0000E+00  setid=       0
 node=  1477 local x,y,z moments=    0.0000E+00   -9.6137E-18    1.8636E-17  setid=       0
 node=  1478 local x,y,z forces =    1.1114E-12    0.0000E+00    0.0000E+00  setid=       0
 node=  1478 local x,y,z moments=    0.0000E+00   -1.6045E-18   -2.3764E-17  setid=       0
 node=  1479 local x,y,z forces =    4.5009E-13    0.0000E+00    0.0000E+00  setid=       0
 node=  1479 local x,y,z moments=    0.0000E+00   -7.6668E-19    9.2850E-19  setid=       0
 node=  1480 local x,y,z forces =    1.0478E-12    0.0000E+00    0.0000E+00  setid=       0
 node=  1480 local x,y,z moments=    0.0000E+00    2.4189E-17   -3.5236E-17  setid=       0
 node=  1481 local x,y,z forces =    5.4097E-13    0.0000E+00    0.0000E+00  setid=       0
 node=  1481 local x,y,z moments=    0.0000E+00    1.2417E-17   -1.0161E-17  setid=       0
 node=  1482 local x,y,z forces =    1.3896E-12    0.0000E+00    0.0000E+00  setid=       0
 node=  1482 local x,y,z moments=    0.0000E+00   -1.7323E-17   -2.0922E-17  setid=       0
 node=  1483 local x,y,z forces =    4.8202E-13    0.0000E+00    0.0000E+00  setid=       0
 node=  1483 local x,y,z moments=    0.0000E+00   -1.7200E-19   -2.8235E-17  setid=       0
 node=  1484 local x,y,z forces =    1.0913E-12    0.0000E+00    0.0000E+00  setid=       0
 node=  1484 local x,y,z moments=    0.0000E+00    2.9765E-17   -2.3413E-17  setid=       0
 node=  1485 local x,y,z forces =    4.0717E-13    0.0000E+00    0.0000E+00  setid=       0
 node=  1485 local x,y,z moments=    0.0000E+00    6.9278E-19   -1.5302E-17  setid=       0
 node=  1486 local x,y,z forces =    6.8699E-13    0.0000E+00    0.0000E+00  setid=       0
 node=  1486 local x,y,z moments=    0.0000E+00   -5.5001E-18   -3.5115E-17  setid=       0
 node=  1487 local x,y,z forces =    6.3348E-13    0.0000E+00    0.0000E+00  setid=       0
 node=  1487 local x,y,z moments=    0.0000E+00    1.5433E-18   -1.6622E-17  setid=       0
 node=  1488 local x,y,z forces =    9.2968E-13    0.0000E+00    0.0000E+00  setid=       0
 node=  1488 local x,y,z moments=    0.0000E+00   -1.5643E-17   -3.2878E-17  setid=       0
 node=  1489 local x,y,z forces =    3.7216E-13    0.0000E+00    0.0000E+00  setid=       0
 node=  1489 local x,y,z moments=    0.0000E+00   -3.0302E-18   -1.1329E-17  setid=       0
 node=  1490 local x,y,z forces =    1.3509E-12    0.0000E+00    0.0000E+00  setid=       0
 node=  1490 local x,y,z moments=    0.0000E+00   -3.0788E-18   -4.4634E-18  setid=       0
 node=  1491 local x,y,z forces =    4.0252E-13    0.0000E+00    0.0000E+00  setid=       0
 node=  1491 local x,y,z moments=    0.0000E+00   -5.3685E-18    1.5648E-18  setid=       0
 node=  1492 local x,y,z forces =    8.3368E-13    0.0000E+00    0.0000E+00  setid=       0
 node=  1492 local x,y,z moments=    0.0000E+00    1.9488E-18   -2.4770E-17  setid=       0
 node=  1493 local x,y,z forces =    4.7360E-13    0.0000E+00    0.0000E+00  setid=       0
 node=  1493 local x,y,z moments=    0.0000E+00    1.7177E-17    2.0178E-17  setid=       0
 node=  1494 local x,y,z forces =    4.8983E-13    0.0000E+00    0.0000E+00  setid=       0
 node=  1494 local x,y,z moments=    0.0000E+00    1.0097E-17   -1.7078E-17  setid=       0
 node=  1495 local x,y,z forces =    5.0965E-13    0.0000E+00    0.0000E+00  setid=       0
 node=  1495 local x,y,z moments=    0.0000E+00   -3.7803E-18    1.4417E-17  setid=       0
 node=  1496 local x,y,z forces =    4.1129E-13    0.0000E+00    0.0000E+00  setid=       0
 node=  1496 local x,y,z moments=    0.0000E+00   -1.7041E-17   -1.0242E-17  setid=       0
 node=  1497 local x,y,z forces =    3.6057E-13    0.0000E+00    0.0000E+00  setid=       0
 node=  1497 local x,y,z moments=    0.0000E+00   -3.3729E-18    1.1977E-17  setid=       0
 node=  1498 local x,y,z forces =    9.1661E-13    0.0000E+00    0.0000E+00  setid=       0
 node=  1498 local x,y,z moments=    0.0000E+00   -2.0593E-17   -6.0906E-18  setid=       0
 node=  1499 local x,y,z forces =    2.1592E-13    0.0000E+00    0.0000E+00  setid=       0
 node=  1499 local x,y,z moments=    0.0000E+00   -5.3596E-18    1.9936E-17  setid=       0
 node=  1500 local x,y,z forces =    1.1421E-12    0.0000E+00    0.0000E+00  setid=       0
 node=  1500 local x,y,z moments=    0.0000E+00    2.2706E-17   -3.5164E-18  setid=       0
 node=  1501 local x,y,z forces =    8.1446E-13    0.0000E+00    0.0000E+00  setid=       0
 node=  1501 local x,y,z moments=    0.0000E+00   -8.9441E-18    1.5663E-17  setid=       0
 node=  1502 local x,y,z forces =    1.3400E-12    0.0000E+00    0.0000E+00  setid=       0
 node=  1502 local x,y,z moments=    0.0000E+00   -2.6002E-17   -6.3153E-17  setid=       0
 node=  1503 local x,y,z forces =    3.9415E-13    0.0000E+00    0.0000E+00  setid=       0
 node=  1503 local x,y,z moments=    0.0000E+00   -1.0576E-17    1.2597E-17  setid=       0
 node=  1504 local x,y,z forces =    1.6250E-12    0.0000E+00    0.0000E+00  setid=       0
 node=  1504 local x,y,z moments=    0.0000E+00    3.9229E-18   -2.4523E-17  setid=       0
 node=  1505 local x,y,z forces =    9.4970E-13    0.0000E+00    0.0000E+00  setid=       0
 node=  1505 local x,y,z moments=    0.0000E+00    2.4374E-17   -1.7473E-18  setid=       0
 node=  1506 local x,y,z forces =    8.4314E-13    0.0000E+00    0.0000E+00  setid=       0
 node=  1506 local x,y,z moments=    0.0000E+00    3.5680E-17   -2.9121E-17  setid=       0
 node=  1507 local x,y,z forces =    1.1812E-13    0.0000E+00    0.0000E+00  setid=       0
 node=  1507 local x,y,z moments=    0.0000E+00    3.4141E-19    2.5080E-18  setid=       0
 node=  1508 local x,y,z forces =    3.6399E-13    0.0000E+00    0.0000E+00  setid=       0
 node=  1508 local x,y,z moments=    0.0000E+00   -2.2295E-18    6.4917E-19  setid=       0
 node=  1509 local x,y,z forces =    3.8531E-13    0.0000E+00    0.0000E+00  setid=       0
 node=  1509 local x,y,z moments=    0.0000E+00    1.1945E-19   -3.4861E-18  setid=       0
 node=  1510 local x,y,z forces =    7.9548E-13    0.0000E+00    0.0000E+00  setid=       0
 node=  1510 local x,y,z moments=    0.0000E+00   -2.3689E-18   -2.2232E-18  setid=       0
 node=  1511 local x,y,z forces =    3.7935E-13    0.0000E+00    0.0000E+00  setid=       0
 node=  1511 local x,y,z moments=    0.0000E+00    1.4225E-18    2.1601E-19  setid=       0
 node=  1512 local x,y,z forces =    1.1188E-12    0.0000E+00    0.0000E+00  setid=       0
 node=  1512 local x,y,z moments=    0.0000E+00    3.3000E-18   -3.6302E-17  setid=       0
 node=  1513 local x,y,z forces =    7.0820E-14    0.0000E+00    0.0000E+00  setid=       0
 node=  1513 local x,y,z moments=    0.0000E+00   -2.1784E-18    5.9760E-18  setid=       0
 node=  1514 local x,y,z forces =    6.4345E-13    0.0000E+00    0.0000E+00  setid=       0
 node=  1514 local x,y,z moments=    0.0000E+00   -5.3390E-18   -2.2025E-17  setid=       0
 node=  1515 local x,y,z forces =    4.4553E-13    0.0000E+00    0.0000E+00  setid=       0
 node=  1515 local x,y,z moments=    0.0000E+00   -4.0059E-18   -2.3964E-17  setid=       0
 node=  1516 local x,y,z forces =    8.9902E-13    0.0000E+00    0.0000E+00  setid=       0
 node=  1516 local x,y,z moments=    0.0000E+00    9.9039E-18   -1.1541E-17  setid=       0
 node=  1517 local x,y,z forces =    1.1208E-12    0.0000E+00    0.0000E+00  setid=       0
 node=  1517 local x,y,z moments=    0.0000E+00   -9.0737E-18   -2.0287E-17  setid=       0
 node=  1518 local x,y,z forces =    1.2597E-12    0.0000E+00    0.0000E+00  setid=       0
 node=  1518 local x,y,z moments=    0.0000E+00   -1.5878E-17   -5.1817E-18  setid=       0
 node=  1519 local x,y,z forces =    4.7255E-13    0.0000E+00    0.0000E+00  setid=       0
 node=  1519 local x,y,z moments=    0.0000E+00    1.1548E-17   -4.0824E-18  setid=       0
 node=  1520 local x,y,z forces =    6.6460E-13    0.0000E+00    0.0000E+00  setid=       0
 node=  1520 local x,y,z moments=    0.0000E+00    2.6743E-17   -1.7236E-17  setid=       0
 node=  1521 local x,y,z forces =    5.0054E-13    0.0000E+00    0.0000E+00  setid=       0
 node=  1521 local x,y,z moments=    0.0000E+00   -1.1813E-18    1.1264E-17  setid=       0
 node=  1522 local x,y,z forces =    5.2352E-13    0.0000E+00    0.0000E+00  setid=       0
 node=  1522 local x,y,z moments=    0.0000E+00   -1.6663E-17   -2.7265E-17  setid=       0
 node=  1523 local x,y,z forces =    6.4128E-14    0.0000E+00    0.0000E+00  setid=       0
 node=  1523 local x,y,z moments=    0.0000E+00    4.6095E-18   -1.6984E-18  setid=       0
 node=  1524 local x,y,z forces =    3.7659E-13    0.0000E+00    0.0000E+00  setid=       0
 node=  1524 local x,y,z moments=    0.0000E+00    3.7179E-19   -1.3654E-17  setid=       0
 node=  1525 local x,y,z forces =    1.6557E-13    0.0000E+00    0.0000E+00  setid=       0
 node=  1525 local x,y,z moments=    0.0000E+00   -5.5102E-18    6.1116E-18  setid=       0
 node=  1526 local x,y,z forces =    1.3633E-12    0.0000E+00    0.0000E+00  setid=       0
 node=  1526 local x,y,z moments=    0.0000E+00   -8.9982E-18   -8.6336E-18  setid=       0
 node=  1527 local x,y,z forces =    8.1811E-14    0.0000E+00    0.0000E+00  setid=       0
 node=  1527 local x,y,z moments=    0.0000E+00    6.4957E-18    1.3651E-17  setid=       0
 node=  1528 local x,y,z forces =    1.4326E-12    0.0000E+00    0.0000E+00  setid=       0
 node=  1528 local x,y,z moments=    0.0000E+00   -7.9090E-18   -2.1690E-17  setid=       0
 node=  1529 local x,y,z forces =    4.1813E-13    0.0000E+00    0.0000E+00  setid=       0
 node=  1529 local x,y,z moments=    0.0000E+00   -8.7976E-18    7.5863E-18  setid=       0
 node=  1530 local x,y,z forces =    1.0521E-12    0.0000E+00    0.0000E+00  setid=       0
 node=  1530 local x,y,z moments=    0.0000E+00    2.7445E-18    1.3531E-17  setid=       0
 node=  1531 local x,y,z forces =    2.8616E-13    0.0000E+00    0.0000E+00  setid=       0
 node=  1531 local x,y,z moments=    0.0000E+00    8.3638E-18    7.4562E-19  setid=       0
 node=  1532 local x,y,z forces =    1.3061E-12    0.0000E+00    0.0000E+00  setid=       0
 node=  1532 local x,y,z moments=    0.0000E+00   -1.2482E-17   -2.5334E-18  setid=       0
 node=  1533 local x,y,z forces =    2.3589E-13    0.0000E+00    0.0000E+00  setid=       0
 node=  1533 local x,y,z moments=    0.0000E+00   -1.4543E-17    1.6812E-17  setid=       0
 node=  1534 local x,y,z forces =    8.2939E-13    0.0000E+00    0.0000E+00  setid=       0
 node=  1534 local x,y,z moments=    0.0000E+00    8.5548E-18   -2.3283E-17  setid=       0
 node=  1535 local x,y,z forces =    3.7736E-13    0.0000E+00    0.0000E+00  setid=       0
 node=  1535 local x,y,z moments=    0.0000E+00    1.3330E-17   -1.7227E-18  setid=       0
 node=  1536 local x,y,z forces =    8.1677E-13    0.0000E+00    0.0000E+00  setid=       0
 node=  1536 local x,y,z moments=    0.0000E+00    4.0570E-17   -1.8045E-17  setid=       0
 node=  1537 local x,y,z forces =    2.8509E-13    0.0000E+00    0.0000E+00  setid=       0
 node=  1537 local x,y,z moments=    0.0000E+00   -8.6136E-18    1.5080E-17  setid=       0
 node=  1538 local x,y,z forces =    1.1117E-12    0.0000E+00    0.0000E+00  setid=       0
 node=  1538 local x,y,z moments=    0.0000E+00   -3.7329E-17   -3.9141E-17  setid=       0
 node=  1539 local x,y,z forces =    6.9555E-14    0.0000E+00    0.0000E+00  setid=       0
 node=  1539 local x,y,z moments=    0.0000E+00    5.3198E-18    1.2780E-17  setid=       0
 node=  1540 local x,y,z forces =    4.4370E-13    0.0000E+00    0.0000E+00  setid=       0
 node=  1540 local x,y,z moments=    0.0000E+00    1.4688E-17   -2.2040E-17  setid=       0
 node=  1541 local x,y,z forces =    1.9602E-13    0.0000E+00    0.0000E+00  setid=       0
 node=  1541 local x,y,z moments=    0.0000E+00   -7.8645E-18    5.1628E-18  setid=       0
 node=  1542 local x,y,z forces =    3.7208E-13    0.0000E+00    0.0000E+00  setid=       0
 node=  1542 local x,y,z moments=    0.0000E+00   -2.3394E-18    1.1511E-18  setid=       0
 node=  1543 local x,y,z forces =    7.8096E-13    0.0000E+00    0.0000E+00  setid=       0
 node=  1543 local x,y,z moments=    0.0000E+00   -1.3958E-18    1.6934E-17  setid=       0
 node=  1544 local x,y,z forces =    2.1763E-13    0.0000E+00    0.0000E+00  setid=       0
 node=  1544 local x,y,z moments=    0.0000E+00   -3.4528E-19   -2.3827E-17  setid=       0
 node=  1545 local x,y,z forces =    3.5278E-13    0.0000E+00    0.0000E+00  setid=       0
 node=  1545 local x,y,z moments=    0.0000E+00    8.1439E-18    6.8903E-18  setid=       0
 node=  1546 local x,y,z forces =    6.7026E-13    0.0000E+00    0.0000E+00  setid=       0
 node=  1546 local x,y,z moments=    0.0000E+00   -3.4220E-18   -1.2043E-17  setid=       0
 node=  1547 local x,y,z forces =    1.3552E-13    0.0000E+00    0.0000E+00  setid=       0
 node=  1547 local x,y,z moments=    0.0000E+00   -6.7959E-18   -2.6671E-18  setid=       0
 node=  1548 local x,y,z forces =    6.2525E-13    0.0000E+00    0.0000E+00  setid=       0
 node=  1548 local x,y,z moments=    0.0000E+00    3.8861E-18   -3.5952E-17  setid=       0
 node=  1549 local x,y,z forces =    5.1983E-13    0.0000E+00    0.0000E+00  setid=       0
 node=  1549 local x,y,z moments=    0.0000E+00   -2.5255E-18   -9.0776E-18  setid=       0
 node=  1550 local x,y,z forces =    9.2316E-13    0.0000E+00    0.0000E+00  setid=       0
 node=  1550 local x,y,z moments=    0.0000E+00   -1.6679E-20   -2.5016E-17  setid=       0
 node=  1551 local x,y,z forces =    5.9396E-13    0.0000E+00    0.0000E+00  setid=       0
 node=  1551 local x,y,z moments=    0.0000E+00    5.0672E-19   -2.4875E-18  setid=       0
 node=  1552 local x,y,z forces =    1.0809E-12    0.0000E+00    0.0000E+00  setid=       0
 node=  1552 local x,y,z moments=    0.0000E+00   -4.1253E-17    7.0681E-18  setid=       0
 node=  1553 local x,y,z forces =    1.2739E-13    0.0000E+00    0.0000E+00  setid=       0
 node=  1553 local x,y,z moments=    0.0000E+00    9.2523E-18    3.9815E-18  setid=       0
 node=  1554 local x,y,z forces =    1.4681E-12    0.0000E+00    0.0000E+00  setid=       0
 node=  1554 local x,y,z moments=    0.0000E+00    2.4049E-17   -2.9643E-18  setid=       0
 node=  1555 local x,y,z forces =    3.8761E-13    0.0000E+00    0.0000E+00  setid=       0
 node=  1555 local x,y,z moments=    0.0000E+00   -9.9471E-18   -8.0814E-18  setid=       0
 node=  1556 local x,y,z forces =    8.6046E-13    0.0000E+00    0.0000E+00  setid=       0
 node=  1556 local x,y,z moments=    0.0000E+00    2.6124E-17   -1.5936E-17  setid=       0
 node=  1557 local x,y,z forces =    6.9246E-07    0.0000E+00    0.0000E+00  setid=       0
 node=  1557 local x,y,z moments=    0.0000E+00   -6.9426E-11   -9.2172E-15  setid=       0
 node=  1558 local x,y,z forces =    6.9314E-07    0.0000E+00    0.0000E+00  setid=       0
 node=  1558 local x,y,z moments=    0.0000E+00   -1.1805E-10    1.1628E-14  setid=       0
 node=  1559 local x,y,z forces =    6.9253E-07    0.0000E+00    0.0000E+00  setid=       0
 node=  1559 local x,y,z moments=    0.0000E+00    6.9426E-11   -9.1965E-15  setid=       0
 node=  1560 local x,y,z forces =    6.9321E-07    0.0000E+00    0.0000E+00  setid=       0
 node=  1560 local x,y,z moments=    0.0000E+00    1.1805E-10    1.1481E-14  setid=       0
 node=  1561 local x,y,z forces =    0.0000E+00    3.6123E-13    0.0000E+00  setid=       0
 node=  1561 local x,y,z moments=    6.9861E-18    0.0000E+00   -1.4588E-18  setid=       0
 node=  1562 local x,y,z forces =    0.0000E+00    1.0723E-12    0.0000E+00  setid=       0
 node=  1562 local x,y,z moments=    2.8166E-17    0.0000E+00   -7.8567E-18  setid=       0
 node=  1563 local x,y,z forces =    0.0000E+00    5.0621E-13    0.0000E+00  setid=       0
 node=  1563 local x,y,z moments=    3.7586E-17    0.0000E+00   -8.5440E-18  setid=       0
 node=  1564 local x,y,z forces =    0.0000E+00    8.0665E-13    0.0000E+00  setid=       0
 node=  1564 local x,y,z moments=   -1.7662E-17    0.0000E+00    9.3705E-18  setid=       0
 node=  1565 local x,y,z forces =    0.0000E+00    4.5164E-13    0.0000E+00  setid=       0
 node=  1565 local x,y,z moments=   -2.6807E-17    0.0000E+00    7.5647E-18  setid=       0
 node=  1566 local x,y,z forces =    0.0000E+00    5.9648E-13    0.0000E+00  setid=       0
 node=  1566 local x,y,z moments=   -7.4255E-18    0.0000E+00   -2.1870E-17  setid=       0
 node=  1567 local x,y,z forces =    0.0000E+00    2.8623E-13    0.0000E+00  setid=       0
 node=  1567 local x,y,z moments=   -8.0070E-20    0.0000E+00   -1.5415E-19  setid=       0
 node=  1568 local x,y,z forces =    0.0000E+00    8.6788E-13    0.0000E+00  setid=       0
 node=  1568 local x,y,z moments=    1.6020E-17    0.0000E+00   -4.0388E-17  setid=       0
 node=  1569 local x,y,z forces =    0.0000E+00    2.0885E-13    0.0000E+00  setid=       0
 node=  1569 local x,y,z moments=   -1.3001E-17    0.0000E+00   -1.8429E-17  setid=       0
 node=  1570 local x,y,z forces =    0.0000E+00    1.4595E-12    0.0000E+00  setid=       0
 node=  1570 local x,y,z moments=    3.1034E-17    0.0000E+00   -2.9579E-17  setid=       0
 node=  1571 local x,y,z forces =    0.0000E+00    4.9519E-13    0.0000E+00  setid=       0
 node=  1571 local x,y,z moments=    1.4262E-17    0.0000E+00   -2.2736E-17  setid=       0
 node=  1572 local x,y,z forces =    0.0000E+00    1.1437E-12    0.0000E+00  setid=       0
 node=  1572 local x,y,z moments=   -5.7233E-17    0.0000E+00   -1.2624E-17  setid=       0
 node=  1573 local x,y,z forces =    0.0000E+00    1.9503E-13    0.0000E+00  setid=       0
 node=  1573 local x,y,z moments=   -7.1591E-18    0.0000E+00   -1.9679E-17  setid=       0
 node=  1574 local x,y,z forces =    0.0000E+00    3.9139E-13    0.0000E+00  setid=       0
 node=  1574 local x,y,z moments=    7.3323E-18    0.0000E+00    2.9790E-17  setid=       0
 node=  1575 local x,y,z forces =    0.0000E+00    9.6592E-14    0.0000E+00  setid=       0
 node=  1575 local x,y,z moments=    1.6602E-17    0.0000E+00   -6.4039E-18  setid=       0
 node=  1576 local x,y,z forces =    0.0000E+00    4.1316E-13    0.0000E+00  setid=       0
 node=  1576 local x,y,z moments=    7.1372E-18    0.0000E+00    2.2828E-17  setid=       0
 node=  1577 local x,y,z forces =    0.0000E+00    5.7890E-13    0.0000E+00  setid=       0
 node=  1577 local x,y,z moments=   -8.9643E-18    0.0000E+00   -2.6657E-18  setid=       0
 node=  1578 local x,y,z forces =    0.0000E+00    1.2523E-12    0.0000E+00  setid=       0
 node=  1578 local x,y,z moments=   -4.5418E-18    0.0000E+00    9.5839E-18  setid=       0
 node=  1579 local x,y,z forces =    0.0000E+00    5.9712E-13    0.0000E+00  setid=       0
 node=  1579 local x,y,z moments=   -1.8429E-17    0.0000E+00    2.2779E-17  setid=       0
 node=  1580 local x,y,z forces =    0.0000E+00    1.5319E-12    0.0000E+00  setid=       0
 node=  1580 local x,y,z moments=   -1.4601E-17    0.0000E+00    1.5120E-18  setid=       0
 node=  1581 local x,y,z forces =    0.0000E+00    4.9280E-13    0.0000E+00  setid=       0
 node=  1581 local x,y,z moments=    2.9705E-17    0.0000E+00    2.4663E-17  setid=       0
 node=  1582 local x,y,z forces =    0.0000E+00    3.7710E-13    0.0000E+00  setid=       0
 node=  1582 local x,y,z moments=    2.1163E-17    0.0000E+00    5.4909E-18  setid=       0
 node=  1583 local x,y,z forces =    0.0000E+00    4.6889E-13    0.0000E+00  setid=       0
 node=  1583 local x,y,z moments=   -1.6294E-17    0.0000E+00    1.3497E-17  setid=       0
 node=  1584 local x,y,z forces =    0.0000E+00    7.5096E-13    0.0000E+00  setid=       0
 node=  1584 local x,y,z moments=    1.2482E-18    0.0000E+00   -1.7370E-17  setid=       0
 node=  1585 local x,y,z forces =    0.0000E+00    5.2016E-13    0.0000E+00  setid=       0
 node=  1585 local x,y,z moments=    1.0870E-17    0.0000E+00    4.0230E-19  setid=       0
 node=  1586 local x,y,z forces =    0.0000E+00    5.3255E-13    0.0000E+00  setid=       0
 node=  1586 local x,y,z moments=   -1.5735E-17    0.0000E+00   -3.6006E-17  setid=       0
 node=  1587 local x,y,z forces =    0.0000E+00    3.0156E-13    0.0000E+00  setid=       0
 node=  1587 local x,y,z moments=   -2.3772E-17    0.0000E+00    1.3961E-17  setid=       0
 node=  1588 local x,y,z forces =    0.0000E+00    8.7093E-13    0.0000E+00  setid=       0
 node=  1588 local x,y,z moments=    3.1055E-17    0.0000E+00   -3.6067E-17  setid=       0
 node=  1589 local x,y,z forces =    0.0000E+00    1.0631E-12    0.0000E+00  setid=       0
 node=  1589 local x,y,z moments=    3.5181E-17    0.0000E+00    2.5287E-17  setid=       0
 node=  1590 local x,y,z forces =    0.0000E+00    1.4911E-12    0.0000E+00  setid=       0
 node=  1590 local x,y,z moments=   -9.5218E-18    0.0000E+00   -1.7692E-17  setid=       0
 node=  1591 local x,y,z forces =    0.0000E+00    1.3738E-12    0.0000E+00  setid=       0
 node=  1591 local x,y,z moments=   -4.1377E-17    0.0000E+00    2.7185E-17  setid=       0
 node=  1592 local x,y,z forces =    0.0000E+00    1.2684E-12    0.0000E+00  setid=       0
 node=  1592 local x,y,z moments=    8.1483E-18    0.0000E+00   -2.0374E-17  setid=       0
 node=  1593 local x,y,z forces =    0.0000E+00    6.9820E-13    0.0000E+00  setid=       0
 node=  1593 local x,y,z moments=    3.6500E-17    0.0000E+00    2.8862E-17  setid=       0
 node=  1594 local x,y,z forces =    0.0000E+00    1.2992E-12    0.0000E+00  setid=       0
 node=  1594 local x,y,z moments=   -2.4627E-17    0.0000E+00   -3.4921E-18  setid=       0
 node=  1595 local x,y,z forces =    0.0000E+00    7.3536E-13    0.0000E+00  setid=       0
 node=  1595 local x,y,z moments=   -2.6384E-17    0.0000E+00   -4.4356E-18  setid=       0
 node=  1596 local x,y,z forces =    0.0000E+00    1.4945E-12    0.0000E+00  setid=       0
 node=  1596 local x,y,z moments=    1.8498E-17    0.0000E+00    2.5788E-17  setid=       0
 node=  1597 local x,y,z forces =    0.0000E+00    4.9155E-13    0.0000E+00  setid=       0
 node=  1597 local x,y,z moments=    1.1653E-17    0.0000E+00   -2.3367E-18  setid=       0
 node=  1598 local x,y,z forces =    0.0000E+00    1.0437E-12    0.0000E+00  setid=       0
 node=  1598 local x,y,z moments=   -2.6519E-17    0.0000E+00    2.3028E-17  setid=       0
 node=  1599 local x,y,z forces =    0.0000E+00    1.5633E-13    0.0000E+00  setid=       0
 node=  1599 local x,y,z moments=    4.0738E-18    0.0000E+00   -8.9273E-20  setid=       0
 node=  1600 local x,y,z forces =    0.0000E+00    5.1627E-13    0.0000E+00  setid=       0
 node=  1600 local x,y,z moments=    2.0465E-17    0.0000E+00   -2.3202E-18  setid=       0
 node=  1601 local x,y,z forces =    0.0000E+00    4.7998E-13    0.0000E+00  setid=       0
 node=  1601 local x,y,z moments=    9.0078E-18    0.0000E+00   -7.1877E-18  setid=       0
 node=  1602 local x,y,z forces =    0.0000E+00    3.1194E-13    0.0000E+00  setid=       0
 node=  1602 local x,y,z moments=    9.5111E-20    0.0000E+00    1.5252E-17  setid=       0
 node=  1603 local x,y,z forces =    0.0000E+00    5.9418E-13    0.0000E+00  setid=       0
 node=  1603 local x,y,z moments=   -6.6632E-18    0.0000E+00   -1.2761E-18  setid=       0
 node=  1604 local x,y,z forces =    0.0000E+00    7.1714E-13    0.0000E+00  setid=       0
 node=  1604 local x,y,z moments=   -4.3296E-17    0.0000E+00    3.5118E-17  setid=       0
 node=  1605 local x,y,z forces =    0.0000E+00    5.0348E-13    0.0000E+00  setid=       0
 node=  1605 local x,y,z moments=    1.8840E-18    0.0000E+00    2.5685E-18  setid=       0
 node=  1606 local x,y,z forces =    0.0000E+00    4.9013E-13    0.0000E+00  setid=       0
 node=  1606 local x,y,z moments=    2.0537E-17    0.0000E+00    2.6229E-17  setid=       0
 node=  1607 local x,y,z forces =    0.0000E+00    4.3857E-13    0.0000E+00  setid=       0
 node=  1607 local x,y,z moments=   -8.1424E-18    0.0000E+00    3.6318E-18  setid=       0
 node=  1608 local x,y,z forces =    0.0000E+00    3.3585E-13    0.0000E+00  setid=       0
 node=  1608 local x,y,z moments=    3.8066E-18    0.0000E+00    1.0907E-19  setid=       0
 node=  1609 local x,y,z forces =    0.0000E+00    4.4851E-13    0.0000E+00  setid=       0
 node=  1609 local x,y,z moments=    4.4430E-19    0.0000E+00   -2.3907E-17  setid=       0
 node=  1610 local x,y,z forces =    0.0000E+00    8.6145E-13    0.0000E+00  setid=       0
 node=  1610 local x,y,z moments=    4.4581E-17    0.0000E+00    1.3665E-19  setid=       0
 node=  1611 local x,y,z forces =    0.0000E+00    9.0269E-13    0.0000E+00  setid=       0
 node=  1611 local x,y,z moments=   -2.3771E-17    0.0000E+00    1.1584E-17  setid=       0
 node=  1612 local x,y,z forces =    0.0000E+00    6.5217E-13    0.0000E+00  setid=       0
 node=  1612 local x,y,z moments=   -5.1974E-17    0.0000E+00   -8.7511E-18  setid=       0
 node=  1613 local x,y,z forces =    0.0000E+00    1.1484E-12    0.0000E+00  setid=       0
 node=  1613 local x,y,z moments=    1.4761E-17    0.0000E+00    3.3465E-17  setid=       0
 node=  1614 local x,y,z forces =    0.0000E+00    1.1918E-12    0.0000E+00  setid=       0
 node=  1614 local x,y,z moments=    8.1835E-18    0.0000E+00   -3.2185E-17  setid=       0
 node=  1615 local x,y,z forces =    0.0000E+00    3.5595E-13    0.0000E+00  setid=       0
 node=  1615 local x,y,z moments=    1.8457E-17    0.0000E+00    1.4584E-17  setid=       0
 node=  1616 local x,y,z forces =    0.0000E+00    8.1333E-13    0.0000E+00  setid=       0
 node=  1616 local x,y,z moments=    1.2467E-17    0.0000E+00   -8.3670E-18  setid=       0
 node=  1617 local x,y,z forces =    0.0000E+00    1.0275E-13    0.0000E+00  setid=       0
 node=  1617 local x,y,z moments=    2.5044E-18    0.0000E+00   -7.7446E-18  setid=       0
 node=  1618 local x,y,z forces =    0.0000E+00    1.1249E-12    0.0000E+00  setid=       0
 node=  1618 local x,y,z moments=    4.2001E-17    0.0000E+00   -3.1510E-17  setid=       0
 node=  1619 local x,y,z forces =    0.0000E+00    1.4490E-12    0.0000E+00  setid=       0
 node=  1619 local x,y,z moments=   -1.0423E-17    0.0000E+00    3.0112E-18  setid=       0
 node=  1620 local x,y,z forces =    0.0000E+00    7.0601E-13    0.0000E+00  setid=       0
 node=  1620 local x,y,z moments=   -5.6379E-17    0.0000E+00   -1.5948E-18  setid=       0
 node=  1621 local x,y,z forces =    0.0000E+00    1.4241E-12    0.0000E+00  setid=       0
 node=  1621 local x,y,z moments=    9.3412E-18    0.0000E+00    2.0324E-17  setid=       0
 node=  1622 local x,y,z forces =    0.0000E+00    7.8351E-13    0.0000E+00  setid=       0
 node=  1622 local x,y,z moments=   -1.7201E-17    0.0000E+00    1.0682E-17  setid=       0
 node=  1623 local x,y,z forces =    0.0000E+00    1.0537E-12    0.0000E+00  setid=       0
 node=  1623 local x,y,z moments=    1.0614E-17    0.0000E+00    1.8643E-17  setid=       0
 node=  1624 local x,y,z forces =    0.0000E+00    9.1185E-13    0.0000E+00  setid=       0
 node=  1624 local x,y,z moments=    4.2261E-17    0.0000E+00    1.1087E-17  setid=       0
 node=  1625 local x,y,z forces =    0.0000E+00    1.0717E-12    0.0000E+00  setid=       0
 node=  1625 local x,y,z moments=   -1.9793E-17    0.0000E+00   -2.6933E-18  setid=       0
 node=  1626 local x,y,z forces =    0.0000E+00    1.4649E-12    0.0000E+00  setid=       0
 node=  1626 local x,y,z moments=    5.7407E-18    0.0000E+00    1.3428E-17  setid=       0
 node=  1627 local x,y,z forces =    0.0000E+00    4.6959E-13    0.0000E+00  setid=       0
 node=  1627 local x,y,z moments=   -9.3835E-18    0.0000E+00   -7.2005E-18  setid=       0
 node=  1628 local x,y,z forces =    0.0000E+00    9.2301E-13    0.0000E+00  setid=       0
 node=  1628 local x,y,z moments=   -3.3531E-17    0.0000E+00    2.2283E-17  setid=       0
 node=  1629 local x,y,z forces =    0.0000E+00    1.0279E-12    0.0000E+00  setid=       0
 node=  1629 local x,y,z moments=   -3.2760E-18    0.0000E+00    3.8679E-17  setid=       0
 node=  1630 local x,y,z forces =    0.0000E+00    8.6352E-13    0.0000E+00  setid=       0
 node=  1630 local x,y,z moments=    1.3495E-17    0.0000E+00   -2.4430E-17  setid=       0
 node=  1631 local x,y,z forces =    0.0000E+00    1.6142E-12    0.0000E+00  setid=       0
 node=  1631 local x,y,z moments=    4.4784E-17    0.0000E+00    1.7224E-17  setid=       0
 node=  1632 local x,y,z forces =    0.0000E+00    1.1942E-12    0.0000E+00  setid=       0
 node=  1632 local x,y,z moments=    5.1376E-17    0.0000E+00   -1.6483E-17  setid=       0
 node=  1633 local x,y,z forces =    0.0000E+00    6.6493E-13    0.0000E+00  setid=       0
 node=  1633 local x,y,z moments=   -3.4277E-17    0.0000E+00   -5.2562E-18  setid=       0
 node=  1634 local x,y,z forces =    0.0000E+00    6.7523E-13    0.0000E+00  setid=       0
 node=  1634 local x,y,z moments=   -6.7270E-17    0.0000E+00    2.1281E-17  setid=       0
 node=  1635 local x,y,z forces =    0.0000E+00    2.6230E-13    0.0000E+00  setid=       0
 node=  1635 local x,y,z moments=    1.3901E-18    0.0000E+00   -1.6712E-18  setid=       0
 node=  1636 local x,y,z forces =    0.0000E+00    6.3509E-13    0.0000E+00  setid=       0
 node=  1636 local x,y,z moments=    2.9440E-17    0.0000E+00    3.5306E-19  setid=       0
 node=  1637 local x,y,z forces =    0.0000E+00    9.3701E-13    0.0000E+00  setid=       0
 node=  1637 local x,y,z moments=    1.3923E-17    0.0000E+00   -1.7833E-17  setid=       0
 node=  1638 local x,y,z forces =    0.0000E+00    1.7302E-12    0.0000E+00  setid=       0
 node=  1638 local x,y,z moments=    1.3187E-17    0.0000E+00    5.2432E-17  setid=       0
 node=  1639 local x,y,z forces =    0.0000E+00    4.9290E-13    0.0000E+00  setid=       0
 node=  1639 local x,y,z moments=   -1.0602E-17    0.0000E+00   -3.3958E-17  setid=       0
 node=  1640 local x,y,z forces =    0.0000E+00    4.9062E-13    0.0000E+00  setid=       0
 node=  1640 local x,y,z moments=   -1.5899E-17    0.0000E+00    3.6861E-17  setid=       0
 node=  1641 local x,y,z forces =    0.0000E+00    5.1769E-13    0.0000E+00  setid=       0
 node=  1641 local x,y,z moments=   -3.3992E-18    0.0000E+00   -2.5772E-17  setid=       0
 node=  1642 local x,y,z forces =    0.0000E+00    1.1461E-12    0.0000E+00  setid=       0
 node=  1642 local x,y,z moments=    1.1277E-17    0.0000E+00    1.8985E-17  setid=       0
 node=  1643 local x,y,z forces =    0.0000E+00    6.4941E-13    0.0000E+00  setid=       0
 node=  1643 local x,y,z moments=    8.1446E-18    0.0000E+00    8.0323E-18  setid=       0
 node=  1644 local x,y,z forces =    0.0000E+00    1.4517E-12    0.0000E+00  setid=       0
 node=  1644 local x,y,z moments=    4.5091E-18    0.0000E+00    4.2351E-17  setid=       0
 node=  1645 local x,y,z forces =    0.0000E+00    8.4689E-13    0.0000E+00  setid=       0
 node=  1645 local x,y,z moments=   -6.4524E-18    0.0000E+00    1.1523E-17  setid=       0
 node=  1646 local x,y,z forces =    0.0000E+00    9.8382E-13    0.0000E+00  setid=       0
 node=  1646 local x,y,z moments=   -1.7258E-17    0.0000E+00   -7.0448E-19  setid=       0
 node=  1647 local x,y,z forces =    0.0000E+00    2.5951E-14    0.0000E+00  setid=       0
 node=  1647 local x,y,z moments=    1.0371E-17    0.0000E+00    5.3203E-19  setid=       0
 node=  1648 local x,y,z forces =    0.0000E+00    5.5031E-13    0.0000E+00  setid=       0
 node=  1648 local x,y,z moments=   -1.6949E-17    0.0000E+00   -3.3003E-17  setid=       0
 node=  1649 local x,y,z forces =    0.0000E+00    6.9264E-07    0.0000E+00  setid=       0
 node=  1649 local x,y,z moments=    8.8217E-11    0.0000E+00    6.0079E-16  setid=       0
 node=  1650 local x,y,z forces =    0.0000E+00    6.9314E-07    0.0000E+00  setid=       0
 node=  1650 local x,y,z moments=    1.3808E-10    0.0000E+00   -1.1917E-14  setid=       0
 node=  1651 local x,y,z forces =    0.0000E+00    6.9271E-07    0.0000E+00  setid=       0
 node=  1651 local x,y,z moments=   -8.8217E-11    0.0000E+00    1.3564E-16  setid=       0
 node=  1652 local x,y,z forces =    0.0000E+00    6.9321E-07    0.0000E+00  setid=       0
 node=  1652 local x,y,z moments=   -1.3808E-10    0.0000E+00   -1.2449E-14  setid=       0
 node=  1838 local x,y,z forces =    0.0000E+00    3.8079E-13    0.0000E+00  setid=       0
 node=  1838 local x,y,z moments=    8.7160E-18    0.0000E+00    4.4326E-18  setid=       0
 node=  1840 local x,y,z forces =    0.0000E+00    6.4627E-13    0.0000E+00  setid=       0
 node=  1840 local x,y,z moments=    5.2107E-18    0.0000E+00    2.1174E-17  setid=       0
 node=  1842 local x,y,z forces =    0.0000E+00    9.0761E-13    0.0000E+00  setid=       0
 node=  1842 local x,y,z moments=   -2.5531E-17    0.0000E+00    3.8085E-17  setid=       0
 node=  1844 local x,y,z forces =    0.0000E+00    1.1764E-12    0.0000E+00  setid=       0
 node=  1844 local x,y,z moments=    2.6539E-18    0.0000E+00    3.1217E-17  setid=       0
 node=  1846 local x,y,z forces =    0.0000E+00    5.4090E-13    0.0000E+00  setid=       0
 node=  1846 local x,y,z moments=    9.6422E-18    0.0000E+00    1.2775E-17  setid=       0
 node=  1848 local x,y,z forces =    0.0000E+00    3.9141E-13    0.0000E+00  setid=       0
 node=  1848 local x,y,z moments=   -1.3460E-17    0.0000E+00    6.0211E-18  setid=       0
 node=  1850 local x,y,z forces =    0.0000E+00    4.1170E-13    0.0000E+00  setid=       0
 node=  1850 local x,y,z moments=    2.1417E-17    0.0000E+00    1.5288E-17  setid=       0
 node=  1852 local x,y,z forces =    0.0000E+00    9.5757E-13    0.0000E+00  setid=       0
 node=  1852 local x,y,z moments=    1.2622E-17    0.0000E+00   -6.2728E-18  setid=       0
 node=  1854 local x,y,z forces =    0.0000E+00    7.2240E-13    0.0000E+00  setid=       0
 node=  1854 local x,y,z moments=   -1.7627E-17    0.0000E+00    4.0962E-19  setid=       0
 node=  1856 local x,y,z forces =    0.0000E+00    5.7795E-13    0.0000E+00  setid=       0
 node=  1856 local x,y,z moments=   -9.1136E-18    0.0000E+00    2.8235E-17  setid=       0
 node=  1858 local x,y,z forces =    0.0000E+00    2.2444E-13    0.0000E+00  setid=       0
 node=  1858 local x,y,z moments=    1.4403E-17    0.0000E+00    1.9130E-17  setid=       0
 node=  1860 local x,y,z forces =    0.0000E+00    2.3991E-13    0.0000E+00  setid=       0
[...]
 node= 10397 local x,y,z forces =    5.0807E-13    0.0000E+00    0.0000E+00  setid=       0
 node= 10397 local x,y,z moments=    0.0000E+00    8.9820E-17    2.3139E-16  setid=       0
 node= 10412 local x,y,z forces =    1.0575E-13    0.0000E+00    0.0000E+00  setid=       0
 node= 10412 local x,y,z moments=    0.0000E+00    3.0332E-17   -5.3983E-17  setid=       0
 node= 10413 local x,y,z forces =    3.7795E-14    0.0000E+00    0.0000E+00  setid=       0
 node= 10413 local x,y,z moments=    0.0000E+00    8.0597E-18    2.4327E-17  setid=       0
 node= 10421 local x,y,z forces =    3.1018E-13    0.0000E+00    0.0000E+00  setid=       0
 node= 10421 local x,y,z moments=    0.0000E+00    2.0814E-17   -7.8732E-16  setid=       0
 node= 10450 local x,y,z forces =    4.3587E-13    0.0000E+00    0.0000E+00  setid=       0
 node= 10450 local x,y,z moments=    0.0000E+00   -9.3629E-16   -5.2518E-16  setid=       0
 node= 10451 local x,y,z forces =    1.0051E-13    0.0000E+00    0.0000E+00  setid=       0
 node= 10451 local x,y,z moments=    0.0000E+00   -1.5208E-16   -4.0174E-16  setid=       0
 node= 10452 local x,y,z forces =    2.0233E-13    0.0000E+00    0.0000E+00  setid=       0
 node= 10452 local x,y,z moments=    0.0000E+00    1.3017E-16   -2.3651E-16  setid=       0
 node= 10453 local x,y,z forces =    3.6931E-13    0.0000E+00    0.0000E+00  setid=       0
 node= 10453 local x,y,z moments=    0.0000E+00    2.2659E-16   -3.4189E-16  setid=       0
 node= 10461 local x,y,z forces =    5.3951E-13    0.0000E+00    0.0000E+00  setid=       0
 node= 10461 local x,y,z moments=    0.0000E+00   -1.2331E-16    8.6823E-17  setid=       0
 node= 10469 local x,y,z forces =    1.0942E-13    0.0000E+00    0.0000E+00  setid=       0
 node= 10469 local x,y,z moments=    0.0000E+00    6.1270E-18   -2.5888E-17  setid=       0
 node= 10484 local x,y,z forces =    3.8812E-13    0.0000E+00    0.0000E+00  setid=       0
 node= 10484 local x,y,z moments=    0.0000E+00   -6.2602E-17   -6.3532E-16  setid=       0
 node= 10485 local x,y,z forces =    1.8245E-13    0.0000E+00    0.0000E+00  setid=       0
 node= 10485 local x,y,z moments=    0.0000E+00    2.8869E-16   -3.8204E-16  setid=       0
 node= 10493 local x,y,z forces =    2.1417E-13    0.0000E+00    0.0000E+00  setid=       0
 node= 10493 local x,y,z moments=    0.0000E+00   -7.3800E-17    9.4040E-17  setid=       0
 node= 10501 local x,y,z forces =    4.5870E-13    0.0000E+00    0.0000E+00  setid=       0
 node= 10501 local x,y,z moments=    0.0000E+00    2.6822E-16   -2.0193E-16  setid=       0
 node= 10509 local x,y,z forces =    4.7929E-13    0.0000E+00    0.0000E+00  setid=       0
 node= 10509 local x,y,z moments=    0.0000E+00    1.7818E-16    5.5372E-17  setid=       0
 node= 10517 local x,y,z forces =    8.5617E-13    0.0000E+00    0.0000E+00  setid=       0
 node= 10517 local x,y,z moments=    0.0000E+00    8.0115E-17    3.3424E-16  setid=       0
 node= 10532 local x,y,z forces =    4.3333E-13    0.0000E+00    0.0000E+00  setid=       0
 node= 10532 local x,y,z moments=    0.0000E+00    5.3949E-16    3.7021E-16  setid=       0
 node= 10533 local x,y,z forces =    8.5620E-13    0.0000E+00    0.0000E+00  setid=       0
 node= 10533 local x,y,z moments=    0.0000E+00   -1.4398E-16    2.2936E-16  setid=       0
 node= 10541 local x,y,z forces =    7.6537E-13    0.0000E+00    0.0000E+00  setid=       0
 node= 10541 local x,y,z moments=    0.0000E+00    2.8580E-16    2.7985E-16  setid=       0
 node= 10549 local x,y,z forces =    8.6202E-13    0.0000E+00    0.0000E+00  setid=       0
 node= 10549 local x,y,z moments=    0.0000E+00   -8.2962E-17    2.7184E-17  setid=       0
 node= 10557 local x,y,z forces =    4.3286E-13    0.0000E+00    0.0000E+00  setid=       0
 node= 10557 local x,y,z moments=    0.0000E+00   -1.4627E-16    3.0513E-18  setid=       0
 node= 10586 local x,y,z forces =    5.2488E-07    0.0000E+00    0.0000E+00  setid=       0
 node= 10586 local x,y,z moments=    0.0000E+00    5.0533E-10    2.8618E-12  setid=       0
 node= 10587 local x,y,z forces =    5.2519E-07    0.0000E+00    0.0000E+00  setid=       0
 node= 10587 local x,y,z moments=    0.0000E+00    5.8621E-10    3.2613E-12  setid=       0
 node= 10588 local x,y,z forces =    5.2264E-07    0.0000E+00    0.0000E+00  setid=       0
 node= 10588 local x,y,z moments=    0.0000E+00   -5.8593E-10   -3.1945E-12  setid=       0
 node= 10589 local x,y,z forces =    5.2262E-07    0.0000E+00    0.0000E+00  setid=       0
 node= 10589 local x,y,z moments=    0.0000E+00   -5.0508E-10   -2.7467E-12  setid=       0
 node= 10597 local x,y,z forces =    3.7021E-13    0.0000E+00    0.0000E+00  setid=       0
 node= 10597 local x,y,z moments=    0.0000E+00    2.8986E-17   -1.6418E-16  setid=       0
 node= 10612 local x,y,z forces =    9.5858E-13    0.0000E+00    0.0000E+00  setid=       0
 node= 10612 local x,y,z moments=    0.0000E+00   -1.6393E-17   -4.3194E-17  setid=       0
 node= 10613 local x,y,z forces =    6.9468E-13    0.0000E+00    0.0000E+00  setid=       0
 node= 10613 local x,y,z moments=    0.0000E+00   -1.2412E-17    7.2489E-17  setid=       0
 node= 10621 local x,y,z forces =    5.6704E-13    0.0000E+00    0.0000E+00  setid=       0
 node= 10621 local x,y,z moments=    0.0000E+00   -3.6816E-16    2.0002E-16  setid=       0
 node= 10636 local x,y,z forces =    7.2401E-13    0.0000E+00    0.0000E+00  setid=       0
 node= 10636 local x,y,z moments=    0.0000E+00    2.2592E-16    1.4075E-17  setid=       0
 node= 10637 local x,y,z forces =    4.2411E-13    0.0000E+00    0.0000E+00  setid=       0
 node= 10637 local x,y,z moments=    0.0000E+00   -1.9568E-16   -2.5400E-16  setid=       0
 node= 10652 local x,y,z forces =    9.2204E-13    0.0000E+00    0.0000E+00  setid=       0
 node= 10652 local x,y,z moments=    0.0000E+00   -1.8407E-16   -1.7030E-16  setid=       0
 node= 10653 local x,y,z forces =    5.8475E-13    0.0000E+00    0.0000E+00  setid=       0
 node= 10653 local x,y,z moments=    0.0000E+00    3.7609E-16    1.7243E-17  setid=       0
 node= 10661 local x,y,z forces =    2.7496E-13    0.0000E+00    0.0000E+00  setid=       0
 node= 10661 local x,y,z moments=    0.0000E+00    2.9083E-16    3.9195E-16  setid=       0
 node= 10676 local x,y,z forces =    7.0318E-13    0.0000E+00    0.0000E+00  setid=       0
 node= 10676 local x,y,z moments=    0.0000E+00   -2.4680E-16    1.3504E-16  setid=       0
 node= 10677 local x,y,z forces =    3.4575E-13    0.0000E+00    0.0000E+00  setid=       0
 node= 10677 local x,y,z moments=    0.0000E+00    1.0210E-16    3.4102E-16  setid=       0
 node= 10685 local x,y,z forces =    7.7433E-13    0.0000E+00    0.0000E+00  setid=       0
 node= 10685 local x,y,z moments=    0.0000E+00   -3.7584E-17   -8.0395E-17  setid=       0
 node= 10693 local x,y,z forces =    6.4977E-13    0.0000E+00    0.0000E+00  setid=       0
 node= 10693 local x,y,z moments=    0.0000E+00    1.6813E-16    2.2149E-16  setid=       0
 node= 10701 local x,y,z forces =    6.2060E-13    0.0000E+00    0.0000E+00  setid=       0
 node= 10701 local x,y,z moments=    0.0000E+00   -4.2248E-16   -3.5945E-18  setid=       0
 node= 10709 local x,y,z forces =    4.6048E-13    0.0000E+00    0.0000E+00  setid=       0
 node= 10709 local x,y,z moments=    0.0000E+00    2.2284E-16   -1.6803E-16  setid=       0
 node= 10717 local x,y,z forces =    5.2680E-07    0.0000E+00    0.0000E+00  setid=       0
 node= 10717 local x,y,z moments=    0.0000E+00    1.2191E-09    6.4134E-12  setid=       0
 node= 10725 local x,y,z forces =    7.2256E-13    0.0000E+00    0.0000E+00  setid=       0
 node= 10725 local x,y,z moments=    0.0000E+00   -1.0225E-16    3.8152E-16  setid=       0
 node= 10740 local x,y,z forces =   -3.1867E-15    0.0000E+00    0.0000E+00  setid=       0
 node= 10740 local x,y,z moments=    0.0000E+00   -2.8998E-18    5.2979E-18  setid=       0
 node= 10741 local x,y,z forces =   -5.3218E-15    0.0000E+00    0.0000E+00  setid=       0
 node= 10741 local x,y,z moments=    0.0000E+00   -2.4988E-18   -1.8920E-17  setid=       0
 node= 10749 local x,y,z forces =    1.4387E-13    0.0000E+00    0.0000E+00  setid=       0
 node= 10749 local x,y,z moments=    0.0000E+00    5.8410E-16   -9.2790E-16  setid=       0
 node= 10757 local x,y,z forces =    1.8056E-13    0.0000E+00    0.0000E+00  setid=       0
 node= 10757 local x,y,z moments=    0.0000E+00    8.1418E-17    4.0613E-17  setid=       0
 node= 10765 local x,y,z forces =    2.3262E-14    0.0000E+00    0.0000E+00  setid=       0
 node= 10765 local x,y,z moments=    0.0000E+00    4.4994E-17    7.5652E-18  setid=       0
 node= 10773 local x,y,z forces =    4.0906E-13    0.0000E+00    0.0000E+00  setid=       0
 node= 10773 local x,y,z moments=    0.0000E+00    1.1098E-16   -1.1164E-16  setid=       0
 node= 10788 local x,y,z forces =    5.8076E-13    0.0000E+00    0.0000E+00  setid=       0
 node= 10788 local x,y,z moments=    0.0000E+00   -1.7264E-16    1.2559E-16  setid=       0
 node= 10789 local x,y,z forces =    1.2088E-13    0.0000E+00    0.0000E+00  setid=       0
 node= 10789 local x,y,z moments=    0.0000E+00   -4.7207E-17    1.0644E-17  setid=       0
 node= 10804 local x,y,z forces =   -1.1169E-15    0.0000E+00    0.0000E+00  setid=       0
 node= 10804 local x,y,z moments=    0.0000E+00   -1.0590E-16   -3.6737E-16  setid=       0
 node= 10805 local x,y,z forces =    1.5534E-13    0.0000E+00    0.0000E+00  setid=       0
 node= 10805 local x,y,z moments=    0.0000E+00   -2.1516E-16   -7.5517E-16  setid=       0
 node= 10813 local x,y,z forces =    1.6521E-13    0.0000E+00    0.0000E+00  setid=       0
 node= 10813 local x,y,z moments=    0.0000E+00    7.8731E-17   -1.4146E-16  setid=       0
 node= 10821 local x,y,z forces =    6.2602E-13    0.0000E+00    0.0000E+00  setid=       0
 node= 10821 local x,y,z moments=    0.0000E+00    8.0639E-17    2.5923E-16  setid=       0
 node= 10829 local x,y,z forces =    3.1458E-13    0.0000E+00    0.0000E+00  setid=       0
 node= 10829 local x,y,z moments=    0.0000E+00   -2.1943E-16   -2.0497E-16  setid=       0
 node= 10837 local x,y,z forces =    5.5323E-13    0.0000E+00    0.0000E+00  setid=       0
 node= 10837 local x,y,z moments=    0.0000E+00   -5.9565E-17    1.1322E-16  setid=       0
 node= 10859 local x,y,z forces =    3.2758E-13    0.0000E+00    0.0000E+00  setid=       0
 node= 10859 local x,y,z moments=    0.0000E+00    6.6406E-17    1.6069E-16  setid=       0
 node= 10860 local x,y,z forces =    1.9140E-13    0.0000E+00    0.0000E+00  setid=       0
 node= 10860 local x,y,z moments=    0.0000E+00    1.3881E-17   -9.9875E-18  setid=       0
 node= 10861 local x,y,z forces =    1.8282E-13    0.0000E+00    0.0000E+00  setid=       0
 node= 10861 local x,y,z moments=    0.0000E+00   -1.0879E-18   -2.5905E-18  setid=       0
 node= 10883 local x,y,z forces =    1.0433E-13    0.0000E+00    0.0000E+00  setid=       0
 node= 10883 local x,y,z moments=    0.0000E+00    2.1143E-16   -3.4608E-16  setid=       0
 node= 10884 local x,y,z forces =    2.2904E-13    0.0000E+00    0.0000E+00  setid=       0
 node= 10884 local x,y,z moments=    0.0000E+00   -6.5505E-17   -9.2952E-16  setid=       0
 node= 10885 local x,y,z forces =    8.1978E-14    0.0000E+00    0.0000E+00  setid=       0
 node= 10885 local x,y,z moments=    0.0000E+00   -3.8111E-17   -1.2170E-16  setid=       0
 node= 10893 local x,y,z forces =    2.9172E-13    0.0000E+00    0.0000E+00  setid=       0
 node= 10893 local x,y,z moments=    0.0000E+00   -9.8662E-18    9.6939E-17  setid=       0
 node= 10901 local x,y,z forces =    6.4903E-13    0.0000E+00    0.0000E+00  setid=       0
 node= 10901 local x,y,z moments=    0.0000E+00    2.8699E-16    1.4282E-16  setid=       0
 node= 10909 local x,y,z forces =    4.8702E-13    0.0000E+00    0.0000E+00  setid=       0
 node= 10909 local x,y,z moments=    0.0000E+00   -1.1682E-16   -5.6790E-17  setid=       0
 node= 10924 local x,y,z forces =    5.2880E-14    0.0000E+00    0.0000E+00  setid=       0
 node= 10924 local x,y,z moments=    0.0000E+00    6.7050E-17   -3.7343E-16  setid=       0
 node= 10925 local x,y,z forces =    9.1499E-14    0.0000E+00    0.0000E+00  setid=       0
 node= 10925 local x,y,z moments=    0.0000E+00   -2.5843E-16   -2.5016E-16  setid=       0
 node= 10933 local x,y,z forces =    1.1864E-13    0.0000E+00    0.0000E+00  setid=       0
 node= 10933 local x,y,z moments=    0.0000E+00   -1.1546E-16   -1.1175E-16  setid=       0
 node= 10941 local x,y,z forces =    1.7125E-13    0.0000E+00    0.0000E+00  setid=       0
 node= 10941 local x,y,z moments=    0.0000E+00   -5.7335E-17   -9.0560E-17  setid=       0
 node= 10949 local x,y,z forces =    7.7516E-13    0.0000E+00    0.0000E+00  setid=       0
 node= 10949 local x,y,z moments=    0.0000E+00   -1.5882E-16    2.2985E-16  setid=       0
 node= 10957 local x,y,z forces =    1.0115E-12    0.0000E+00    0.0000E+00  setid=       0
 node= 10957 local x,y,z moments=    0.0000E+00    4.5253E-16   -5.9717E-18  setid=       0
 node= 10965 local x,y,z forces =    6.5955E-13    0.0000E+00    0.0000E+00  setid=       0
 node= 10965 local x,y,z moments=    0.0000E+00    2.1153E-17    3.1177E-17  setid=       0
 node= 10973 local x,y,z forces =    6.3316E-13    0.0000E+00    0.0000E+00  setid=       0
 node= 10973 local x,y,z moments=    0.0000E+00    2.6340E-16    2.7478E-16  setid=       0
 node= 10981 local x,y,z forces =    9.3865E-13    0.0000E+00    0.0000E+00  setid=       0
 node= 10981 local x,y,z moments=    0.0000E+00    1.9207E-16   -1.6446E-16  setid=       0
 node= 10989 local x,y,z forces =    5.2266E-07    0.0000E+00    0.0000E+00  setid=       0
 node= 10989 local x,y,z moments=    0.0000E+00   -6.7354E-10   -3.6318E-12  setid=       0
 node= 11004 local x,y,z forces =    5.2320E-07    0.0000E+00    0.0000E+00  setid=       0
 node= 11004 local x,y,z moments=    0.0000E+00    2.4336E-10    1.5628E-12  setid=       0
 node= 11005 local x,y,z forces =    5.2128E-07    0.0000E+00    0.0000E+00  setid=       0
 node= 11005 local x,y,z moments=    0.0000E+00   -2.4276E-10   -1.5060E-12  setid=       0
 node= 11013 local x,y,z forces =    5.3743E-13    0.0000E+00    0.0000E+00  setid=       0
 node= 11013 local x,y,z moments=    0.0000E+00    1.3384E-16    4.8072E-16  setid=       0
 node= 11021 local x,y,z forces =    2.5449E-13    0.0000E+00    0.0000E+00  setid=       0
 node= 11021 local x,y,z moments=    0.0000E+00   -9.9916E-18    1.7100E-17  setid=       0
 node= 11029 local x,y,z forces =    9.3944E-13    0.0000E+00    0.0000E+00  setid=       0
 node= 11029 local x,y,z moments=    0.0000E+00    1.4141E-16   -9.4119E-17  setid=       0
 node= 11037 local x,y,z forces =    7.4891E-13    0.0000E+00    0.0000E+00  setid=       0
 node= 11037 local x,y,z moments=    0.0000E+00    4.7355E-17    1.7842E-16  setid=       0
 node= 11045 local x,y,z forces =    1.4068E-13    0.0000E+00    0.0000E+00  setid=       0
 node= 11045 local x,y,z moments=    0.0000E+00   -7.4708E-17   -7.9685E-17  setid=       0
 node= 11053 local x,y,z forces =    1.9618E-13    0.0000E+00    0.0000E+00  setid=       0
 node= 11053 local x,y,z moments=    0.0000E+00   -8.0128E-17   -4.0129E-17  setid=       0
 node= 11061 local x,y,z forces =    5.3715E-13    0.0000E+00    0.0000E+00  setid=       0
 node= 11061 local x,y,z moments=    0.0000E+00    8.2728E-17    1.8162E-16  setid=       0
 node= 11069 local x,y,z forces =    9.0178E-13    0.0000E+00    0.0000E+00  setid=       0
 node= 11069 local x,y,z moments=    0.0000E+00    8.2374E-17    2.4659E-17  setid=       0
 node= 11077 local x,y,z forces =    1.3688E-13    0.0000E+00    0.0000E+00  setid=       0
 node= 11077 local x,y,z moments=    0.0000E+00   -2.1632E-18   -1.6347E-17  setid=       0
 node= 11085 local x,y,z forces =    5.2553E-07    0.0000E+00    0.0000E+00  setid=       0
 node= 11085 local x,y,z moments=    0.0000E+00    6.7377E-10    3.7471E-12  setid=       0
 node= 11093 local x,y,z forces =    6.5296E-13    0.0000E+00    0.0000E+00  setid=       0
 node= 11093 local x,y,z moments=    0.0000E+00   -8.7995E-17   -3.5863E-16  setid=       0
 node= 11101 local x,y,z forces =    1.0278E-13    0.0000E+00    0.0000E+00  setid=       0
 node= 11101 local x,y,z moments=    0.0000E+00   -2.1686E-18   -1.0058E-16  setid=       0
 node= 11109 local x,y,z forces =    1.6120E-13    0.0000E+00    0.0000E+00  setid=       0
 node= 11109 local x,y,z moments=    0.0000E+00   -1.8179E-16   -2.3549E-16  setid=       0
 node= 11117 local x,y,z forces =    2.8010E-13    0.0000E+00    0.0000E+00  setid=       0
 node= 11117 local x,y,z moments=    0.0000E+00    7.7515E-17   -6.7997E-16  setid=       0
 node= 11125 local x,y,z forces =    7.9494E-14    0.0000E+00    0.0000E+00  setid=       0
 node= 11125 local x,y,z moments=    0.0000E+00   -3.5512E-17   -2.0006E-16  setid=       0
 node= 11133 local x,y,z forces =    4.2553E-13    0.0000E+00    0.0000E+00  setid=       0
 node= 11133 local x,y,z moments=    0.0000E+00    2.5940E-17    1.9243E-16  setid=       0
 node= 11141 local x,y,z forces =    4.5198E-13    0.0000E+00    0.0000E+00  setid=       0
 node= 11141 local x,y,z moments=    0.0000E+00    7.1239E-17    1.8429E-16  setid=       0
 node= 11149 local x,y,z forces =    2.1546E-13    0.0000E+00    0.0000E+00  setid=       0
 node= 11149 local x,y,z moments=    0.0000E+00    2.1423E-17   -3.2793E-16  setid=       0
 node= 11178 local x,y,z forces =    1.5355E-13    0.0000E+00    0.0000E+00  setid=       0
 node= 11178 local x,y,z moments=    0.0000E+00   -4.5458E-16   -4.5187E-16  setid=       0
 node= 11179 local x,y,z forces =    4.1825E-13    0.0000E+00    0.0000E+00  setid=       0
 node= 11179 local x,y,z moments=    0.0000E+00    2.1412E-17   -4.5466E-16  setid=       0
 node= 11180 local x,y,z forces =    5.0007E-13    0.0000E+00    0.0000E+00  setid=       0
 node= 11180 local x,y,z moments=    0.0000E+00    9.0362E-17   -2.4619E-16  setid=       0
 node= 11181 local x,y,z forces =    2.8550E-13    0.0000E+00    0.0000E+00  setid=       0
 node= 11181 local x,y,z moments=    0.0000E+00    4.0193E-17   -6.6466E-16  setid=       0
 node= 11189 local x,y,z forces =    8.6910E-13    0.0000E+00    0.0000E+00  setid=       0
 node= 11189 local x,y,z moments=    0.0000E+00   -7.2669E-18   -3.1654E-16  setid=       0
 node= 11197 local x,y,z forces =    8.3945E-14    0.0000E+00    0.0000E+00  setid=       0
 node= 11197 local x,y,z moments=    0.0000E+00   -4.4572E-16   -6.2803E-16  setid=       0
 node= 11205 local x,y,z forces =    1.0924E-13    0.0000E+00    0.0000E+00  setid=       0
 node= 11205 local x,y,z moments=    0.0000E+00   -1.5982E-17   -4.8372E-17  setid=       0
 node= 11213 local x,y,z forces =    8.3192E-13    0.0000E+00    0.0000E+00  setid=       0
 node= 11213 local x,y,z moments=    0.0000E+00   -6.9956E-17   -1.0908E-16  setid=       0
 node= 11221 local x,y,z forces =    4.9428E-13    0.0000E+00    0.0000E+00  setid=       0
 node= 11221 local x,y,z moments=    0.0000E+00   -3.8720E-16   -7.4261E-17  setid=       0
 node= 11229 local x,y,z forces =    5.2570E-07    0.0000E+00    0.0000E+00  setid=       0
 node= 11229 local x,y,z moments=    0.0000E+00    7.6818E-10    4.1353E-12  setid=       0
 node= 11237 local x,y,z forces =    1.1671E-07    0.0000E+00    0.0000E+00  setid=       0
 node= 11237 local x,y,z moments=    0.0000E+00   -1.1584E-09   -5.8915E-10  setid=       0
 node= 11245 local x,y,z forces =    1.1922E-07    0.0000E+00    0.0000E+00  setid=       0
 node= 11245 local x,y,z moments=    0.0000E+00    1.1515E-09   -5.7762E-10  setid=       0
 node= 11253 local x,y,z forces =    5.2649E-07    0.0000E+00    0.0000E+00  setid=       0
 node= 11253 local x,y,z moments=    0.0000E+00    1.0948E-09    5.8394E-12  setid=       0
             force resultants   =    3.0676E-05    3.0693E-05    1.7267E-11
