 LS-DYNA keyword deck by LS-PrePost                                      
                    ls-dyna smp d R14 R14.1.1s_1_ef50e1 date 06/16/2024



 n o d a l  s t r e s s  c a l c u l a t i o n s   f o r   t i m e  s t e p        1   ( at time 0.00000E+00 )

 node (global)
          stress       sig-xx      sig-yy      sig-zz      sig-xy      sig-yz      sig-zx       plastic
                                                                                                 strain 
       1-
 mid.  surface     5.3602E-05  5.3602E-05  5.3602E-05  0.0000E+00  0.0000E+00  0.0000E+00  0.0000E+00
       2-
 mid.  surface     9.5276E-05  9.5276E-05  9.5276E-05  0.0000E+00  0.0000E+00  0.0000E+00  0.0000E+00
       8-
 mid.  surface     3.1932E-05  3.1932E-05  3.1932E-05  0.0000E+00  0.0000E+00  0.0000E+00  0.0000E+00
       9-
 mid.  surface    -2.9208E-05 -2.9208E-05 -2.9208E-05  0.0000E+00  0.0000E+00  0.0000E+00  0.0000E+00
      10-
 mid.  surface     4.4959E-05  4.4959E-05  4.4959E-05  0.0000E+00  0.0000E+00  0.0000E+00  0.0000E+00
      11-
 mid.  surface     2.9827E-05  2.9827E-05  2.9827E-05  0.0000E+00  0.0000E+00  0.0000E+00  0.0000E+00
      12-
 mid.  surface     5.5756E-05  5.5756E-05  5.5756E-05  0.0000E+00  0.0000E+00  0.0000E+00  0.0000E+00
      17-
 mid.  surface    -2.1580E-05 -2.1580E-05 -2.1580E-05  0.0000E+00  0.0000E+00  0.0000E+00  0.0000E+00
      18-
 mid.  surface     2.1147E-05  2.1147E-05  2.1147E-05  0.0000E+00  0.0000E+00  0.0000E+00  0.0000E+00
      19-
 mid.  surface     7.9568E-05  7.9568E-05  7.9568E-05  0.0000E+00  0.0000E+00  0.0000E+00  0.0000E+00
      20-
 mid.  surface    -1.1466E-04 -1.1466E-04 -1.1466E-04  0.0000E+00  0.0000E+00  0.0000E+00  0.0000E+00
      21-
 mid.  surface    -4.9213E-05 -4.9213E-05 -4.9213E-05  0.0000E+00  0.0000E+00  0.0000E+00  0.0000E+00
      22-
 mid.  surface    -9.0888E-05 -9.0888E-05 -9.0888E-05  0.0000E+00  0.0000E+00  0.0000E+00  0.0000E+00
      23-
 mid.  surface    -6.1100E-05 -6.1100E-05 -6.1100E-05  0.0000E+00  0.0000E+00  0.0000E+00  0.0000E+00
      52-
 mid.  surface     6.0667E-05  6.0667E-05  6.0667E-05  0.0000E+00  0.0000E+00  0.0000E+00  0.0000E+00
      53-
 mid.  surface     1.8992E-05  1.8992E-05  1.8992E-05  0.0000E+00  0.0000E+00  0.0000E+00  0.0000E+00
     124-
 mid.  surface    -3.8955E-05 -3.8955E-05 -3.8955E-05  0.0000E+00  0.0000E+00  0.0000E+00  0.0000E+00
     125-
 mid.  surface    -4.9213E-05 -4.9213E-05 -4.9213E-05  0.0000E+00  0.0000E+00  0.0000E+00  0.0000E+00
     148-
 mid.  surface     3.6241E-05  3.6241E-05  3.6241E-05  0.0000E+00  0.0000E+00  0.0000E+00  0.0000E+00
     164-
 mid.  surface    -6.0625E-05 -6.0625E-05 -6.0625E-05  0.0000E+00  0.0000E+00  0.0000E+00  0.0000E+00



 n o d a l  s t r a i n  c a l c u l a t i o n s   f o r   t i m e  s t e p        1   ( at time 0.00000E+00 )

 node (global)
          strain       eps-xx      eps-yy      eps-zz      eps-xy      eps-yz      eps-zx       
       1-
 mid.  surface     0.0000E+00  0.0000E+00  0.0000E+00  0.0000E+00  0.0000E+00  0.0000E+00
       2-
 mid.  surface     0.0000E+00  0.0000E+00  0.0000E+00  0.0000E+00  0.0000E+00  0.0000E+00
       8-
 mid.  surface     0.0000E+00  0.0000E+00  0.0000E+00  0.0000E+00  0.0000E+00  0.0000E+00
       9-
 mid.  surface     0.0000E+00  0.0000E+00  0.0000E+00  0.0000E+00  0.0000E+00  0.0000E+00
      10-
 mid.  surface     0.0000E+00  0.0000E+00  0.0000E+00  0.0000E+00  0.0000E+00  0.0000E+00
      11-
 mid.  surface     0.0000E+00  0.0000E+00  0.0000E+00  0.0000E+00  0.0000E+00  0.0000E+00
      12-
 mid.  surface     0.0000E+00  0.0000E+00  0.0000E+00  0.0000E+00  0.0000E+00  0.0000E+00
      17-
 mid.  surface     0.0000E+00  0.0000E+00  0.0000E+00  0.0000E+00  0.0000E+00  0.0000E+00
      18-
 mid.  surface     0.0000E+00  0.0000E+00  0.0000E+00  0.0000E+00  0.0000E+00  0.0000E+00
      19-
 mid.  surface     0.0000E+00  0.0000E+00  0.0000E+00  0.0000E+00  0.0000E+00  0.0000E+00
      20-
 mid.  surface     0.0000E+00  0.0000E+00  0.0000E+00  0.0000E+00  0.0000E+00  0.0000E+00
      21-
 mid.  surface     0.0000E+00  0.0000E+00  0.0000E+00  0.0000E+00  0.0000E+00  0.0000E+00
      22-
 mid.  surface     0.0000E+00  0.0000E+00  0.0000E+00  0.0000E+00  0.0000E+00  0.0000E+00
      23-
 mid.  surface     0.0000E+00  0.0000E+00  0.0000E+00  0.0000E+00  0.0000E+00  0.0000E+00
      52-
 mid.  surface     0.0000E+00  0.0000E+00  0.0000E+00  0.0000E+00  0.0000E+00  0.0000E+00
      53-
 mid.  surface     0.0000E+00  0.0000E+00  0.0000E+00  0.0000E+00  0.0000E+00  0.0000E+00
     124-
 mid.  surface     0.0000E+00  0.0000E+00  0.0000E+00  0.0000E+00  0.0000E+00  0.0000E+00
     125-
 mid.  surface     0.0000E+00  0.0000E+00  0.0000E+00  0.0000E+00  0.0000E+00  0.0000E+00
     148-
 mid.  surface     0.0000E+00  0.0000E+00  0.0000E+00  0.0000E+00  0.0000E+00  0.0000E+00
     164-
 mid.  surface     0.0000E+00  0.0000E+00  0.0000E+00  0.0000E+00  0.0000E+00  0.0000E+00



 n o d a l  s t r e s s  c a l c u l a t i o n s   f o r   t i m e  s t e p       10   ( at time 1.29245E+00 )

 node (global)
          stress       sig-xx      sig-yy      sig-zz      sig-xy      sig-yz      sig-zx       plastic
                                                                                                 strain 
       1-
 mid.  surface    -7.5699E+06 -2.3953E+07 -2.7506E+08  4.1340E+07 -1.2734E+07 -3.6591E+07 -1.1918E-04
       2-
 mid.  surface    -7.1079E+07 -4.4508E+07 -3.0053E+08  2.2916E+07 -4.6015E+06 -5.7050E+06  4.6423E-04
       8-
 mid.  surface    -1.2605E+07  5.1210E+07 -2.2404E+08 -7.9604E+06 -6.8423E+06  2.4055E+06 -1.4964E-04
       9-
 mid.  surface    -3.9262E+07 -1.9102E+07 -2.8967E+08 -2.0332E+07 -6.7270E+06  6.6378E+06  3.2738E-04
      10-
 mid.  surface    -4.4277E+07 -1.9063E+07 -2.8275E+08  4.8979E+06 -7.7591E+06  2.0561E+07  4.1335E-04
      11-
 mid.  surface    -1.1097E+07 -9.6262E+06 -2.6666E+08  1.8024E+07 -7.1284E+07 -6.3558E+06  1.8042E-04
      12-
 mid.  surface    -2.4247E+07 -2.1157E+07 -2.6419E+08  1.1639E+07 -6.9463E+07 -2.8905E+07  8.7499E-06
      17-
 mid.  surface     2.0750E+07 -7.9308E+06 -2.3102E+08  2.0044E+07 -3.1877E+07 -2.7034E+07  7.0106E-05
      18-
 mid.  surface    -1.1806E+07  2.6790E+07 -2.2397E+08  2.3709E+07  1.3180E+06 -6.0543E+06  8.1824E-06
      19-
 mid.  surface    -3.8467E+07 -3.6443E+07 -2.5985E+08 -8.1245E+06 -2.2124E+07 -1.6121E+07  3.5945E-04
      20-
 mid.  surface    -3.6957E+06 -3.7082E+07 -2.6839E+08  1.4742E+07  1.6089E+07  2.0589E+07  2.8360E-05
      21-
 mid.  surface    -5.8249E+07 -5.7639E+07 -2.9175E+08 -1.3769E+07  1.4928E+07  1.4377E+07  3.0836E-04
      22-
 mid.  surface    -4.8335E+07 -5.0963E+07 -3.0620E+08  7.2321E+06  2.5980E+07 -2.2396E+07 -6.1950E-05
      23-
 mid.  surface    -3.5075E+07 -3.7793E+07 -3.1633E+08  1.4666E+07  2.7062E+07 -1.7767E+07  7.6105E-05
      52-
 mid.  surface    -5.4362E+07 -3.1195E+07 -2.9573E+08  3.3541E+06 -7.7057E+06 -2.2370E+07  3.8498E-04
      53-
 mid.  surface    -2.3014E+07  1.2756E+07 -2.3771E+08  2.2829E+07 -1.7615E+07 -2.5148E+06 -2.2267E-05
     124-
 mid.  surface    -8.8978E+07 -6.1209E+07 -3.2351E+08  1.8241E+07  2.4535E+07 -5.6462E+06  4.3058E-04
     125-
 mid.  surface    -3.4209E+07 -5.6874E+07 -3.0201E+08  3.6769E+07  6.1618E+07 -3.1430E+07 -1.2520E-04
     148-
 mid.  surface    -2.3091E+07  3.9491E+07 -2.3442E+08 -7.3352E+06 -1.2334E+07  6.7061E+04 -1.6403E-04
     164-
 mid.  surface    -4.8338E+07 -3.1414E+07 -3.0308E+08 -2.0810E+07 -1.4306E+07 -2.4302E+07  2.9868E-04



 n o d a l  s t r a i n  c a l c u l a t i o n s   f o r   t i m e  s t e p       10   ( at time 1.29245E+00 )

 node (global)
          strain       eps-xx      eps-yy      eps-zz      eps-xy      eps-yz      eps-zx       
       1-
 mid.  surface     1.1780E-03  8.1008E-04 -3.4429E-03  7.7317E-04 -2.1344E-04 -6.8745E-04
       2-
 mid.  surface     1.2720E-03  1.7510E-03 -4.9997E-03  5.1838E-04 -6.3397E-05 -3.3521E-04
       8-
 mid.  surface     4.3855E-04  1.7083E-03 -3.0283E-03 -1.9059E-04 -6.3463E-05  5.1718E-05
       9-
 mid.  surface     1.3087E-03  1.7335E-03 -4.6987E-03 -3.6945E-04 -2.0638E-04  1.0775E-04
      10-
 mid.  surface     1.3189E-03  1.8475E-03 -4.8137E-03  1.4238E-04 -1.9520E-04  3.2723E-04
      11-
 mid.  surface     1.4540E-03  1.3799E-03 -4.2031E-03  3.5083E-04 -1.3312E-03 -2.1102E-04
      12-
 mid.  surface     1.0468E-03  1.0299E-03 -3.5481E-03  1.9903E-04 -1.2526E-03 -5.9680E-04
      17-
 mid.  surface     1.5134E-03  1.0184E-03 -3.5702E-03  4.1821E-04 -4.5055E-04 -6.1149E-04
      18-
 mid.  surface     7.4855E-04  1.5601E-03 -3.3018E-03  4.6109E-04  5.8610E-05 -1.6930E-04
      19-
 mid.  surface     1.2972E-03  1.4128E-03 -4.3015E-03 -9.4114E-05 -2.5914E-04 -4.7571E-04
      20-
 mid.  surface     1.4090E-03  8.3076E-04 -3.7091E-03  3.1126E-04  1.6516E-04  4.5097E-04
      21-
 mid.  surface     1.1825E-03  1.3095E-03 -4.4294E-03 -2.0246E-04  9.4322E-05  2.7342E-04
      22-
 mid.  surface     9.3883E-04  8.3991E-04 -3.7045E-03  1.0276E-04  4.3722E-04 -3.4194E-04
      23-
 mid.  surface     1.3546E-03  1.1888E-03 -4.3935E-03  2.6411E-04  5.3560E-04 -3.0103E-04
      52-
 mid.  surface     1.2539E-03  1.7272E-03 -4.7947E-03  1.1299E-04 -2.9065E-04 -4.7845E-04
      53-
 mid.  surface     6.7580E-04  1.4244E-03 -3.2777E-03  4.4842E-04 -4.5607E-04 -1.3026E-05
     124-
 mid.  surface     1.1520E-03  1.6928E-03 -5.0958E-03  4.3354E-04  2.0776E-04 -1.1636E-04
     125-
 mid.  surface     1.0577E-03  5.8810E-04 -3.5120E-03  6.8499E-04  1.0665E-03 -5.4421E-04
     148-
 mid.  surface     3.7133E-04  1.6134E-03 -3.0204E-03 -1.7244E-04 -2.3234E-04  7.1063E-05
     164-
 mid.  surface     1.2685E-03  1.6150E-03 -4.7042E-03 -3.7516E-04 -3.5249E-04 -4.5743E-04



 n o d a l  s t r e s s  c a l c u l a t i o n s   f o r   t i m e  s t e p      251   ( at time 2.79933E+00 )

 node (global)
          stress       sig-xx      sig-yy      sig-zz      sig-xy      sig-yz      sig-zx       plastic
                                                                                                 strain 
       1-
 mid.  surface     9.2232E+07  1.1152E+08 -2.0125E+08  3.7692E+07 -1.4414E+07 -1.4800E+07  9.2633E-03
       2-
 mid.  surface    -4.1997E+08 -3.2804E+08 -6.3375E+08  2.6862E+07 -9.7780E+06  1.2002E+07  1.1770E-02
       8-
 mid.  surface     1.0795E+08  1.3159E+08 -1.4146E+08 -1.1940E+07 -4.8275E+06 -1.4261E+06  2.7297E-04
       9-
 mid.  surface     4.6341E+06 -2.5733E+06 -2.8687E+08 -2.2884E+07  6.5301E+06  4.1510E+06  2.3852E-02
      10-
 mid.  surface     5.6657E+06  2.2273E+06 -2.6023E+08 -3.2644E+06 -1.2602E+07  1.4212E+07  2.2118E-02
      11-
 mid.  surface     1.6798E+08  1.5956E+08 -1.2241E+08  5.8117E+06 -9.3203E+07 -1.8221E+07  1.3275E-02
      12-
 mid.  surface     1.6333E+08  1.7365E+08 -8.1612E+07 -3.2825E+06 -9.7072E+07 -4.2075E+07  1.3636E-02
      17-
 mid.  surface     1.4262E+08  1.2204E+08 -1.1715E+08  1.0374E+07 -5.0857E+07 -4.4030E+07  8.4587E-03
      18-
 mid.  surface     8.6141E+07  9.5376E+07 -1.4568E+08  1.1601E+07 -6.6737E+06 -1.5598E+07  5.7238E-03
      19-
 mid.  surface    -1.7297E+08 -1.3607E+08 -3.6434E+08 -1.2909E+07 -4.2896E+07 -3.4630E+07  1.4590E-02
      20-
 mid.  surface    -4.3795E+07 -7.1830E+07 -3.3169E+08  9.9018E+06  2.3046E+07  2.7550E+07  7.6290E-03
      21-
 mid.  surface    -3.3404E+08 -3.1968E+08 -5.5913E+08 -1.6401E+07  2.7557E+07  2.9809E+07  1.3282E-02
      22-
 mid.  surface    -1.8565E+07 -2.7949E+07 -3.0757E+08 -4.0414E+06  4.3110E+07 -4.0268E+06  1.3311E-02
      23-
 mid.  surface    -2.4721E+07 -3.8642E+07 -3.5816E+08  5.5279E+06  4.2824E+07 -3.4266E+05  1.1888E-02
      52-
 mid.  surface    -9.6352E+07 -9.7707E+07 -3.6661E+08 -2.9831E+06 -3.5896E+06 -1.5122E+07  2.1878E-02
      53-
 mid.  surface    -4.5649E+07 -2.8878E+07 -2.7716E+08  1.2240E+07 -1.8834E+07  7.5262E+04  4.8777E-03
     124-
 mid.  surface    -5.4427E+08 -4.8017E+08 -7.7029E+08  2.1440E+07  4.2708E+07 -3.3783E+07  1.2892E-02
     125-
 mid.  surface    -5.2713E+07 -6.6250E+07 -3.4074E+08  3.5052E+07  9.5907E+07 -5.9902E+07  1.1071E-02
     148-
 mid.  surface    -1.0809E+07  2.6066E+07 -2.4876E+08 -9.0911E+06 -3.5761E+07  4.2323E+06  1.7263E-04
     164-
 mid.  surface    -7.3687E+07 -7.4677E+07 -3.5755E+08 -1.9888E+07 -2.1918E+07 -1.6515E+07  2.4070E-02



 n o d a l  s t r a i n  c a l c u l a t i o n s   f o r   t i m e  s t e p      251   ( at time 2.79933E+00 )

 node (global)
          strain       eps-xx      eps-yy      eps-zz      eps-xy      eps-yz      eps-zx       
       1-
 mid.  surface     5.3033E-03  6.7714E-03 -1.2089E-02  3.4557E-03 -1.0180E-03 -1.7297E-03
       2-
 mid.  surface     5.5142E-03  1.1580E-02 -2.3719E-02  2.0497E-03 -2.0402E-04 -4.7353E-04
       8-
 mid.  surface     5.8632E-03  8.6090E-03 -1.4057E-02 -1.0584E-03 -4.0520E-04 -1.9498E-05
       9-
 mid.  surface     9.1223E-03  8.8678E-03 -1.9429E-02 -2.0239E-03  8.9920E-05  3.1958E-04
      10-
 mid.  surface     8.7559E-03  8.9291E-03 -1.8969E-02 -1.3533E-04 -1.1722E-03  1.2201E-03
      11-
 mid.  surface     8.6235E-03  8.0953E-03 -1.5819E-02  7.3487E-04 -7.2203E-03 -1.2106E-03
      12-
 mid.  surface     6.1167E-03  7.2510E-03 -1.2213E-02  1.1553E-04 -7.4289E-03 -3.4922E-03
      17-
 mid.  surface     8.8340E-03  6.8898E-03 -1.5086E-02  1.0560E-03 -3.9302E-03 -3.6614E-03
      18-
 mid.  surface     6.5698E-03  7.9191E-03 -1.4370E-02  1.2229E-03 -6.8172E-04 -1.2462E-03
      19-
 mid.  surface     6.9979E-03  9.3123E-03 -1.9590E-02 -1.0841E-03 -2.8020E-03 -3.5479E-03
      20-
 mid.  surface     8.1537E-03  5.5499E-03 -1.5884E-02  9.7798E-04  1.7908E-03  2.3751E-03
      21-
 mid.  surface     6.8784E-03  7.7065E-03 -2.0420E-02 -1.4226E-03  1.3333E-03  2.0688E-03
      22-
 mid.  surface     5.8643E-03  5.6728E-03 -1.3264E-02 -2.3132E-05  2.9323E-03 -1.9894E-04
      23-
 mid.  surface     7.9506E-03  6.8917E-03 -1.6911E-02  6.2946E-04  3.8932E-03 -2.9108E-04
      52-
 mid.  surface     7.9328E-03  8.2214E-03 -1.8897E-02 -1.0123E-04 -8.4034E-04 -1.8525E-03
      53-
 mid.  surface     5.3035E-03  7.2190E-03 -1.4234E-02  1.3228E-03 -2.1642E-03 -1.9770E-04
     124-
 mid.  surface     5.4867E-03  9.9333E-03 -2.4003E-02  1.6145E-03  2.0447E-03 -2.5233E-03
     125-
 mid.  surface     5.3114E-03  4.6244E-03 -1.2138E-02  3.2272E-03  6.6098E-03 -3.9912E-03
     148-
 mid.  surface     4.4211E-03  8.2250E-03 -1.3800E-02 -8.2305E-04 -2.7774E-03  2.8780E-04
     164-
 mid.  surface     8.2715E-03  8.4424E-03 -1.9202E-02 -1.8044E-03 -2.0691E-03 -1.8217E-03



 n o d a l  s t r e s s  c a l c u l a t i o n s   f o r   t i m e  s t e p      341   ( at time 4.26365E+00 )

 node (global)
          stress       sig-xx      sig-yy      sig-zz      sig-xy      sig-yz      sig-zx       plastic
                                                                                                 strain 
       1-
 mid.  surface    -8.8846E+07  1.1393E+07 -3.9775E+08  5.0607E+07 -2.0654E+07  2.1131E+08  1.3583E-02
       2-
 mid.  surface    -9.9581E+08 -9.0028E+08 -1.3169E+09  3.7880E+07 -3.8579E+07  2.2219E+08  1.9754E-02
       8-
 mid.  surface     9.5640E+07  1.2720E+08 -1.1851E+08 -1.8538E+07 -5.2434E+06 -1.5998E+06  1.1018E-02
       9-
 mid.  surface    -1.3044E+08 -1.4497E+08 -3.8513E+08 -1.4367E+07 -4.1117E+06  2.5483E+06  3.7896E-02
      10-
 mid.  surface    -1.6238E+08 -2.0666E+08 -3.5117E+08  8.6068E+06 -6.7906E+07  4.2923E+06  4.0222E-02
      11-
 mid.  surface     3.5553E+08  3.3401E+08  6.6176E+07  3.2000E+07 -1.6175E+08 -4.9368E+07  2.4606E-02
      12-
 mid.  surface     4.0225E+08  4.4131E+08  3.1809E+08  6.4253E+06 -1.9788E+08 -1.9786E+06  3.3627E-02
      17-
 mid.  surface     3.4575E+08  3.4744E+08  1.0581E+08  3.3694E+07 -1.6925E+08 -7.9901E+07  2.1224E-02
      18-
 mid.  surface     5.1754E+07  7.0586E+07 -9.0439E+07  7.6087E+05 -6.8215E+07 -2.3851E+07  2.1654E-02
      19-
 mid.  surface    -2.7671E+08 -2.5399E+08 -3.7021E+08  7.8364E+06 -1.9462E+08 -1.4548E+07  3.7294E-02
      20-
 mid.  surface     3.3249E+07  3.3072E+07 -3.0028E+08  3.3341E+07  8.2351E+07  5.5188E+07  1.5437E-02
      21-
 mid.  surface    -5.6144E+08 -5.9120E+08 -7.1751E+08 -1.4819E+06  1.0294E+08  2.7758E+07  3.3727E-02
      22-
 mid.  surface     6.0819E+07  6.0067E+07 -9.5480E+07  3.6688E+06  1.2775E+08  1.5332E+07  3.0499E-02
      23-
 mid.  surface    -2.9042E+07 -4.5002E+07 -3.9422E+08  3.0639E+07  1.1347E+08  5.7756E+07  2.0261E-02
      52-
 mid.  surface    -3.5032E+08 -3.8932E+08 -5.7284E+08  1.0960E+06  6.3311E+07  9.6374E+06  3.8737E-02
      53-
 mid.  surface    -1.5495E+08 -1.2941E+08 -3.2037E+08 -6.4193E+06  5.2683E+07  2.1060E+07  1.9899E-02
     124-
 mid.  surface    -1.1581E+09 -1.1331E+09 -1.3941E+09  1.2912E+07  2.2605E+08 -2.7625E+08  2.4894E-02
     125-
 mid.  surface    -2.1969E+08 -1.9655E+08 -4.4494E+08  3.4319E+07  2.8776E+08 -2.5357E+08  1.8901E-02
     148-
 mid.  surface    -6.9509E+07 -4.0736E+07 -2.8584E+08 -1.6507E+07 -8.5335E+06  6.4326E+06  1.0637E-02
     164-
 mid.  surface    -2.5945E+08 -2.7885E+08 -5.1897E+08 -1.3761E+07 -6.6110E+06 -1.4088E+07  3.7785E-02



 n o d a l  s t r a i n  c a l c u l a t i o n s   f o r   t i m e  s t e p      341   ( at time 4.26365E+00 )

 node (global)
          strain       eps-xx      eps-yy      eps-zz      eps-xy      eps-yz      eps-zx       
       1-
 mid.  surface     6.3506E-03  1.3700E-02 -2.2039E-02  5.7416E-03 -1.9762E-03  7.8520E-03
       2-
 mid.  surface     6.6551E-03  1.7203E-02 -3.8805E-02  2.8787E-03 -2.3058E-04  9.4780E-03
       8-
 mid.  surface     9.3057E-03  1.3858E-02 -2.2755E-02 -2.0275E-03 -3.8234E-04 -5.2920E-05
       9-
 mid.  surface     1.4819E-02  1.3708E-02 -3.1850E-02 -2.6251E-03 -2.4409E-04  3.3261E-04
      10-
 mid.  surface     1.5041E-02  1.1633E-02 -3.0264E-02  6.7029E-04 -5.6962E-03  1.0356E-03
      11-
 mid.  surface     1.5965E-02  1.4302E-02 -2.6902E-02  3.2082E-03 -1.7555E-02 -5.1151E-03
      12-
 mid.  surface     1.0702E-02  1.3726E-02 -1.9097E-02  1.5508E-03 -1.7539E-02 -8.7806E-03
      17-
 mid.  surface     1.5055E-02  1.3735E-02 -2.5263E-02  3.2094E-03 -1.4017E-02 -8.6741E-03
      18-
 mid.  surface     1.0425E-02  1.2486E-02 -2.2878E-02  1.2414E-03 -4.2409E-03 -2.1447E-03
      19-
 mid.  surface     1.1739E-02  1.4195E-02 -3.0414E-02 -3.3921E-05 -1.0702E-02 -8.2857E-03
      20-
 mid.  surface     1.4211E-02  1.2191E-02 -2.7677E-02  2.8610E-03  9.8910E-03  6.7543E-03
      21-
 mid.  surface     1.2700E-02  1.1147E-02 -3.2970E-02 -9.8642E-04  6.9772E-03  7.4127E-03
      22-
 mid.  surface     1.1102E-02  1.1147E-02 -2.2327E-02  1.3098E-03  8.2602E-03  3.8016E-03
      23-
 mid.  surface     1.4760E-02  1.3014E-02 -3.0192E-02  2.6742E-03  1.2969E-02  3.8338E-03
      52-
 mid.  surface     1.3786E-02  1.0702E-02 -3.0839E-02  9.2055E-06  1.6148E-03 -2.3677E-03
      53-
 mid.  surface     8.6855E-03  1.1501E-02 -2.3141E-02  6.8903E-04  5.2370E-04  5.3695E-04
     124-
 mid.  surface     7.4722E-03  1.3611E-02 -3.8592E-02  1.4249E-03  7.4107E-03 -1.4641E-02
     125-
 mid.  surface     7.4378E-03  9.1725E-03 -2.0687E-02  4.8840E-03  1.4790E-02 -1.6173E-02
     148-
 mid.  surface     7.7429E-03  1.2725E-02 -2.2413E-02 -1.6727E-03 -3.5084E-03  6.0476E-04
     164-
 mid.  surface     1.3851E-02  1.2521E-02 -3.1556E-02 -2.3884E-03 -3.1177E-03 -2.7718E-03



 n o d a l  s t r e s s  c a l c u l a t i o n s   f o r   t i m e  s t e p      353   ( at time 6.16070E+00 )

 node (global)
          stress       sig-xx      sig-yy      sig-zz      sig-xy      sig-yz      sig-zx       plastic
                                                                                                 strain 
       1-
 mid.  surface    -3.8788E+07  1.6295E+07 -3.1919E+08  1.1998E+07 -1.5909E+07  1.0074E+08  2.6501E-02
       2-
 mid.  surface    -1.3547E+09 -1.2919E+09 -1.6381E+09  2.0810E+07 -2.0872E+07  1.0349E+08  3.5374E-02
       8-
 mid.  surface     1.7730E+08  1.8494E+08 -5.8338E+07 -1.8106E+07 -3.9964E+07  3.1427E+06  2.6871E-02
       9-
 mid.  surface    -1.7071E+08 -1.9576E+08 -4.3680E+08 -1.3094E+07 -3.9222E+07  5.7005E+06  5.6141E-02
      10-
 mid.  surface    -1.1805E+08 -1.4266E+08 -3.8056E+08  9.3932E+06 -7.7714E+07 -3.4946E+06  5.7647E-02
      11-
 mid.  surface     4.4339E+08  4.2659E+08  1.5275E+08  4.0382E+06 -1.1427E+08 -3.0528E+07  3.8468E-02
      12-
 mid.  surface     6.4657E+08  6.6386E+08  4.2343E+08 -2.5149E+06 -1.1590E+08 -1.2440E+07  4.9149E-02
      17-
 mid.  surface     4.2117E+08  4.3412E+08  1.7427E+08  8.6326E+06 -1.2461E+08 -4.7594E+07  3.7004E-02
      18-
 mid.  surface     1.6617E+08  1.7508E+08 -6.0689E+07  3.0917E+06 -7.6660E+07 -1.7085E+07  3.8450E-02
      19-
 mid.  surface    -3.5516E+08 -3.1895E+08 -5.6653E+08  1.1950E+07 -1.1517E+08 -2.7011E+07  5.5671E-02
      20-
 mid.  surface     4.3509E+07  4.8171E+07 -2.5850E+08  1.4132E+07  6.9209E+07  3.3916E+07  2.9414E-02
      21-
 mid.  surface    -7.2924E+08 -7.3667E+08 -9.8065E+08  8.4507E+06  6.8313E+07  7.4170E+06  5.1680E-02
      22-
 mid.  surface     2.2204E+08  2.1180E+08 -3.5819E+07 -1.9588E+06  8.5462E+07  1.2388E+07  4.6037E-02
      23-
 mid.  surface    -2.2647E+07 -3.5449E+07 -3.4855E+08  7.3312E+06  9.8452E+07  2.9965E+07  3.3775E-02
      52-
 mid.  surface    -4.5030E+08 -4.7021E+08 -7.3534E+08  2.1808E+06  5.7688E+07 -8.1853E+05  5.5319E-02
      53-
 mid.  surface    -1.6551E+08 -1.4914E+08 -4.0858E+08 -5.8352E+06  4.8036E+07  1.1451E+07  3.5804E-02
     124-
 mid.  surface    -1.6012E+09 -1.5905E+09 -1.8555E+09  2.6883E+06  1.1329E+08 -1.2917E+08  4.2196E-02
     125-
 mid.  surface    -2.4596E+08 -2.4987E+08 -4.9640E+08  5.9771E+05  1.4152E+08 -1.1906E+08  3.3528E-02
     148-
 mid.  surface    -1.0044E+08 -8.3026E+07 -3.3206E+08 -1.2965E+07  2.2670E+07  8.9647E+06  2.6287E-02
     164-
 mid.  surface    -4.0375E+08 -4.2375E+08 -6.7607E+08 -6.4776E+06  2.3721E+07 -7.1367E+06  5.5618E-02



 n o d a l  s t r a i n  c a l c u l a t i o n s   f o r   t i m e  s t e p      353   ( at time 6.16070E+00 )

 node (global)
          strain       eps-xx      eps-yy      eps-zz      eps-xy      eps-yz      eps-zx       
       1-
 mid.  surface     1.1498E-02  2.2486E-02 -3.5304E-02  6.4721E-03 -2.4316E-03  1.1531E-02
       2-
 mid.  surface     1.1234E-02  2.5417E-02 -5.6637E-02  3.5767E-03  2.2276E-04  1.3612E-02
       8-
 mid.  surface     1.6088E-02  2.1465E-02 -3.6258E-02 -3.2815E-03 -3.0869E-03  1.9849E-04
       9-
 mid.  surface     2.3339E-02  2.0451E-02 -4.7887E-02 -3.4689E-03 -3.4775E-03  5.7034E-04
      10-
 mid.  surface     2.3543E-02  1.8649E-02 -4.5497E-02  1.5508E-03 -1.1154E-02  7.2660E-04
      11-
 mid.  surface     2.3684E-02  2.0947E-02 -4.0081E-02  3.5969E-03 -2.4759E-02 -6.9042E-03
      12-
 mid.  surface     1.7489E-02  2.1579E-02 -3.1064E-02  1.8940E-03 -2.3987E-02 -1.0879E-02
      17-
 mid.  surface     2.1983E-02  2.1868E-02 -3.9319E-02  3.7080E-03 -2.0890E-02 -1.1225E-02
      18-
 mid.  surface     1.7544E-02  2.0813E-02 -3.7214E-02  1.7120E-03 -8.9246E-03 -3.0731E-03
      19-
 mid.  surface     1.7894E-02  2.2446E-02 -4.6481E-02  7.8339E-04 -1.5686E-02 -1.0655E-02
      20-
 mid.  surface     2.1611E-02  1.9831E-02 -4.2514E-02  3.5269E-03  1.5210E-02  9.0840E-03
      21-
 mid.  surface     2.0109E-02  1.8046E-02 -5.0138E-02 -4.8050E-04  1.0146E-02  8.7446E-03
      22-
 mid.  surface     1.8792E-02  1.8361E-02 -3.5588E-02  1.6063E-03  1.1142E-02  5.0404E-03
      23-
 mid.  surface     2.2533E-02  1.9607E-02 -4.4379E-02  2.9138E-03  1.9015E-02  5.3402E-03
      52-
 mid.  surface     2.1629E-02  1.7025E-02 -4.6723E-02  1.2044E-04  4.6305E-03 -2.9264E-03
      53-
 mid.  surface     1.5052E-02  1.9183E-02 -3.7824E-02  3.5311E-04  3.8359E-03  1.1255E-03
     124-
 mid.  surface     1.2874E-02  2.0187E-02 -5.7111E-02  9.7512E-04  1.2201E-02 -2.0750E-02
     125-
 mid.  surface     1.3583E-02  1.5752E-02 -3.4108E-02  4.8776E-03  2.0770E-02 -2.2392E-02
     148-
 mid.  surface     1.3723E-02  1.9837E-02 -3.6129E-02 -2.5938E-03 -2.3155E-03  1.1292E-03
     164-
 mid.  surface     2.1867E-02  1.8722E-02 -4.7981E-02 -2.8588E-03 -2.5502E-03 -3.7204E-03



 n o d a l  s t r e s s  c a l c u l a t i o n s   f o r   t i m e  s t e p      361   ( at time 8.00418E+00 )

 node (global)
          stress       sig-xx      sig-yy      sig-zz      sig-xy      sig-yz      sig-zx       plastic
                                                                                                 strain 
       1-
 mid.  surface     2.3659E+07  6.1522E+07 -2.5190E+08  2.5945E+06 -1.1884E+07  8.2614E+07  4.0031E-02
       2-
 mid.  surface    -1.5500E+09 -1.5235E+09 -1.8470E+09  3.7494E+06 -1.2086E+07  8.6281E+07  4.7805E-02
       8-
 mid.  surface     2.2002E+08  2.5200E+08 -5.1876E+06 -1.5945E+05 -2.4369E+07 -9.1576E+06  4.4480E-02
       9-
 mid.  surface    -2.3390E+08 -2.2395E+08 -4.9361E+08 -8.8940E+06 -7.6823E+06 -8.3822E+06  7.5838E-02
      10-
 mid.  surface    -2.3317E+07 -5.0675E+07 -3.0838E+08  2.0248E+07 -8.5175E+07 -2.7751E+07  7.2598E-02
      11-
 mid.  surface     3.1543E+08  3.1755E+08  3.2270E+07 -1.7336E+07 -9.5180E+07 -2.7839E+07  5.0380E-02
      12-
 mid.  surface     7.5005E+08  7.4914E+08  4.9547E+08 -4.0334E+06 -7.4227E+07  5.8518E+05  6.5710E-02
      17-
 mid.  surface     3.5630E+08  4.0863E+08  1.0115E+08 -8.4741E+06 -1.1927E+08 -4.3662E+07  4.9520E-02
      18-
 mid.  surface     2.5839E+08  2.5571E+08 -5.8467E+06  1.4278E+07 -7.6783E+07 -2.2398E+07  5.3298E-02
      19-
 mid.  surface    -4.2872E+08 -3.9951E+08 -6.7526E+08  1.7247E+07 -9.2766E+07 -4.1378E+07  7.2569E-02
      20-
 mid.  surface     1.2572E+08  1.1590E+08 -1.8851E+08  1.8365E+07  7.3344E+07  3.1993E+07  4.2885E-02
      21-
 mid.  surface    -7.4952E+08 -7.6454E+08 -1.0366E+09  3.4015E+07  5.1987E+07 -1.3202E+07  6.8809E-02
      22-
 mid.  surface     4.0256E+08  3.7765E+08  1.2628E+08  1.4311E+07  7.4175E+07  2.8168E+07  6.4013E-02
      23-
 mid.  surface     4.2400E+07  2.8517E+07 -2.6841E+08  2.2431E+06  9.5678E+07  3.8344E+07  4.7829E-02
      52-
 mid.  surface    -5.6384E+08 -5.9183E+08 -8.7215E+08 -8.7060E+06  5.1354E+07  5.1179E+06  6.9323E-02
      53-
 mid.  surface    -2.4330E+08 -2.6549E+08 -5.3811E+08 -7.6542E+06  5.4759E+07  2.4407E+07  4.9514E-02
     124-
 mid.  surface    -1.9390E+09 -1.9138E+09 -2.2099E+09 -1.3446E+07  6.9758E+07 -9.9787E+07  5.4735E-02
     125-
 mid.  surface    -3.5439E+08 -3.3381E+08 -6.1437E+08 -1.7505E+07  8.2326E+07 -9.4041E+07  4.6382E-02
     148-
 mid.  surface    -1.6236E+08 -1.4477E+08 -4.0346E+08 -3.5656E+06  3.4713E+06  1.1468E+07  4.2757E-02
     164-
 mid.  surface    -6.3923E+08 -6.3414E+08 -9.0009E+08 -1.6181E+07  2.3015E+07  1.3164E+06  7.4867E-02



 n o d a l  s t r a i n  c a l c u l a t i o n s   f o r   t i m e  s t e p      361   ( at time 8.00418E+00 )

 node (global)
          strain       eps-xx      eps-yy      eps-zz      eps-xy      eps-yz      eps-zx       
       1-
 mid.  surface     1.7069E-02  3.0544E-02 -4.8110E-02  6.8423E-03 -2.7282E-03  1.4864E-02
       2-
 mid.  surface     1.6086E-02  3.1303E-02 -7.0366E-02  3.2783E-03  8.4783E-04  1.7852E-02
       8-
 mid.  surface     2.2347E-02  3.0969E-02 -5.1432E-02 -2.9703E-03 -4.0331E-03 -7.3048E-04
       9-
 mid.  surface     3.1078E-02  2.9974E-02 -6.6053E-02 -4.0393E-03 -3.9432E-03 -4.8807E-04
      10-
 mid.  surface     3.1640E-02  2.5076E-02 -5.8919E-02  3.5882E-03 -1.6118E-02 -1.4157E-03
      11-
 mid.  surface     2.8437E-02  2.6272E-02 -5.1990E-02  1.9746E-03 -3.0386E-02 -8.3184E-03
      12-
 mid.  surface     2.5499E-02  2.8999E-02 -4.5375E-02  2.0366E-03 -2.7380E-02 -1.1038E-02
      17-
 mid.  surface     2.5606E-02  3.0298E-02 -5.2236E-02  2.7071E-03 -2.7046E-02 -1.3230E-02
      18-
 mid.  surface     2.4976E-02  2.8255E-02 -5.1112E-02  3.5261E-03 -1.2292E-02 -4.6333E-03
      19-
 mid.  surface     2.4407E-02  3.0635E-02 -6.2545E-02  1.9998E-03 -1.9524E-02 -1.2893E-02
      20-
 mid.  surface     2.9409E-02  2.6575E-02 -5.6202E-02  4.5331E-03  2.0051E-02  1.1131E-02
      21-
 mid.  surface     2.8851E-02  2.5542E-02 -6.7064E-02  2.2088E-03  1.2407E-02  7.8483E-03
      22-
 mid.  surface     2.8659E-02  2.6087E-02 -5.1011E-02  3.2034E-03  1.3824E-02  7.0056E-03
      23-
 mid.  surface     3.0154E-02  2.5799E-02 -5.7394E-02  2.6970E-03  2.3771E-02  7.1191E-03
      52-
 mid.  surface     2.8813E-02  2.1892E-02 -6.0677E-02 -6.7799E-04  6.8042E-03 -2.5230E-03
      53-
 mid.  surface     2.2437E-02  2.4270E-02 -5.1953E-02  4.0839E-05  7.6667E-03  2.7180E-03
     124-
 mid.  surface     1.6150E-02  2.6270E-02 -7.1395E-02 -3.5915E-04  1.5191E-02 -2.5744E-02
     125-
 mid.  surface     1.7850E-02  2.2788E-02 -4.6981E-02  3.7771E-03  2.3649E-02 -2.7878E-02
     148-
 mid.  surface     1.9890E-02  2.7514E-02 -5.1041E-02 -2.7427E-03 -3.3074E-03  1.9942E-03
     164-
 mid.  surface     2.8751E-02  2.6628E-02 -6.6127E-02 -4.2886E-03 -2.0336E-03 -3.6573E-03



 n o d a l  s t r e s s  c a l c u l a t i o n s   f o r   t i m e  s t e p      370   ( at time 9.84765E+00 )

 node (global)
          stress       sig-xx      sig-yy      sig-zz      sig-xy      sig-yz      sig-zx       plastic
                                                                                                 strain 
       1-
 mid.  surface    -2.4244E+09 -2.3911E+09 -1.3676E+09 -6.4564E+06  9.3100E+07  2.5111E+07 -1.2478E-02
       2-
 mid.  surface    -4.4082E+09 -4.4220E+09 -3.3718E+09 -2.2752E+07  1.1225E+08  1.0027E+08 -2.0001E-03
       8-
 mid.  surface     1.9106E+08  2.0837E+08 -2.3790E+07  1.9041E+05 -3.8267E+07 -5.8200E+06  6.3006E-02
       9-
 mid.  surface    -2.6397E+08 -2.5514E+08 -5.0457E+08  2.3009E+06 -3.9954E+07 -9.0895E+06  9.4609E-02
      10-
 mid.  surface    -1.2445E+07 -3.8616E+07 -3.2989E+08 -8.2073E+06 -8.8806E+07 -1.4610E+07  8.6216E-02
      11-
 mid.  surface     1.7984E+08  1.5995E+08 -1.2596E+08 -1.9117E+07 -5.7992E+07  9.9136E+06  6.4992E-02
      12-
 mid.  surface    -4.6277E+08 -4.2474E+08 -5.1761E+07 -4.8174E+05 -1.2992E+07 -2.8730E+07  4.6973E-02
      17-
 mid.  surface     1.7525E+08  1.8451E+08 -8.6180E+07 -2.2658E+07 -1.1003E+08 -5.1780E+07  6.6512E-02
      18-
 mid.  surface     3.0345E+08  3.0982E+08  1.7943E+07 -5.9825E+06 -1.0606E+08 -2.4575E+07  6.6266E-02
      19-
 mid.  surface    -1.9707E+09 -1.9554E+09 -1.5738E+09 -1.6122E+07 -1.2420E+07 -2.7908E+07  5.6367E-02
      20-
 mid.  surface     3.6575E+08  3.7612E+08  7.8264E+07  4.1059E+07  3.9375E+07  1.0742E+07  6.1571E-02
      21-
 mid.  surface     5.4748E+08  5.5225E+08 -4.6671E+08  3.1696E+07 -2.1522E+07  7.4240E+06  1.2468E-01
      22-
 mid.  surface     2.0457E+09  2.0400E+09  1.0212E+09  2.4204E+07 -1.4913E+07  3.3464E+06  1.1692E-01
      23-
 mid.  surface     3.5427E+08  3.1321E+08  4.5154E+07  3.2657E+07  1.0768E+08  5.1175E+07  6.7434E-02
      52-
 mid.  surface    -5.1983E+08 -5.4585E+08 -8.5711E+08 -1.9593E+06  7.4137E+07  6.2205E+06  8.3589E-02
      53-
 mid.  surface    -1.8453E+08 -1.7730E+08 -4.8943E+08  3.8748E+06  4.8976E+07  1.1717E+07  6.2484E-02
     124-
 mid.  surface     7.1293E+08  7.1458E+08 -1.0305E+09  1.5007E+07 -6.9751E+07 -2.8793E+07  1.4693E-01
     125-
 mid.  surface     2.5797E+09  2.6001E+09  8.5924E+08  6.5458E+06 -8.0190E+07 -9.9305E+07  1.3633E-01
     148-
 mid.  surface    -3.0268E+08 -3.0822E+08 -5.3709E+08 -9.5796E+06  4.0385E+07  1.6737E+07  6.0837E-02
     164-
 mid.  surface    -8.0874E+08 -8.1525E+08 -1.0580E+09 -1.6853E+07  4.2083E+07  6.9020E+06  9.3636E-02



 n o d a l  s t r a i n  c a l c u l a t i o n s   f o r   t i m e  s t e p      370   ( at time 9.84765E+00 )

 node (global)
          strain       eps-xx      eps-yy      eps-zz      eps-xy      eps-yz      eps-zx       
       1-
 mid.  surface     2.9146E-02  3.9565E-02 -6.2138E-02  9.4913E-03 -4.6985E-03  1.3914E-02
       2-
 mid.  surface     2.8909E-02  3.7721E-02 -8.8591E-02  4.1526E-03  9.9908E-04  2.2861E-02
       8-
 mid.  surface     2.8778E-02  3.9425E-02 -6.6897E-02 -2.9375E-03 -5.1804E-03 -1.0084E-03
       9-
 mid.  surface     3.8128E-02  3.7881E-02 -8.1521E-02 -3.5358E-03 -6.6256E-03 -1.2936E-03
      10-
 mid.  surface     3.9248E-02  3.1297E-02 -7.2894E-02  2.7245E-03 -2.1138E-02 -1.7934E-03
      11-
 mid.  surface     3.5856E-02  3.1735E-02 -6.7176E-02  7.1995E-04 -3.3481E-02 -7.0834E-03
      12-
 mid.  surface     3.3891E-02  3.7936E-02 -5.8887E-02  4.1355E-03 -3.1559E-02 -1.3912E-02
      17-
 mid.  surface     3.2368E-02  3.6725E-02 -6.8431E-02  7.2961E-04 -3.2450E-02 -1.5456E-02
      18-
 mid.  surface     3.1014E-02  3.5764E-02 -6.4203E-02  2.9030E-03 -1.7348E-02 -5.4524E-03
      19-
 mid.  surface     3.3535E-02  3.7985E-02 -8.0335E-02  1.9663E-03 -2.1926E-02 -1.4143E-02
      20-
 mid.  surface     3.8890E-02  3.7239E-02 -7.2943E-02  7.8184E-03  2.2185E-02  1.1435E-02
      21-
 mid.  surface     3.4107E-02  3.4773E-02 -8.6109E-02  2.6785E-03  1.4826E-02  9.5644E-03
      22-
 mid.  surface     3.4939E-02  3.4849E-02 -6.5719E-02  3.5921E-03  1.5219E-02  6.9183E-03
      23-
 mid.  surface     4.2313E-02  3.4113E-02 -7.3801E-02  5.5854E-03  2.9054E-02  9.8377E-03
      52-
 mid.  surface     3.7292E-02  2.8373E-02 -7.5293E-02 -5.1209E-04  1.0221E-02 -2.9713E-03
      53-
 mid.  surface     2.8747E-02  3.2082E-02 -6.5287E-02  6.4033E-04  1.1175E-02  3.2337E-03
     124-
 mid.  surface     1.8240E-02  3.5184E-02 -9.0770E-02 -2.0957E-03  1.8593E-02 -2.5896E-02
     125-
 mid.  surface     1.9689E-02  3.1900E-02 -6.2010E-02  1.4198E-03  2.5729E-02 -3.4066E-02
     148-
 mid.  surface     2.6704E-02  3.3969E-02 -6.6522E-02 -3.5073E-03 -1.6983E-03  2.9442E-03
     164-
 mid.  surface     3.5877E-02  3.2731E-02 -8.1933E-02 -5.3608E-03 -1.6388E-03 -3.6422E-03



 n o d a l  s t r e s s  c a l c u l a t i o n s   f o r   t i m e  s t e p      378   ( at time 1.16911E+01 )

 node (global)
          stress       sig-xx      sig-yy      sig-zz      sig-xy      sig-yz      sig-zx       plastic
                                                                                                 strain 
       1-
 mid.  surface    -2.6691E+09 -2.7555E+09 -1.6398E+09  2.9307E+07  7.7395E+07  1.6422E+07 -6.2081E-02
       2-
 mid.  surface    -4.9117E+09 -4.9977E+09 -3.9035E+09  3.6030E+07  8.1643E+07  3.4615E+07 -5.1239E-02
       8-
 mid.  surface     1.3556E+08  1.2776E+08 -7.7279E+07 -4.8739E+06 -6.4459E+07  3.3317E+06  8.3191E-02
       9-
 mid.  surface    -2.4062E+08 -2.5048E+08 -4.7325E+08  1.2360E+07 -9.7536E+07 -7.7610E+06  1.1307E-01
      10-
 mid.  surface     1.4058E+07 -1.8785E+07 -3.2443E+08 -1.7152E+07 -1.0558E+08 -1.0463E+07  9.8649E-02
      11-
 mid.  surface     2.0567E+08  1.7857E+08 -8.9763E+07 -1.3410E+07 -5.8113E+07  4.0862E+06  8.2607E-02
      12-
 mid.  surface    -6.0320E+08 -6.0612E+08 -2.1398E+08  8.5989E+06  4.9370E+06 -1.7634E+07  2.8406E-02
      17-
 mid.  surface     7.2381E+07  5.7068E+07 -1.9384E+08 -1.6119E+07 -9.6098E+07 -3.6710E+07  8.6913E-02
      18-
 mid.  surface     2.8918E+08  2.8916E+08 -1.8132E+07 -2.4530E+07 -1.1761E+08 -1.6570E+07  7.9617E-02
      19-
 mid.  surface    -2.3528E+09 -2.3716E+09 -1.9662E+09  4.8956E+06 -1.3074E+07 -2.0797E+07  4.0009E-02
      20-
 mid.  surface     3.5359E+08  3.8665E+08  8.2939E+07  1.8158E+07  3.1422E+07  3.5081E+05  8.1626E-02
      21-
 mid.  surface     6.7505E+08  7.5959E+08 -3.3813E+08 -1.3035E+07 -1.9507E+07  1.1154E+07  1.7706E-01
      22-
 mid.  surface     2.3693E+09  2.4455E+09  1.3625E+09 -2.1199E+07 -5.7898E+05  1.5144E+07  1.6838E-01
      23-
 mid.  surface     3.9983E+08  3.8820E+08  1.0727E+08  1.5197E+07  8.7179E+07  3.0178E+07  8.6730E-02
      52-
 mid.  surface    -3.9272E+08 -4.1154E+08 -7.4314E+08  9.9369E+05  1.0260E+08  1.0675E+07  9.7731E-02
      53-
 mid.  surface    -1.0511E+08 -1.0294E+08 -4.2477E+08  5.0317E+06  8.3073E+07  1.1591E+07  7.7226E-02
     124-
 mid.  surface     8.5529E+08  9.7637E+08 -8.8012E+08 -5.6295E+07 -4.4118E+07 -1.7632E+07  2.3565E-01
     125-
 mid.  surface     3.1580E+09  3.2957E+09  1.4496E+09 -6.6630E+07 -5.0454E+07 -3.5046E+07  2.2498E-01
     148-
 mid.  surface    -4.2960E+08 -4.5699E+08 -6.6693E+08 -1.3991E+07  8.8691E+07  2.0430E+07  8.0932E-02
     164-
 mid.  surface    -8.7946E+08 -9.0133E+08 -1.1373E+09 -1.6156E+07  6.0156E+07  6.3455E+06  1.1184E-01



 n o d a l  s t r a i n  c a l c u l a t i o n s   f o r   t i m e  s t e p      378   ( at time 1.16911E+01 )

 node (global)
          strain       eps-xx      eps-yy      eps-zz      eps-xy      eps-yz      eps-zx       
       1-
 mid.  surface     3.6986E-02  4.8399E-02 -7.6795E-02  8.5742E-03 -4.9498E-03  1.5724E-02
       2-
 mid.  surface     3.6149E-02  4.6518E-02 -1.0614E-01  3.7378E-03  1.4585E-03  2.5242E-02
       8-
 mid.  surface     3.6308E-02  4.7611E-02 -8.3581E-02 -3.1187E-03 -7.3513E-03 -7.3776E-04
       9-
 mid.  surface     4.5413E-02  4.4290E-02 -9.5098E-02 -2.0061E-03 -1.2259E-02 -2.0173E-03
      10-
 mid.  surface     4.6976E-02  3.6691E-02 -8.5926E-02  1.4353E-03 -2.7312E-02 -1.7550E-03
      11-
 mid.  surface     4.5084E-02  3.9027E-02 -8.3496E-02  3.1140E-04 -3.5870E-02 -6.5464E-03
      12-
 mid.  surface     3.9362E-02  4.6799E-02 -7.2443E-02  3.3779E-03 -3.3419E-02 -1.4371E-02
      17-
 mid.  surface     4.1527E-02  4.4300E-02 -8.7020E-02 -3.7109E-04 -3.5762E-02 -1.6303E-02
      18-
 mid.  surface     3.7615E-02  4.3285E-02 -7.8757E-02  6.3749E-04 -2.3109E-02 -5.3376E-03
      19-
 mid.  surface     3.9399E-02  4.6064E-02 -9.6930E-02  7.4472E-04 -2.4162E-02 -1.4188E-02
      20-
 mid.  surface     4.6808E-02  4.8073E-02 -9.1934E-02  8.5246E-03  2.4812E-02  1.1100E-02
      21-
 mid.  surface     4.0541E-02  4.4091E-02 -1.0332E-01  2.7007E-03  1.5543E-02  9.7765E-03
      22-
 mid.  surface     4.1744E-02  4.4124E-02 -8.0308E-02  3.4314E-03  1.6041E-02  6.9425E-03
      23-
 mid.  surface     5.1464E-02  4.2652E-02 -9.0878E-02  6.2827E-03  3.3321E-02  1.1345E-02
      52-
 mid.  surface     4.6037E-02  3.5452E-02 -8.9554E-02 -4.1271E-04  1.4435E-02 -3.3598E-03
      53-
 mid.  surface     3.6541E-02  4.0396E-02 -8.0559E-02  8.1198E-04  1.6978E-02  3.9160E-03
     124-
 mid.  surface     2.4291E-02  4.3385E-02 -1.0950E-01 -3.2655E-03  2.2435E-02 -2.8433E-02
     125-
 mid.  surface     2.6512E-02  4.2424E-02 -7.7584E-02 -2.6178E-04  2.8199E-02 -3.6772E-02
     148-
 mid.  surface     3.5012E-02  4.0508E-02 -8.3465E-02 -4.4737E-03  3.0166E-03  3.7458E-03
     164-
 mid.  surface     4.3702E-02  3.7839E-02 -9.6207E-02 -6.2142E-03 -1.4128E-03 -4.0332E-03



 n o d a l  s t r e s s  c a l c u l a t i o n s   f o r   t i m e  s t e p      393   ( at time 1.35346E+01 )

 node (global)
          stress       sig-xx      sig-yy      sig-zz      sig-xy      sig-yz      sig-zx       plastic
                                                                                                 strain 
       1-
 mid.  surface    -2.2446E+09 -2.4488E+09 -1.6942E+09  9.9135E+06  5.6887E+07 -4.7749E+06 -8.6995E-02
       2-
 mid.  surface    -4.2450E+09 -4.4144E+09 -3.9108E+09  5.1101E+07  6.0018E+07  4.8038E+07 -6.5768E-02
       8-
 mid.  surface     8.7946E+06 -8.8324E+07 -2.7141E+08 -1.4217E+07 -1.4115E+08  1.6557E+07  1.0549E-01
       9-
 mid.  surface    -3.9105E+08 -4.8017E+08 -6.9592E+08 -4.3714E+06 -8.7642E+07  2.2106E+07  1.3134E-01
      10-
 mid.  surface     2.4158E+07 -1.4859E+07 -2.8998E+08 -1.8637E+07 -8.3690E+07 -4.8792E+05  1.1783E-01
      11-
 mid.  surface     3.4524E+08  2.9936E+08  6.0376E+07 -2.2363E+07 -9.6287E+07  8.0815E+05  1.0033E-01
      12-
 mid.  surface    -1.1793E+09 -1.1812E+09 -5.5360E+08 -1.0588E+07  8.7291E+06 -7.7233E+07 -6.3537E-03
      17-
 mid.  surface    -7.6910E+07 -1.1078E+08 -3.0527E+08 -2.4688E+07 -1.4819E+08 -1.9435E+07  1.1058E-01
      18-
 mid.  surface     1.5052E+08  1.2105E+08 -9.6476E+07 -1.4705E+07 -1.5026E+08 -5.5786E+06  1.0350E-01
      19-
 mid.  surface    -2.5904E+09 -2.5587E+09 -2.3609E+09  2.1952E+06 -2.9759E+07 -3.6873E+07  3.3756E-02
      20-
 mid.  surface     2.0671E+08  1.8667E+08 -1.0711E+08 -2.6944E+06  2.7506E+07  1.3206E+07  1.0049E-01
      21-
 mid.  surface     4.3408E+08  5.7489E+08 -3.2584E+08 -2.5413E+07  1.9950E+07 -7.7634E+06  2.1709E-01
      22-
 mid.  surface     1.8941E+09  2.0051E+09  1.5100E+09 -3.7908E+07  5.3891E+07 -4.0548E+07  1.8390E-01
      23-
 mid.  surface     5.0532E+08  4.7236E+08  1.7351E+08 -3.5867E+06  1.0321E+08  3.1051E+07  1.0352E-01
      52-
 mid.  surface    -2.7991E+08 -2.5255E+08 -5.8654E+08 -1.2593E+07  1.3855E+08  6.2292E+06  1.1938E-01
      53-
 mid.  surface    -8.2288E+06  2.7277E+07 -2.9270E+08 -1.8030E+07  5.6680E+07  1.0452E+07  9.8379E-02
     124-
 mid.  surface     1.6512E+09  1.9077E+09 -4.3700E+08 -5.6328E+07 -1.0090E+07  1.2689E+08  3.4886E-01
     125-
 mid.  surface     2.7938E+09  3.0107E+09  1.5579E+09 -8.3432E+07 -2.7728E+07 -5.9178E+06  2.9109E-01
     148-
 mid.  surface    -2.9800E+08 -2.9638E+08 -5.4506E+08 -1.1415E+07  6.2012E+07  2.1177E+07  1.0628E-01
     164-
 mid.  surface    -6.9665E+08 -6.9733E+08 -9.7669E+08  1.2415E+07  1.2792E+08  1.8993E+07  1.3455E-01



 n o d a l  s t r a i n  c a l c u l a t i o n s   f o r   t i m e  s t e p      393   ( at time 1.35346E+01 )

 node (global)
          strain       eps-xx      eps-yy      eps-zz      eps-xy      eps-yz      eps-zx       
       1-
 mid.  surface     4.8631E-02  5.6972E-02 -9.3755E-02  5.3779E-03 -5.0016E-03  2.0212E-02
       2-
 mid.  surface     4.6649E-02  5.5211E-02 -1.2325E-01  3.0979E-03  2.1174E-03  3.0871E-02
       8-
 mid.  surface     5.0089E-02  5.2588E-02 -1.0505E-01 -4.6971E-03 -1.6785E-02  1.2948E-03
       9-
 mid.  surface     5.7012E-02  4.6275E-02 -1.1176E-01 -3.0420E-03 -2.2624E-02 -7.9178E-05
      10-
 mid.  surface     5.7536E-02  4.3607E-02 -1.0340E-01  2.3997E-04 -3.3579E-02 -1.2053E-03
      11-
 mid.  surface     5.3991E-02  4.5969E-02 -9.7550E-02 -4.7345E-04 -3.9697E-02 -5.9652E-03
      12-
 mid.  surface     4.1522E-02  5.6187E-02 -8.3031E-02  1.8638E-03 -3.4215E-02 -1.3809E-02
      17-
 mid.  surface     5.0769E-02  5.1606E-02 -1.0589E-01 -2.2412E-03 -3.9703E-02 -1.5313E-02
      18-
 mid.  surface     4.7910E-02  5.1007E-02 -9.8883E-02 -4.8184E-04 -3.0369E-02 -4.5077E-03
      19-
 mid.  surface     4.1387E-02  5.6487E-02 -1.1312E-01 -7.2654E-04 -2.5389E-02 -1.3504E-02
      20-
 mid.  surface     5.6141E-02  5.4560E-02 -1.1059E-01  6.9785E-03  2.7218E-02  1.2468E-02
      21-
 mid.  surface     4.5992E-02  5.3028E-02 -1.1996E-01  1.8602E-03  1.7816E-02  7.1195E-03
      22-
 mid.  surface     4.7198E-02  5.3049E-02 -9.1547E-02  2.7306E-03  1.7892E-02  4.5921E-03
      23-
 mid.  surface     6.0601E-02  4.8935E-02 -1.0527E-01  4.7355E-03  3.5556E-02  1.3752E-02
      52-
 mid.  surface     5.5506E-02  4.6428E-02 -1.0832E-01 -1.5463E-03  2.0683E-02 -3.7234E-03
      53-
 mid.  surface     4.5270E-02  5.2962E-02 -1.0048E-01 -1.2946E-03  2.2452E-02  4.8051E-03
     124-
 mid.  surface     2.6795E-02  5.2369E-02 -1.2696E-01 -3.9073E-03  2.7156E-02 -3.2355E-02
     125-
 mid.  surface     3.0564E-02  5.2613E-02 -9.4930E-02 -1.9805E-03  3.0337E-02 -4.1580E-02
     148-
 mid.  surface     4.5887E-02  5.3202E-02 -1.0546E-01 -5.4990E-03  9.8485E-03  5.7937E-03
     164-
 mid.  surface     5.4371E-02  4.7884E-02 -1.1468E-01 -4.6428E-03  2.8502E-03 -3.2689E-03



 n o d a l  s t r e s s  c a l c u l a t i o n s   f o r   t i m e  s t e p      401   ( at time 1.53781E+01 )

 node (global)
          stress       sig-xx      sig-yy      sig-zz      sig-xy      sig-yz      sig-zx       plastic
                                                                                                 strain 
       1-
 mid.  surface    -4.7558E+09 -4.7990E+09 -3.0923E+09  1.4454E+07 -8.3060E+06  5.0067E+07 -1.6697E-01
       2-
 mid.  surface    -2.9502E+09 -3.1877E+09 -3.7155E+09 -5.3343E+07  7.9830E+07  3.7092E+07 -3.0172E-02
       8-
 mid.  surface    -9.3983E+07 -1.6336E+08 -3.9064E+08 -7.3578E+06 -1.2243E+08  1.4166E+07  1.2141E-01
       9-
 mid.  surface    -4.9830E+08 -5.6999E+08 -8.0455E+08  6.9729E+06 -1.0086E+08  1.5713E+07  1.4545E-01
      10-
 mid.  surface    -1.6424E+07 -4.8463E+07 -3.2953E+08 -1.2097E+07 -8.3856E+07 -6.8667E+06  1.3276E-01
      11-
 mid.  surface     2.5455E+08  2.4838E+08 -4.1574E+07 -1.0085E+07 -7.0679E+07  2.7066E+07  1.1559E-01
      12-
 mid.  surface    -2.3825E+09 -2.2558E+09 -1.2816E+09  7.0440E+06 -4.4170E+07 -1.8044E+07 -6.1930E-02
      17-
 mid.  surface    -2.4405E+08 -2.2650E+08 -4.9928E+08 -2.7165E+07 -1.1375E+08 -2.4412E+07  1.2702E-01
      18-
 mid.  surface     9.4219E+07  8.9091E+07 -1.7719E+08 -1.5380E+07 -1.2484E+08 -5.2745E+06  1.1906E-01
      19-
 mid.  surface    -1.1793E+09 -1.1340E+09 -1.9292E+09 -3.7856E+07 -4.1410E+07 -4.4706E+07  7.0799E-02
      20-
 mid.  surface     2.6305E+08  2.4414E+08 -5.6485E+07  1.7372E+07  1.4663E+07 -3.8736E+06  1.1654E-01
      21-
 mid.  surface     1.9129E+09  1.9415E+09  5.2979E+08  5.7309E+05  3.3878E+07 -3.5088E+07  2.8718E-01
      22-
 mid.  surface     1.4184E+09  1.5385E+09  1.5168E+09  3.3388E+07 -6.6993E+05 -1.3859E+07  1.7969E-01
      23-
 mid.  surface     6.9405E+08  6.3984E+08  3.5363E+08  1.9543E+07  8.3169E+07  3.8493E+07  1.2094E-01
      52-
 mid.  surface    -2.5165E+08 -2.4094E+08 -5.7131E+08 -9.7328E+06  1.0991E+08 -1.5143E+06  1.3512E-01
      53-
 mid.  surface     3.7485E+07  7.7169E+07 -2.6200E+08 -1.7129E+07  6.4113E+07  4.5694E+06  1.1309E-01
     124-
 mid.  surface     3.2995E+09  3.1474E+09  6.0694E+08 -3.4730E+07  1.0444E+08 -1.4678E+07  4.8831E-01
     125-
 mid.  surface     6.6524E+07  1.0574E+08  5.3865E+08  2.0787E+07  4.4056E+07 -9.8100E+06  2.7332E-01
     148-
 mid.  surface    -2.9674E+08 -2.9152E+08 -5.7560E+08 -9.9337E+06  7.8398E+07  1.9640E+07  1.2332E-01
     164-
 mid.  surface    -6.9926E+08 -7.0119E+08 -9.9951E+08  1.2096E+07  1.0210E+08  1.9640E+07  1.4976E-01



 n o d a l  s t r a i n  c a l c u l a t i o n s   f o r   t i m e  s t e p      401   ( at time 1.53781E+01 )

 node (global)
          strain       eps-xx      eps-yy      eps-zz      eps-xy      eps-yz      eps-zx       
       1-
 mid.  surface     6.4376E-02  6.7263E-02 -1.1330E-01  6.6518E-03 -8.4986E-03  2.0934E-02
       2-
 mid.  surface     6.4092E-02  6.1875E-02 -1.4553E-01  4.9061E-03  4.4455E-04  3.4774E-02
       8-
 mid.  surface     5.8508E-02  5.8914E-02 -1.2128E-01 -4.7685E-03 -2.0965E-02  2.2912E-03
       9-
 mid.  surface     6.4503E-02  4.9953E-02 -1.2451E-01 -2.2949E-03 -2.8982E-02  5.0019E-04
      10-
 mid.  surface     6.5000E-02  4.9428E-02 -1.1738E-01 -2.7384E-04 -3.7183E-02 -1.1674E-03
      11-
 mid.  surface     6.0422E-02  5.3218E-02 -1.1254E-01 -4.9428E-04 -4.1151E-02 -3.6157E-03
      12-
 mid.  surface     4.7122E-02  6.5819E-02 -9.4469E-02  2.6842E-03 -3.7795E-02 -1.4814E-02
      17-
 mid.  surface     5.6194E-02  5.9490E-02 -1.2161E-01 -3.8713E-03 -4.2269E-02 -1.4871E-02
      18-
 mid.  surface     5.4338E-02  5.8635E-02 -1.1387E-01 -1.3567E-03 -3.3787E-02 -3.8240E-03
      19-
 mid.  surface     4.7962E-02  6.4146E-02 -1.2696E-01 -9.0150E-04 -2.6297E-02 -1.3579E-02
      20-
 mid.  surface     6.4682E-02  6.2541E-02 -1.2648E-01  8.3730E-03  2.7601E-02  1.1887E-02
      21-
 mid.  surface     5.0524E-02  6.1195E-02 -1.3509E-01  2.1798E-03  2.0497E-02  6.1777E-03
      22-
 mid.  surface     5.2043E-02  6.1287E-02 -1.0391E-01  2.3294E-03  1.8597E-02  2.1395E-03
      23-
 mid.  surface     7.1451E-02  5.6195E-02 -1.2104E-01  6.2830E-03  3.7433E-02  1.5655E-02
      52-
 mid.  surface     6.3030E-02  5.3618E-02 -1.2297E-01 -2.2080E-03  2.2985E-02 -4.9880E-03
      53-
 mid.  surface     5.1423E-02  6.1950E-02 -1.1518E-01 -2.4890E-03  2.5628E-02  4.7830E-03
     124-
 mid.  surface     3.2371E-02  6.2316E-02 -1.5034E-01 -3.6072E-03  3.1216E-02 -3.6329E-02
     125-
 mid.  surface     3.6577E-02  6.2179E-02 -1.1553E-01 -4.4683E-03  3.4808E-02 -4.3989E-02
     148-
 mid.  surface     5.3384E-02  6.1741E-02 -1.2179E-01 -5.9862E-03  1.3655E-02  6.9052E-03
     164-
 mid.  surface     6.1347E-02  5.4223E-02 -1.2830E-01 -3.9020E-03  2.9723E-03 -2.5597E-03



 n o d a l  s t r e s s  c a l c u l a t i o n s   f o r   t i m e  s t e p      413   ( at time 1.72215E+01 )

 node (global)
          stress       sig-xx      sig-yy      sig-zz      sig-xy      sig-yz      sig-zx       plastic
                                                                                                 strain 
       1-
 mid.  surface    -4.9293E+09 -4.9388E+09 -3.8736E+09 -1.3026E+07 -2.1886E+07  1.6008E+08 -2.1066E-01
       2-
 mid.  surface    -7.4353E+08 -1.2913E+09 -2.1352E+09 -1.1426E+08  1.2044E+08  1.6831E+08  5.4293E-02
       8-
 mid.  surface    -1.7850E+08 -2.0600E+08 -3.8715E+08  9.6388E+06 -1.0976E+08  6.9083E+06  1.4620E-01
       9-
 mid.  surface    -6.9177E+08 -7.3112E+08 -9.3602E+08  5.7663E+06 -8.1198E+07  5.5741E+06  1.6922E-01
      10-
 mid.  surface    -1.1474E+08 -1.5357E+08 -4.1320E+08 -2.2986E+07 -1.0251E+08  6.3094E+06  1.5103E-01
      11-
 mid.  surface     1.6927E+08  1.6802E+08 -1.3286E+08  6.5333E+06 -1.1974E+08  4.3800E+07  1.3080E-01
      12-
 mid.  surface    -3.1578E+09 -2.8244E+09 -2.1439E+09  1.8586E+07 -1.3226E+08 -6.3093E+07 -1.2200E-01
      17-
 mid.  surface    -4.2308E+08 -4.3350E+08 -6.4761E+08 -5.2966E+07 -1.2063E+08 -4.3759E+07  1.4832E-01
      18-
 mid.  surface     6.3777E+07  4.6844E+07 -1.6686E+08 -1.4859E+07 -1.4900E+08  3.9977E+06  1.3690E-01
      19-
 mid.  surface    -1.2751E+09 -1.1861E+09 -1.7507E+09 -3.8005E+07 -6.8047E+07 -1.1732E+08  9.6903E-02
      20-
 mid.  surface     2.6706E+08  2.2452E+08 -7.5665E+06  4.1257E+05  5.4178E+07  3.0622E+06  1.3791E-01
      21-
 mid.  surface     1.2614E+09  1.3094E+09  5.5216E+08  7.4667E+06  7.5310E+07 -1.0067E+08  3.2569E-01
      22-
 mid.  surface     3.7301E+08  6.9709E+08  8.2206E+08  7.5137E+07 -1.4235E+07 -6.9068E+07  1.4816E-01
      23-
 mid.  surface     9.9895E+08  9.2284E+08  6.2923E+08  2.5805E+07  1.2626E+08  4.6223E+07  1.3870E-01
      52-
 mid.  surface    -1.4974E+08 -1.2050E+08 -5.0322E+08 -1.1166E+07  1.2807E+08 -1.6851E+06  1.5071E-01
      53-
 mid.  surface     2.5234E+08  3.0965E+08 -4.1731E+07 -6.1607E+06  6.4462E+07  2.5135E+07  1.2632E-01
     124-
 mid.  surface     4.4301E+09  3.9430E+09  2.0030E+09  2.1754E+07  1.7576E+08 -1.0448E+07  6.3501E-01
     125-
 mid.  surface    -5.4628E+08 -4.9339E+08 -4.5340E+08  8.9967E+07  1.0155E+08  2.4853E+07  2.9186E-01
     148-
 mid.  surface    -2.1280E+08 -1.7441E+08 -4.5641E+08 -7.0748E+06  7.8792E+07  2.5138E+07  1.4526E-01
     164-
 mid.  surface    -8.1782E+08 -7.8545E+08 -1.0868E+09 -5.3129E+06  1.1381E+08  1.2864E+07  1.7242E-01



 n o d a l  s t r a i n  c a l c u l a t i o n s   f o r   t i m e  s t e p      413   ( at time 1.72215E+01 )

 node (global)
          strain       eps-xx      eps-yy      eps-zz      eps-xy      eps-yz      eps-zx       
       1-
 mid.  surface     8.9638E-02  8.1371E-02 -1.4042E-01  7.7038E-03 -1.4884E-02  2.4269E-02
       2-
 mid.  surface     9.3308E-02  6.9385E-02 -1.7615E-01  9.5015E-03 -1.9986E-03  4.4918E-02
       8-
 mid.  surface     6.7941E-02  6.9484E-02 -1.4203E-01 -3.8002E-03 -2.5001E-02  2.2342E-03
       9-
 mid.  surface     7.4092E-02  5.7446E-02 -1.4413E-01 -1.9791E-03 -3.5939E-02  2.6639E-04
      10-
 mid.  surface     7.3288E-02  5.5241E-02 -1.3310E-01 -1.8233E-03 -4.1166E-02 -1.2513E-04
      11-
 mid.  surface     6.6536E-02  5.9864E-02 -1.2667E-01  3.5664E-04 -4.3897E-02  2.5693E-05
      12-
 mid.  surface     5.0058E-02  7.9444E-02 -1.0118E-01  6.2673E-03 -4.7161E-02 -1.7899E-02
      17-
 mid.  surface     6.2977E-02  6.7432E-02 -1.3896E-01 -6.7460E-03 -4.4686E-02 -1.4028E-02
      18-
 mid.  surface     6.0846E-02  6.5868E-02 -1.2804E-01 -2.2109E-03 -3.7532E-02 -2.5379E-03
      19-
 mid.  surface     5.2731E-02  7.5055E-02 -1.4294E-01  1.3946E-03 -2.8735E-02 -1.4437E-02
      20-
 mid.  surface     7.3913E-02  7.1326E-02 -1.4449E-01  9.0691E-03  2.9381E-02  1.2302E-02
      21-
 mid.  surface     5.3524E-02  7.1822E-02 -1.5412E-01  1.1340E-03  2.6545E-02  6.8377E-03
      22-
 mid.  surface     5.4334E-02  7.0063E-02 -1.1250E-01  1.6456E-03  2.1258E-02 -1.6304E-03
      23-
 mid.  surface     8.3310E-02  6.3395E-02 -1.3627E-01  7.8197E-03  4.0338E-02  1.7947E-02
      52-
 mid.  surface     7.1087E-02  6.2640E-02 -1.3892E-01 -2.9898E-03  2.5152E-02 -6.0837E-03
      53-
 mid.  surface     5.6957E-02  7.2326E-02 -1.2808E-01 -2.7622E-03  2.9159E-02  6.5903E-03
     124-
 mid.  surface     3.7095E-02  7.4115E-02 -1.8203E-01 -1.5562E-03  3.7720E-02 -4.7367E-02
     125-
 mid.  surface     4.2189E-02  7.2312E-02 -1.4374E-01 -5.7192E-03  4.5483E-02 -5.1412E-02
     148-
 mid.  surface     6.1605E-02  7.4498E-02 -1.4146E-01 -6.7980E-03  1.6734E-02  8.9801E-03
     164-
 mid.  surface     6.9534E-02  6.4386E-02 -1.4832E-01 -4.8594E-03  3.3382E-03 -2.1998E-03



 n o d a l  s t r e s s  c a l c u l a t i o n s   f o r   t i m e  s t e p      421   ( at time 1.90650E+01 )

 node (global)
          stress       sig-xx      sig-yy      sig-zz      sig-xy      sig-yz      sig-zx       plastic
                                                                                                 strain 
       1-
 mid.  surface    -3.2011E+09 -3.3315E+09 -3.7626E+09 -1.9171E+07 -8.6683E+06  6.6840E+07 -1.8396E-01
       2-
 mid.  surface    -3.7232E+09 -3.7593E+09 -3.3877E+09 -8.1333E+07  1.5828E+08  1.4494E+08  4.9662E-02
       8-
 mid.  surface    -1.8281E+08 -2.5426E+08 -4.8340E+08 -2.2785E+07 -1.1000E+08  2.5716E+07  1.5612E-01
       9-
 mid.  surface    -8.4892E+08 -9.4834E+08 -1.1520E+09  1.9635E+07 -1.1958E+08  1.9847E+07  1.8000E-01
      10-
 mid.  surface    -1.7803E+08 -1.6521E+08 -4.8403E+08 -2.7100E+06 -9.4792E+07  1.4976E+07  1.6656E-01
      11-
 mid.  surface     1.3089E+08  1.3468E+08 -1.6653E+08 -3.7674E+06 -5.8104E+07  3.2194E+07  1.4684E-01
      12-
 mid.  surface    -2.2633E+09 -2.1398E+09 -2.1422E+09  1.4205E+07 -9.9913E+07 -6.9911E+07 -1.2504E-01
      17-
 mid.  surface    -5.5402E+08 -5.9723E+08 -8.2611E+08 -3.4840E+07 -7.9883E+07 -3.0274E+07  1.6490E-01
      18-
 mid.  surface     1.7779E+07  4.6598E+07 -2.5193E+08 -1.3107E+07 -1.3428E+08  6.4381E+06  1.5266E-01
      19-
 mid.  surface    -2.7142E+09 -2.5706E+09 -2.4616E+09 -3.4180E+07 -4.7503E+07 -6.5362E+07  9.2483E-02
      20-
 mid.  surface     3.4181E+08  2.8758E+08  2.3894E+07  7.6698E+06  2.3432E+07 -1.0377E+07  1.5339E-01
      21-
 mid.  surface     5.4357E+08  6.0163E+08  4.9686E+08  6.2849E+06  3.0917E+07 -3.1133E+07  3.2698E-01
      22-
 mid.  surface     2.0905E+09  2.1483E+09  1.5882E+09  6.7192E+07 -4.6979E+07 -6.1715E+07  1.6584E-01
      23-
 mid.  surface     1.1109E+09  1.0795E+09  7.6874E+08  2.4132E+07  8.9092E+07  2.5701E+07  1.5549E-01
      52-
 mid.  surface    -1.5471E+08 -1.0469E+08 -4.8035E+08 -1.9992E+06  1.1292E+08 -8.9161E+05  1.6762E-01
      53-
 mid.  surface     2.8387E+08  3.4999E+08 -2.5290E+07 -3.9484E+06  6.6280E+07  5.3015E+06  1.4102E-01
     124-
 mid.  surface     3.0422E+09  2.8617E+09  2.1738E+09 -1.0250E+07  1.6828E+08  1.9803E+07  6.7342E-01
     125-
 mid.  surface     2.5385E+09  2.2931E+09  8.7039E+08  4.9262E+07  6.2668E+07 -1.5596E+07  3.6197E-01
     148-
 mid.  surface    -2.3828E+07 -1.9682E+07 -3.0988E+08 -2.4765E+07  1.0954E+08  6.0056E+06  1.5831E-01
     164-
 mid.  surface    -6.9773E+08 -7.2068E+08 -1.0140E+09  2.3578E+06  8.7979E+07 -5.9937E+06  1.8424E-01



 n o d a l  s t r a i n  c a l c u l a t i o n s   f o r   t i m e  s t e p      421   ( at time 1.90650E+01 )

 node (global)
          strain       eps-xx      eps-yy      eps-zz      eps-xy      eps-yz      eps-zx       
       1-
 mid.  surface     9.8397E-02  9.0033E-02 -1.5519E-01  1.0087E-02 -1.7211E-02  2.3751E-02
       2-
 mid.  surface     1.0507E-01  7.7128E-02 -1.9687E-01  1.0375E-02 -1.5679E-03  4.7216E-02
       8-
 mid.  surface     7.4237E-02  7.3822E-02 -1.5332E-01 -5.6029E-03 -2.8043E-02  4.9923E-03
       9-
 mid.  surface     8.0525E-02  5.6899E-02 -1.5297E-01 -3.6313E-04 -4.2010E-02  2.2310E-03
      10-
 mid.  surface     7.9554E-02  6.3333E-02 -1.4831E-01 -1.3484E-03 -4.3356E-02  1.5461E-03
      11-
 mid.  surface     7.3659E-02  6.8271E-02 -1.4283E-01  6.4998E-04 -4.3915E-02  2.0256E-03
      12-
 mid.  surface     5.5062E-02  8.8063E-02 -1.1191E-01  7.7056E-03 -5.1518E-02 -1.9975E-02
      17-
 mid.  surface     7.0169E-02  7.3698E-02 -1.5479E-01 -8.2258E-03 -4.5013E-02 -1.3900E-02
      18-
 mid.  surface     6.6325E-02  7.5649E-02 -1.4403E-01 -3.1126E-03 -4.0006E-02 -6.8294E-04
      19-
 mid.  surface     5.9815E-02  8.1356E-02 -1.5815E-01  2.9923E-04 -3.0023E-02 -1.5588E-02
      20-
 mid.  surface     8.2591E-02  7.8618E-02 -1.5977E-01  9.7976E-03  3.0072E-02  1.0799E-02
      21-
 mid.  surface     6.1088E-02  7.8825E-02 -1.7123E-01 -4.4106E-04  2.7293E-02  8.6526E-03
      22-
 mid.  surface     6.0508E-02  7.8537E-02 -1.2485E-01  2.4053E-03  1.9670E-02 -3.0229E-03
      23-
 mid.  surface     9.2689E-02  7.1998E-02 -1.5247E-01  9.6690E-03  4.2286E-02  1.8482E-02
      52-
 mid.  surface     7.8062E-02  7.1613E-02 -1.5495E-01 -2.9019E-03  2.7246E-02 -7.5686E-03
      53-
 mid.  surface     6.2632E-02  8.2595E-02 -1.4372E-01 -3.2332E-03  3.0612E-02  5.8121E-03
     124-
 mid.  surface     4.5905E-02  8.3839E-02 -2.0592E-01 -1.7811E-03  4.2496E-02 -5.1408E-02
     125-
 mid.  surface     4.8740E-02  8.1673E-02 -1.6100E-01 -5.0676E-03  5.2828E-02 -5.6011E-02
     148-
 mid.  surface     6.8304E-02  8.1492E-02 -1.5296E-01 -8.3802E-03  2.1686E-02  8.4663E-03
     164-
 mid.  surface     7.6553E-02  6.8178E-02 -1.5805E-01 -4.3053E-03 -1.2529E-03 -3.8797E-03



 n o d a l  s t r e s s  c a l c u l a t i o n s   f o r   t i m e  s t e p      436   ( at time 2.09085E+01 )

 node (global)
          stress       sig-xx      sig-yy      sig-zz      sig-xy      sig-yz      sig-zx       plastic
                                                                                                 strain 
       1-
 mid.  surface    -1.1890E+09 -1.5943E+09 -3.0057E+09 -1.0184E+08  2.3896E+08 -4.3320E+07 -5.9617E-02
       2-
 mid.  surface    -7.0769E+08 -8.6484E+08 -2.4422E+09 -4.0243E+06  2.1600E+08  8.2561E+06  1.8613E-01
       8-
 mid.  surface    -1.5025E+08 -3.4716E+08 -4.6989E+08 -6.4156E+07 -1.5560E+08  4.8436E+07  1.6598E-01
       9-
 mid.  surface    -5.6703E+08 -7.9040E+08 -9.1705E+08  5.6616E+07 -2.2641E+08  2.3071E+07  1.8341E-01
      10-
 mid.  surface    -1.7626E+08  4.0137E+07 -3.6126E+08  3.8205E+07 -7.5970E+07  6.9052E+05  1.9443E-01
      11-
 mid.  surface     1.1310E+08  1.6225E+08 -1.2360E+08 -7.8752E+07 -1.9427E+08  1.7027E+07  1.5617E-01
      12-
 mid.  surface    -5.4658E+08 -3.5446E+08 -1.3647E+09  1.1672E+08 -4.4328E+07 -2.5077E+08 -7.8074E-02
      17-
 mid.  surface    -9.8086E+08 -1.1356E+09 -1.2316E+09 -1.7479E+08 -1.9800E+08 -2.8424E+07  1.8065E-01
      18-
 mid.  surface    -4.7830E+07  9.7337E+07 -1.3423E+08  2.8848E+07 -1.3475E+08  1.2834E+07  1.8634E-01
      19-
 mid.  surface    -1.5440E+09 -1.3037E+09 -2.2830E+09  2.3247E+07 -6.8268E+07 -2.7336E+08  1.5524E-01
      20-
 mid.  surface     2.7020E+08 -4.7073E+07 -1.1740E+08 -7.4526E+07  4.5160E+07  6.6656E+07  1.7069E-01
      21-
 mid.  surface    -5.4812E+08 -4.3857E+08  1.7318E+07  8.4877E+07  7.6938E+06 -1.5465E+07  2.9757E-01
      22-
 mid.  surface     1.3057E+09  1.4442E+09  1.8142E+09  1.7863E+08  2.3416E+07 -4.2229E+06  1.2208E-01
      23-
 mid.  surface     1.7862E+09  1.7729E+09  1.3913E+09 -1.0297E+07  1.0417E+08  9.2774E+07  1.6183E-01
      52-
 mid.  surface    -4.3803E+08 -2.1643E+08 -6.6853E+08  4.1400E+06  1.7978E+08 -1.2608E+07  1.9586E-01
      53-
 mid.  surface     3.6825E+08  4.5151E+08  1.0126E+08  1.7284E+07  9.8439E+07 -1.9188E+05  1.6429E-01
     124-
 mid.  surface     4.2247E+07 -9.2920E+07  1.0530E+09 -1.0003E+08  3.8091E+07  2.6020E+08  6.2347E-01
     125-
 mid.  surface    -1.2732E+09 -1.6035E+09 -3.5256E+08 -1.6023E+08  8.8853E+07  2.5585E+08  3.0494E-01
     148-
 mid.  surface    -1.5206E+08 -3.4260E+08 -4.5456E+08 -6.7971E+07  1.7277E+08 -2.8706E+07  1.7432E-01
     164-
 mid.  surface    -3.9581E+08 -6.0284E+08 -8.4486E+08  1.6944E+07  1.1966E+08 -5.8137E+07  1.8495E-01



 n o d a l  s t r a i n  c a l c u l a t i o n s   f o r   t i m e  s t e p      436   ( at time 2.09085E+01 )

 node (global)
          strain       eps-xx      eps-yy      eps-zz      eps-xy      eps-yz      eps-zx       
       1-
 mid.  surface     1.2181E-01  1.0802E-01 -1.9053E-01  1.5033E-02 -2.4316E-02  3.0420E-02
       2-
 mid.  surface     1.4092E-01  8.2658E-02 -2.2669E-01  1.0852E-02 -3.2885E-03  6.2709E-02
       8-
 mid.  surface     8.2204E-02  7.5178E-02 -1.6256E-01 -1.0263E-02 -3.3968E-02  1.1131E-02
       9-
 mid.  surface     8.6487E-02  5.2099E-02 -1.5081E-01  3.8913E-03 -5.7600E-02  6.4549E-03
      10-
 mid.  surface     8.5999E-02  8.3853E-02 -1.7396E-01  1.8213E-03 -4.4280E-02  3.5733E-03
      11-
 mid.  surface     7.6288E-02  6.9272E-02 -1.4631E-01 -4.4595E-03 -4.7855E-02  2.7948E-03
      12-
 mid.  surface     5.8563E-02  1.0588E-01 -1.2164E-01  1.4856E-02 -6.0769E-02 -2.3400E-02
      17-
 mid.  surface     7.3797E-02  7.5242E-02 -1.6627E-01 -1.7079E-02 -4.9146E-02 -1.5384E-02
      18-
 mid.  surface     7.3523E-02  9.6277E-02 -1.7158E-01 -1.3816E-03 -4.2191E-02  8.8947E-04
      19-
 mid.  surface     6.9579E-02  9.5043E-02 -1.7897E-01  8.5236E-05 -3.5011E-02 -1.7292E-02
      20-
 mid.  surface     9.4524E-02  7.6656E-02 -1.7232E-01  6.4220E-03  3.4949E-02  1.7618E-02
      21-
 mid.  surface     7.1881E-02  9.1488E-02 -1.9686E-01  5.0083E-04  3.5640E-02  7.6002E-03
      22-
 mid.  surface     6.5808E-02  9.2001E-02 -1.3801E-01  1.1161E-02  2.7753E-02 -1.0424E-02
      23-
 mid.  surface     1.0146E-01  7.6826E-02 -1.5659E-01  8.5070E-03  3.7651E-02  2.3614E-02
      52-
 mid.  surface     8.4141E-02  8.8321E-02 -1.8107E-01 -3.4827E-03  3.5025E-02 -9.4872E-03
      53-
 mid.  surface     7.2867E-02  9.8313E-02 -1.6837E-01 -2.3798E-03  3.0950E-02  3.9775E-03
     124-
 mid.  surface     5.4618E-02  9.5056E-02 -2.3719E-01 -3.8255E-03  5.1904E-02 -6.6387E-02
     125-
 mid.  surface     5.1768E-02  9.8399E-02 -1.9839E-01 -4.7300E-03  6.1187E-02 -6.4013E-02
     148-
 mid.  surface     7.7825E-02  7.8374E-02 -1.6258E-01 -1.3813E-02  3.6513E-02  3.9743E-03
     164-
 mid.  surface     8.4234E-02  6.1831E-02 -1.5668E-01 -3.2363E-03 -8.2869E-03 -1.0658E-02



 n o d a l  s t r e s s  c a l c u l a t i o n s   f o r   t i m e  s t e p      445   ( at time 2.27520E+01 )

 node (global)
          stress       sig-xx      sig-yy      sig-zz      sig-xy      sig-yz      sig-zx       plastic
                                                                                                 strain 
       1-
 mid.  surface    -1.9810E+09 -2.2273E+09 -3.2889E+09 -2.7255E+07  9.0235E+07 -4.1786E+06  4.3116E-03
       2-
 mid.  surface    -2.5195E+09 -2.7094E+09 -3.0283E+09 -6.3250E+07  1.5387E+08  4.2720E+07  2.1764E-01
       8-
 mid.  surface    -2.5640E+09 -2.4426E+09 -1.4823E+09  2.6416E+07  4.3202E+08  4.3819E+07  1.1610E-01
       9-
 mid.  surface    -3.3616E+09 -3.2841E+09 -2.2606E+09  5.4735E+07  2.4637E+08 -4.0084E+06  1.3731E-01
      10-
 mid.  surface    -1.5518E+09 -1.5397E+09 -1.1850E+09 -2.3743E+06  2.0937E+07  1.8420E+06  1.7243E-01
      11-
 mid.  surface    -7.6417E+08 -7.9334E+08 -4.1040E+08  3.2455E+07 -1.8940E+07  6.4713E+07  1.4340E-01
      12-
 mid.  surface    -5.8331E+08 -4.7849E+08 -1.0111E+09  1.4571E+08  1.3388E+08 -1.1490E+08 -5.1644E-02
      17-
 mid.  surface    -2.2335E+09 -2.3678E+09 -1.8639E+09 -5.7197E+07 -2.0033E+07  6.7407E+06  1.7324E-01
      18-
 mid.  surface    -1.2389E+09 -1.1991E+09 -8.4545E+08 -3.1094E+07  9.7037E+07  2.4378E+07  1.6240E-01
      19-
 mid.  surface    -2.4148E+09 -2.3852E+09 -2.3982E+09  3.9002E+07  1.4882E+08 -1.4219E+08  1.6391E-01
      20-
 mid.  surface     1.0068E+09  1.0205E+09  1.0703E+07 -9.6216E+07 -1.1412E+08 -3.4637E+07  2.2383E-01
      21-
 mid.  surface     8.3776E+08  9.9655E+08  4.4706E+08 -3.3793E+07 -1.4613E+08 -8.1019E+07  3.1478E-01
      22-
 mid.  surface     2.9679E+09  3.1412E+09  2.4480E+09  2.9657E+07 -1.4855E+08 -7.5102E+07  1.4070E-01
      23-
 mid.  surface     3.0207E+09  3.1438E+09  1.9818E+09 -3.6684E+07 -5.5028E+07  2.8084E+06  2.1043E-01
      52-
 mid.  surface     1.2497E+09  1.2261E+09  1.7928E+08  5.3784E+06 -1.6391E+08 -1.2121E+07  2.4895E-01
      53-
 mid.  surface     2.0229E+09  1.9682E+09  1.0002E+09  1.3609E+07 -9.8298E+07  3.3113E+07  2.2107E-01
     124-
 mid.  surface    -1.3802E+09 -1.5447E+09  1.2816E+08 -1.0012E+08  5.3632E+07  1.8165E+08  5.5143E-01
     125-
 mid.  surface    -1.5189E+09 -1.6908E+09 -9.0585E+08 -5.3987E+07  3.6524E+07  1.9321E+08  2.7341E-01
     148-
 mid.  surface     2.7169E+09  2.6005E+09  1.0003E+09 -2.7180E+07 -2.8212E+08 -1.2383E+03  2.7608E-01
     164-
 mid.  surface     2.0546E+09  1.9247E+09  3.0001E+08 -3.3785E+07 -4.7090E+08 -5.9917E+07  2.8695E-01



 n o d a l  s t r a i n  c a l c u l a t i o n s   f o r   t i m e  s t e p      445   ( at time 2.27520E+01 )

 node (global)
          strain       eps-xx      eps-yy      eps-zz      eps-xy      eps-yz      eps-zx       
       1-
 mid.  surface     1.3439E-01  1.1635E-01 -2.1000E-01  1.9903E-02 -2.9338E-02  2.9822E-02
       2-
 mid.  surface     1.5716E-01  9.0074E-02 -2.5011E-01  1.2068E-02 -5.0155E-03  6.8435E-02
       8-
 mid.  surface     8.9935E-02  9.8689E-02 -1.8669E-01 -6.9587E-03 -3.4280E-02  9.6454E-03
       9-
 mid.  surface     9.4072E-02  6.6000E-02 -1.7109E-01  6.5459E-03 -6.5562E-02  3.5323E-03
      10-
 mid.  surface     9.2812E-02  8.4282E-02 -1.8299E-01  1.9654E-04 -5.0867E-02  3.8801E-03
      11-
 mid.  surface     8.0870E-02  7.5562E-02 -1.5896E-01 -6.3811E-03 -4.9425E-02  4.8320E-03
      12-
 mid.  surface     6.2271E-02  1.1597E-01 -1.3123E-01  1.4799E-02 -6.3677E-02 -2.5293E-02
      17-
 mid.  surface     7.9625E-02  8.4956E-02 -1.8817E-01 -2.2272E-02 -5.1900E-02 -1.5637E-02
      18-
 mid.  surface     7.9834E-02  1.0672E-01 -1.8682E-01 -4.1278E-03 -4.5676E-02  2.5131E-03
      19-
 mid.  surface     7.7106E-02  1.0215E-01 -1.9476E-01 -3.0679E-03 -3.5477E-02 -1.7637E-02
      20-
 mid.  surface     1.0438E-01  9.0633E-02 -1.9629E-01  8.7715E-03  3.7601E-02  1.9033E-02
      21-
 mid.  surface     7.9313E-02  1.0287E-01 -2.1536E-01  1.3158E-03  3.9688E-02  8.7746E-03
      22-
 mid.  surface     7.2732E-02  1.0278E-01 -1.5018E-01  1.2987E-02  2.8682E-02 -1.5892E-02
      23-
 mid.  surface     1.1198E-01  8.6880E-02 -1.7149E-01  1.2374E-02  3.9905E-02  2.4496E-02
      52-
 mid.  surface     9.3074E-02  9.0266E-02 -1.9147E-01 -3.8536E-03  2.9857E-02 -9.9668E-03
      53-
 mid.  surface     8.2815E-02  1.0515E-01 -1.8403E-01 -1.5941E-03  3.9374E-02  8.1620E-03
     124-
 mid.  surface     5.9166E-02  1.0766E-01 -2.6224E-01 -5.1410E-03  5.4568E-02 -7.0127E-02
     125-
 mid.  surface     5.4552E-02  1.1114E-01 -2.1844E-01 -6.2915E-03  6.6397E-02 -6.8567E-02
     148-
 mid.  surface     8.8788E-02  8.9877E-02 -1.8660E-01 -1.3982E-02  4.2915E-02  6.6206E-03
     164-
 mid.  surface     9.3755E-02  6.5100E-02 -1.7691E-01 -6.4953E-03 -1.5035E-02 -1.1426E-02



 n o d a l  s t r e s s  c a l c u l a t i o n s   f o r   t i m e  s t e p      457   ( at time 2.45954E+01 )

 node (global)
          stress       sig-xx      sig-yy      sig-zz      sig-xy      sig-yz      sig-zx       plastic
                                                                                                 strain 
       1-
 mid.  surface    -1.7845E+09 -2.0769E+09 -3.1502E+09 -1.5033E+08  6.5658E+07 -1.1293E+08  6.4732E-02
       2-
 mid.  surface    -2.6034E+09 -2.6953E+09 -3.0781E+09 -8.4459E+07  9.6653E+07 -7.2334E+07  2.4329E-01
       8-
 mid.  surface    -2.4141E+09 -1.9775E+09 -1.4665E+09  7.5484E+07  7.4222E+08  1.0984E+08  7.5111E-02
       9-
 mid.  surface    -4.2543E+09 -3.8987E+09 -3.1637E+09  4.6279E+07  6.3160E+07 -5.4793E+07  1.0531E-01
      10-
 mid.  surface    -1.2983E+09 -1.5017E+09 -1.1273E+09 -1.0724E+07 -3.5339E+08 -1.3594E+08  1.3968E-01
      11-
 mid.  surface     1.3724E+09  1.4707E+09  1.0231E+09  3.7012E+07 -3.7094E+07 -8.7900E+06  1.6444E-01
      12-
 mid.  surface     1.5221E+09  1.5679E+09  2.7781E+08  1.4911E+08  2.8548E+08 -3.9783E+07  2.2564E-02
      17-
 mid.  surface    -6.7701E+08 -5.0915E+08 -8.7958E+08 -8.0992E+07  1.5536E+08  5.9310E+07  2.1032E-01
      18-
 mid.  surface    -3.0209E+08 -3.7523E+08 -1.2927E+08 -5.0725E+07  2.0881E+08  6.5007E+07  1.2516E-01
      19-
 mid.  surface    -1.0155E+09 -9.2620E+08 -1.7722E+09  1.0347E+08  2.4205E+08 -7.4795E+07  2.1897E-01
      20-
 mid.  surface    -1.3572E+09 -1.1315E+09 -1.4840E+09 -1.3407E+08  1.3126E+07 -1.9831E+07  2.6399E-01
      21-
 mid.  surface    -6.2042E+08 -5.0433E+08 -3.1192E+08  1.5679E+07 -2.8188E+08 -8.5867E+07  3.1058E-01
      22-
 mid.  surface     1.9384E+09  2.0227E+09  2.1169E+09  4.7230E+07 -2.4750E+08 -2.9975E+07  1.3717E-01
      23-
 mid.  surface     1.4457E+09  1.7426E+09  1.2299E+09 -4.2756E+07 -1.6623E+08 -5.0013E+07  2.3640E-01
      52-
 mid.  surface     1.4827E+09  1.1485E+09  3.5966E+08 -5.2476E+06 -4.1899E+08 -6.4071E+07  2.8873E-01
      53-
 mid.  surface     2.0195E+09  1.7354E+09  1.0995E+09  2.8568E+06  1.8250E+08  1.4401E+08  2.8597E-01
     124-
 mid.  surface    -2.0116E+09 -2.1339E+09 -4.6375E+08 -1.2568E+08  1.0446E+08  1.1292E+08  4.5890E-01
     125-
 mid.  surface    -1.7023E+09 -1.9149E+09 -1.1029E+09 -1.2159E+08  5.1786E+07  8.6818E+07  2.2788E-01
     148-
 mid.  surface     3.3764E+09  3.3258E+09  2.0474E+09  8.7818E+07 -9.9520E+07  1.4616E+08  4.0179E-01
     164-
 mid.  surface     1.8816E+09  1.7984E+09  5.6983E+08  2.1044E+07 -7.9837E+08 -2.3028E+07  4.0841E-01



 n o d a l  s t r a i n  c a l c u l a t i o n s   f o r   t i m e  s t e p      457   ( at time 2.45954E+01 )

 node (global)
          strain       eps-xx      eps-yy      eps-zz      eps-xy      eps-yz      eps-zx       
       1-
 mid.  surface     1.4222E-01  1.3102E-01 -2.3539E-01  1.8527E-02 -2.9982E-02  3.5664E-02
       2-
 mid.  surface     1.7081E-01  9.5431E-02 -2.6084E-01  5.3128E-03 -2.9579E-03  7.5803E-02
       8-
 mid.  surface     1.0007E-01  1.3973E-01 -2.2285E-01  3.1613E-03 -3.8173E-02  5.2178E-03
       9-
 mid.  surface     9.9705E-02  7.9589E-02 -1.9328E-01  1.0848E-02 -8.1054E-02 -2.8819E-03
      10-
 mid.  surface     9.8288E-02  6.9081E-02 -1.7473E-01 -8.7885E-04 -6.9423E-02 -6.3557E-04
      11-
 mid.  surface     8.1890E-02  8.4592E-02 -1.6791E-01 -8.7588E-03 -5.7415E-02  4.1520E-03
      12-
 mid.  surface     6.7584E-02  1.3256E-01 -1.5396E-01  1.6179E-02 -6.3818E-02 -2.0944E-02
      17-
 mid.  surface     8.1886E-02  1.1008E-01 -2.2016E-01 -2.9417E-02 -5.9949E-02 -1.5432E-02
      18-
 mid.  surface     8.9348E-02  1.2084E-01 -1.9849E-01 -5.0597E-03 -5.4296E-02  3.5055E-03
      19-
 mid.  surface     8.4997E-02  1.1349E-01 -2.1794E-01 -4.6790E-03 -3.6690E-02 -1.6211E-02
      20-
 mid.  surface     1.1480E-01  1.1218E-01 -2.3256E-01  7.8623E-03  5.2516E-02  2.2424E-02
      21-
 mid.  surface     9.5317E-02  1.1223E-01 -2.3840E-01  4.2714E-03  4.0996E-02  2.6089E-03
      22-
 mid.  surface     8.5187E-02  1.1853E-01 -1.7367E-01  2.1610E-02  3.1384E-02 -1.9724E-02
      23-
 mid.  surface     1.1828E-01  9.9849E-02 -1.8532E-01  1.5325E-02  4.5773E-02  2.0800E-02
      52-
 mid.  surface     1.0039E-01  7.8900E-02 -1.8875E-01 -8.3977E-03  1.2341E-02 -1.3145E-02
      53-
 mid.  surface     9.6933E-02  1.0864E-01 -2.0420E-01 -3.2564E-03  7.0561E-02  1.9827E-02
     124-
 mid.  surface     6.6113E-02  1.1277E-01 -2.7181E-01 -1.1579E-02  5.5563E-02 -7.8473E-02
     125-
 mid.  surface     5.6225E-02  1.2849E-01 -2.4289E-01 -6.8606E-03  6.2283E-02 -7.7498E-02
     148-
 mid.  surface     1.0394E-01  1.1626E-01 -2.2913E-01 -7.2244E-03  5.6669E-02  1.5095E-02
     164-
 mid.  surface     1.0257E-01  6.8222E-02 -2.0424E-01 -8.1365E-03 -3.1538E-02 -7.0353E-03



 n o d a l  s t r e s s  c a l c u l a t i o n s   f o r   t i m e  s t e p      465   ( at time 2.64389E+01 )

 node (global)
          stress       sig-xx      sig-yy      sig-zz      sig-xy      sig-yz      sig-zx       plastic
                                                                                                 strain 
       1-
 mid.  surface    -1.6277E+08 -3.6167E+08 -3.1506E+09  1.5655E+07 -5.6465E+07 -9.0820E+07  1.7499E-01
       2-
 mid.  surface    -8.2036E+08 -8.8212E+08 -2.9436E+09  3.8675E+06 -6.6541E+06 -3.8840E+07  3.2294E-01
       8-
 mid.  surface     6.7361E+08  8.2114E+08 -1.1562E+08 -3.2000E+05  6.4285E+08  1.0642E+08  1.2479E-01
       9-
 mid.  surface    -2.4161E+09 -2.2454E+09 -2.3673E+09  2.0824E+07  7.6767E+08  1.1589E+08  1.1091E-01
      10-
 mid.  surface     8.7728E+07  9.2413E+07 -6.2264E+08 -7.3101E+06  4.7004E+08  7.7295E+07  1.7269E-01
      11-
 mid.  surface     1.2497E+09  1.2859E+09  5.7212E+08 -2.1751E+07  3.9447E+08  1.1863E+08  1.9241E-01
      12-
 mid.  surface     3.8209E+08  3.2462E+08  6.1007E+07  7.4088E+07  2.8007E+08 -2.3642E+07  3.5786E-02
      17-
 mid.  surface    -7.8075E+08 -6.3795E+08 -1.5152E+09 -5.5868E+07  4.2532E+08  1.1977E+08  2.4196E-01
      18-
 mid.  surface     1.3731E+09  1.4309E+09  5.5985E+08 -1.5946E+07  5.8875E+08  1.2544E+08  1.6301E-01
      19-
 mid.  surface    -1.8510E+09 -1.7884E+09 -2.0839E+09  9.8819E+06  1.7806E+08 -5.7049E+07  2.3478E-01
      20-
 mid.  surface    -4.0805E+08 -3.5103E+08 -9.6676E+08 -8.5396E+07 -5.5310E+08 -1.2196E+08  2.9206E-01
      21-
 mid.  surface    -1.3993E+09 -1.3233E+09 -1.7207E+08  2.2223E+07 -1.2894E+08 -6.0150E+07  2.7083E-01
      22-
 mid.  surface     8.9860E+08  8.9086E+08  2.3647E+09  6.5196E+07 -1.3920E+07 -1.6518E+07  8.3521E-02
      23-
 mid.  surface     2.0719E+09  2.0956E+09  1.9083E+09 -2.8782E+07 -4.9001E+08 -1.1888E+08  2.4609E-01
      52-
 mid.  surface     3.8629E+08  2.3724E+08  1.2471E+08 -1.0441E+07 -6.9717E+08 -1.3351E+08  2.9559E-01
      53-
 mid.  surface     1.6885E+09  1.5334E+09  1.0382E+09 -1.1906E+07 -6.6337E+08 -9.5852E+07  3.1157E-01
     124-
 mid.  surface    -2.9706E+08 -2.7907E+08 -3.0630E+08 -5.0632E+07  6.7551E+06  1.1401E+08  4.5693E-01
     125-
 mid.  surface    -8.7256E+07 -1.4644E+08 -1.0442E+09 -5.6467E+06 -4.5045E+07  8.2306E+07  2.6230E-01
     148-
 mid.  surface     6.8597E+08  6.1660E+08  7.6820E+08  5.6046E+07 -4.9352E+08 -1.7448E+07  3.9818E-01
     164-
 mid.  surface    -1.8777E+09 -1.9151E+09 -1.0292E+09  5.2023E+07 -4.0429E+08 -1.2166E+07  3.6874E-01



 n o d a l  s t r a i n  c a l c u l a t i o n s   f o r   t i m e  s t e p      465   ( at time 2.64389E+01 )

 node (global)
          strain       eps-xx      eps-yy      eps-zz      eps-xy      eps-yz      eps-zx       
       1-
 mid.  surface     1.4464E-01  1.3874E-01 -2.4356E-01  2.0168E-02 -2.9470E-02  3.6256E-02
       2-
 mid.  surface     1.7425E-01  9.9297E-02 -2.6940E-01  2.9844E-03 -8.5475E-04  7.7199E-02
       8-
 mid.  surface     1.0798E-01  1.4726E-01 -2.3973E-01  4.4175E-03 -3.9426E-02  5.6099E-03
       9-
 mid.  surface     1.0626E-01  8.3951E-02 -2.0762E-01  1.2698E-02 -8.4296E-02 -3.4152E-03
      10-
 mid.  surface     1.0581E-01  7.7105E-02 -1.8829E-01 -5.4730E-04 -7.1660E-02 -1.1103E-03
      11-
 mid.  surface     8.8587E-02  9.1015E-02 -1.7944E-01 -1.0435E-02 -5.8952E-02  5.1163E-03
      12-
 mid.  surface     7.8508E-02  1.4177E-01 -1.7177E-01  1.9770E-02 -6.5081E-02 -2.0127E-02
      17-
 mid.  surface     8.5276E-02  1.2036E-01 -2.3373E-01 -3.0732E-02 -6.1212E-02 -1.4259E-02
      18-
 mid.  surface     9.6751E-02  1.3211E-01 -2.1333E-01 -4.1804E-03 -5.5176E-02  3.5508E-03
      19-
 mid.  surface     9.5072E-02  1.2262E-01 -2.3825E-01 -2.9914E-03 -3.6833E-02 -1.6125E-02
      20-
 mid.  surface     1.2034E-01  1.1950E-01 -2.4726E-01  6.3405E-03  5.5092E-02  2.4564E-02
      21-
 mid.  surface     1.0508E-01  1.2079E-01 -2.6027E-01  6.1998E-03  4.0025E-02 -2.3265E-03
      22-
 mid.  surface     9.5956E-02  1.2677E-01 -1.9312E-01  2.4904E-02  3.1884E-02 -1.9690E-02
      23-
 mid.  surface     1.2528E-01  1.0501E-01 -1.9804E-01  1.3682E-02  4.4785E-02  2.0765E-02
      52-
 mid.  surface     1.0820E-01  8.4769E-02 -2.0303E-01 -1.0117E-02  1.0874E-02 -1.4786E-02
      53-
 mid.  surface     1.0504E-01  1.1712E-01 -2.1954E-01 -3.9669E-03  7.4099E-02  2.0580E-02
     124-
 mid.  surface     6.9762E-02  1.1828E-01 -2.8208E-01 -1.4530E-02  5.5317E-02 -8.0710E-02
     125-
 mid.  surface     5.8849E-02  1.3670E-01 -2.5217E-01 -7.2948E-03  6.1678E-02 -8.0366E-02
     148-
 mid.  surface     1.1170E-01  1.2753E-01 -2.4698E-01 -6.3611E-03  5.6982E-02  1.6883E-02
     164-
 mid.  surface     1.1025E-01  7.7511E-02 -2.2064E-01 -7.5086E-03 -3.5290E-02 -5.8428E-03



 n o d a l  s t r e s s  c a l c u l a t i o n s   f o r   t i m e  s t e p      477   ( at time 2.82824E+01 )

 node (global)
          stress       sig-xx      sig-yy      sig-zz      sig-xy      sig-yz      sig-zx       plastic
                                                                                                 strain 
       1-
 mid.  surface     2.0493E+08  3.9286E+07 -2.7732E+09  3.0597E+07 -1.5715E+08 -1.9566E+08  3.4107E-01
       2-
 mid.  surface    -1.2425E+08 -2.0286E+07 -2.1660E+09  9.7978E+07 -7.4078E+07 -1.1592E+08  4.4803E-01
       8-
 mid.  surface     1.3931E+09  1.4046E+09  6.3185E+08  1.3415E+07  1.0617E+09  2.7426E+08  1.8209E-01
       9-
 mid.  surface    -1.6205E+09 -1.5789E+09 -1.7137E+09  1.6177E+08  8.9463E+08  2.5844E+08  1.1252E-01
      10-
 mid.  surface     3.1403E+08  4.7107E+08 -3.0603E+08 -2.0741E+07  6.5102E+08  1.0117E+08  2.2772E-01
      11-
 mid.  surface     1.9485E+09  2.0175E+09  1.2792E+09 -5.6951E+07  4.1804E+08  1.8836E+08  2.3141E-01
      12-
 mid.  surface     4.7656E+07  2.8645E+07 -2.6431E+08  1.2010E+08  3.0103E+08 -2.0498E+07  5.7784E-02
      17-
 mid.  surface     7.2989E+07  2.5102E+08 -5.9653E+08 -1.5382E+08  4.4343E+08  1.8428E+08  2.8777E-01
      18-
 mid.  surface     1.9570E+09  2.2350E+09  1.4236E+09 -6.5938E+07  8.9307E+08  2.0150E+08  2.2773E-01
      19-
 mid.  surface    -2.3793E+09 -2.2683E+09 -2.5417E+09 -3.2763E+07  1.7662E+08 -1.0295E+08  2.6271E-01
      20-
 mid.  surface    -6.9055E+08 -7.2352E+08 -1.2074E+09 -1.5280E+08 -6.7599E+08 -1.4580E+08  3.2118E-01
      21-
 mid.  surface    -2.0989E+09 -2.0312E+09 -8.1923E+08  4.1148E+07 -1.2399E+08 -8.5724E+07  2.1443E-01
      22-
 mid.  surface     3.8207E+08  3.3498E+08  1.8048E+09  1.3034E+08  2.9256E+07  4.2826E+07  2.8258E-03
      23-
 mid.  surface     1.8499E+09  1.8149E+09  1.6338E+09 -8.2432E+06 -5.8378E+08 -1.2875E+08  2.4523E-01
      52-
 mid.  surface    -4.5131E+08 -6.7808E+08 -7.4799E+08 -4.9472E+06 -9.4356E+08 -2.7972E+08  3.0122E-01
      53-
 mid.  surface     9.5895E+08  7.4451E+08  4.6376E+08 -7.4766E+07 -8.1029E+08 -2.1452E+08  3.4762E-01
     124-
 mid.  surface     6.0745E+07  1.5282E+08  4.8026E+07  7.5685E+06  2.3307E+07  1.8146E+08  4.5470E-01
     125-
 mid.  surface     3.7793E+08  3.3337E+08 -6.0283E+08  3.4263E+07 -6.8731E+07  8.6544E+07  3.1408E-01
     148-
 mid.  surface     3.9192E+08  1.4835E+08  5.5531E+08 -1.7374E+06 -6.6648E+08  7.2735E+06  3.9401E-01
     164-
 mid.  surface    -1.4582E+09 -1.6754E+09 -9.1263E+08  1.1957E+08 -8.1848E+08  1.2040E+07  2.9243E-01



 n o d a l  s t r a i n  c a l c u l a t i o n s   f o r   t i m e  s t e p      477   ( at time 2.82824E+01 )

 node (global)
          strain       eps-xx      eps-yy      eps-zz      eps-xy      eps-yz      eps-zx       
       1-
 mid.  surface     1.4602E-01  1.5695E-01 -2.5508E-01  2.7690E-02 -2.7871E-02  3.7001E-02
       2-
[...]
      23-
 mid.  surface     3.1607E-01  3.0716E-01 -6.0128E-01 -2.6343E-02  1.1944E-01 -1.4223E-02
      52-
 mid.  surface     3.4853E-01  2.4175E-01 -6.0932E-01 -1.3843E-02  1.9200E-02  8.6315E-02
      53-
 mid.  surface     3.7484E-01  2.9509E-01 -7.1039E-01 -3.3170E-02  1.7902E-01  9.2756E-02
     124-
 mid.  surface     2.8840E-01  3.2387E-01 -6.5361E-01 -4.0477E-02  6.3255E-02  8.6943E-02
     125-
 mid.  surface     2.5860E-01  3.7413E-01 -5.8221E-01  1.0788E-02  2.3459E-02 -8.0009E-02
     148-
 mid.  surface     3.8367E-01  3.8582E-01 -7.6749E-01 -1.9356E-02  1.7386E-01  5.9863E-03
     164-
 mid.  surface     3.8095E-01  2.8500E-01 -7.5376E-01 -3.0946E-03  7.2095E-02 -9.9418E-03



 n o d a l  s t r e s s  c a l c u l a t i o n s   f o r   t i m e  s t e p      666   ( at time 8.85224E+01 )

 node (global)
          stress       sig-xx      sig-yy      sig-zz      sig-xy      sig-yz      sig-zx       plastic
                                                                                                 strain 
       1-
 mid.  surface     2.0244E+09  2.1645E+09 -4.2482E+08 -9.6843E+07 -5.8535E+07 -1.1343E+08  4.2450E+00
       2-
 mid.  surface     1.0371E+09  1.2233E+09 -1.3030E+09 -5.5698E+07 -3.5034E+07 -1.4284E+08  3.4757E+00
       8-
 mid.  surface    -1.8843E+09 -1.8285E+09 -3.5610E+08  6.2024E+07 -2.2353E+07 -5.6573E+07 -1.4374E+00
       9-
 mid.  surface     2.1125E+09  2.0897E+09  1.4754E+09 -5.3048E+06 -4.1190E+08 -2.0269E+07  9.5332E-01
      10-
 mid.  surface     2.3353E+09  2.2499E+09  1.6916E+09  6.9992E+06 -2.8268E+08 -5.0559E+07  1.2513E+00
      11-
 mid.  surface    -5.5585E+08 -4.8906E+08  2.2665E+09  1.2865E+08 -2.7124E+08 -1.2793E+08 -7.2890E-01
      12-
 mid.  surface    -2.4404E+09 -2.3455E+09 -1.8041E+09  4.3505E+07 -1.7134E+08 -7.3879E+07 -6.5063E-03
      17-
 mid.  surface     3.1916E+08  2.9521E+08 -8.7204E+08  3.1864E+06 -2.0885E+08 -1.0795E+08  1.7614E+00
      18-
 mid.  surface    -4.5721E+08 -4.8275E+08 -1.3848E+09 -1.3476E+07 -5.1746E+07 -3.1656E+07 -3.8261E-01
      19-
 mid.  surface    -6.4915E+08 -6.8219E+08 -1.6918E+09  1.6884E+07 -1.0417E+08 -8.2718E+07  1.9881E+00
      20-
 mid.  surface     2.0586E+08  6.3157E+07 -1.6153E+09 -7.8162E+07  3.2304E+08  1.1965E+08  1.6419E+00
      21-
 mid.  surface    -1.1411E+09 -1.2911E+09 -1.8404E+09 -2.5855E+07  1.7441E+08  1.2745E+08  1.6647E-01
      22-
 mid.  surface    -2.5684E+09 -2.6233E+09 -6.5368E+08  3.2791E+07  9.8905E+07  1.5132E+08 -2.8417E+00
      23-
 mid.  surface    -9.9802E+08 -1.0375E+09  1.0866E+09  5.4172E+07  2.5173E+08  6.2949E+07 -9.2695E-01
      52-
 mid.  surface     2.6100E+09  2.4973E+09  7.7200E+08 -8.1317E+07  2.0326E+08  6.5293E+07  2.1076E+00
      53-
 mid.  surface    -4.9073E+08 -5.9631E+08 -3.4272E+09 -1.1204E+08  3.1622E+08  4.3513E+07  1.5230E+00
     124-
 mid.  surface     1.0201E+09  1.0917E+09  6.8051E+08 -2.6976E+07 -2.6842E+06  7.2725E+06  5.2592E-01
     125-
 mid.  surface     1.0407E+09  1.1987E+09 -9.9511E+08 -1.0014E+08 -2.4511E+07 -2.7817E+07  1.8222E+00
     148-
 mid.  surface    -2.2723E+09 -2.1763E+09 -7.5033E+08  2.0030E+07  2.5116E+08 -1.0930E+07  6.7250E-03
     164-
 mid.  surface     2.4462E+09  2.4894E+09  2.5514E+09 -3.6848E+07 -5.6558E+07  2.7375E+07  1.4021E+00



 n o d a l  s t r a i n  c a l c u l a t i o n s   f o r   t i m e  s t e p      666   ( at time 8.85224E+01 )

 node (global)
          strain       eps-xx      eps-yy      eps-zz      eps-xy      eps-yz      eps-zx       
       1-
 mid.  surface     2.9992E-01  4.4101E-01 -6.2689E-01 -2.1961E-02 -1.5505E-02  5.1781E-02
       2-
 mid.  surface     3.1988E-01  3.7451E-01 -7.4624E-01 -5.6271E-02  6.1968E-02  5.6140E-02
       8-
 mid.  surface     4.2061E-01  4.4623E-01 -8.5011E-01  1.3914E-02 -1.3747E-01 -1.8212E-03
       9-
 mid.  surface     4.0696E-01  3.0824E-01 -8.0114E-01  9.2729E-03 -1.3688E-01 -1.2558E-02
      10-
 mid.  surface     3.7059E-01  2.4751E-01 -5.7627E-01 -4.8960E-03 -1.6393E-01 -2.6132E-02
      11-
 mid.  surface     3.2542E-01  3.0248E-01 -6.0965E-01 -4.1874E-02 -9.6351E-02  2.8634E-02
      12-
 mid.  surface     3.6595E-01  4.3839E-01 -8.2205E-01  3.1863E-02 -4.2084E-02 -1.2283E-02
      17-
 mid.  surface     3.2374E-01  3.6347E-01 -7.0392E-01 -8.4346E-02 -9.3579E-02 -1.5059E-02
      18-
 mid.  surface     3.9593E-01  3.5871E-01 -7.1057E-01 -7.7197E-03 -1.4120E-01 -9.5202E-03
      19-
 mid.  surface     3.5939E-01  4.1161E-01 -8.8237E-01  3.7085E-03  1.6684E-03 -4.5980E-02
      20-
 mid.  surface     3.4778E-01  3.3577E-01 -7.0106E-01 -7.1071E-02  9.9847E-02  2.2927E-02
      21-
 mid.  surface     3.9584E-01  3.5100E-01 -8.7196E-01  2.0756E-02  6.2571E-02 -5.2328E-02
      22-
 mid.  surface     3.8619E-01  3.9615E-01 -7.9070E-01  5.6694E-02  3.4660E-02  3.8438E-02
      23-
 mid.  surface     3.3341E-01  3.1443E-01 -6.4220E-01 -3.0665E-02  1.2764E-01  1.1079E-02
      52-
 mid.  surface     3.7279E-01  2.5553E-01 -6.3528E-01 -1.7031E-02  4.1605E-02  6.5360E-02
      53-
 mid.  surface     3.9776E-01  3.0929E-01 -7.3128E-01 -3.4931E-02  2.0249E-01  1.0528E-01
     124-
 mid.  surface     3.1254E-01  3.3870E-01 -6.8167E-01 -3.8292E-02  5.2559E-02  1.2851E-01
     125-
 mid.  surface     2.8066E-01  3.9077E-01 -5.9745E-01  1.5767E-02  1.9712E-02 -8.4635E-02
     148-
 mid.  surface     4.1121E-01  3.9810E-01 -8.2844E-01 -1.9530E-02  2.1165E-01  1.2651E-02
     164-
 mid.  surface     4.0267E-01  3.0151E-01 -7.9390E-01 -1.0786E-02  1.2913E-01 -1.7811E-03



 n o d a l  s t r e s s  c a l c u l a t i o n s   f o r   t i m e  s t e p      674   ( at time 9.31530E+01 )

 node (global)
          stress       sig-xx      sig-yy      sig-zz      sig-xy      sig-yz      sig-zx       plastic
                                                                                                 strain 
       1-
 mid.  surface     8.3824E+08  8.8138E+08 -1.6829E+09 -4.2325E+07 -4.8319E+07 -5.7538E+06  4.4275E+00
       2-
 mid.  surface     8.8516E+08  7.9572E+08 -1.6132E+09 -7.1253E+07 -1.7416E+07 -3.2089E+07  3.6462E+00
       8-
 mid.  surface    -1.6760E+09 -1.6392E+09 -1.4160E+08  2.2490E+06  3.2203E+07 -1.7773E+07 -1.5638E+00
       9-
 mid.  surface     1.9307E+09  1.8148E+09  1.2314E+09 -2.0159E+07 -3.2539E+08  1.5901E+07  1.0007E+00
      10-
 mid.  surface     2.1172E+09  2.0393E+09  1.4738E+09 -1.9284E+07 -1.5857E+08 -2.7850E+07  1.2911E+00
      11-
 mid.  surface    -1.9434E+09 -1.9345E+09  5.5063E+08 -2.4586E+07 -1.0797E+08  1.5067E+07 -9.3276E-01
      12-
 mid.  surface    -1.4193E+09 -1.4494E+09 -3.6993E+09  1.3782E+07 -1.0665E+08 -3.9195E+07  1.7807E-01
      17-
 mid.  surface    -2.2738E+09 -2.2767E+09 -1.6142E+09 -6.4294E+06 -6.2400E+07  1.4442E+07  1.7109E+00
      18-
 mid.  surface    -8.4240E+08 -8.2411E+08 -1.7595E+09 -4.2122E+06 -5.6088E+06 -4.2613E+07 -3.0817E-01
      19-
 mid.  surface     1.2266E+08 -1.0605E+07 -1.6057E+09  1.6749E+07 -6.1818E+07  3.2288E+06  2.1150E+00
      20-
 mid.  surface    -6.3704E+08 -5.9825E+08  5.1665E+08  1.0353E+07  1.8762E+08  7.4649E+07  1.5519E+00
      21-
 mid.  surface    -4.4861E+07 -1.0553E+08 -3.1830E+08  1.7554E+07  5.5910E+07  2.4118E+07  1.8962E-01
      22-
 mid.  surface    -1.0433E+09 -1.0255E+09 -4.8141E+08  4.1496E+07  1.5495E+07  1.1913E+06 -2.8648E+00
      23-
 mid.  surface    -1.1374E+09 -1.0484E+09  1.7121E+09 -5.3829E+06  1.4535E+08  5.6950E+07 -1.1528E+00
      52-
 mid.  surface     3.4273E+09  3.4251E+09  1.6093E+09  1.7223E+07  1.0732E+08  1.1586E+07  2.2571E+00
      53-
 mid.  surface     3.9990E+08  4.8333E+08 -2.4958E+09  2.4776E+07  1.7018E+08 -2.6322E+07  1.7667E+00
     124-
 mid.  surface     1.6231E+09  1.5432E+09  1.2136E+09 -3.1880E+07  8.8382E+06 -2.7837E+07  5.4822E-01
     125-
 mid.  surface     6.0255E+08  5.7577E+08 -1.5563E+09 -3.7686E+07 -1.8392E+07 -3.8465E+07  1.9989E+00
     148-
 mid.  surface    -2.3001E+09 -2.2014E+09 -7.5437E+08  1.2874E+05  1.5798E+08 -1.9949E+07 -1.0773E-01
     164-
 mid.  surface     2.6559E+09  2.6528E+09  2.7640E+09  1.2102E+06 -9.4109E+07  3.3382E+06  1.4004E+00



 n o d a l  s t r a i n  c a l c u l a t i o n s   f o r   t i m e  s t e p      674   ( at time 9.31530E+01 )

 node (global)
          strain       eps-xx      eps-yy      eps-zz      eps-xy      eps-yz      eps-zx       
       1-
 mid.  surface     3.1858E-01  4.5426E-01 -6.6160E-01 -2.8124E-02 -2.1165E-02  4.6282E-02
       2-
 mid.  surface     3.3552E-01  3.9005E-01 -7.7837E-01 -5.7172E-02  5.6725E-02  6.1920E-02
       8-
 mid.  surface     4.3791E-01  4.5392E-01 -8.6575E-01  1.2317E-02 -1.3963E-01  4.9851E-04
       9-
 mid.  surface     4.2685E-01  3.1693E-01 -8.2908E-01  7.1388E-03 -1.3050E-01 -1.4335E-02
      10-
 mid.  surface     3.9066E-01  2.6629E-01 -6.1066E-01 -1.9615E-03 -1.7501E-01 -2.1379E-02
      11-
 mid.  surface     3.4820E-01  3.2577E-01 -6.5464E-01 -3.2476E-02 -9.5527E-02  2.8877E-02
      12-
 mid.  surface     3.8028E-01  4.5567E-01 -8.5217E-01  2.9857E-02 -3.7951E-02 -1.1419E-02
      17-
 mid.  surface     3.4445E-01  3.7849E-01 -7.4630E-01 -8.0131E-02 -9.9888E-02 -1.5345E-02
      18-
 mid.  surface     4.1151E-01  3.7684E-01 -7.4417E-01 -8.4058E-03 -1.5474E-01 -3.9827E-03
      19-
 mid.  surface     3.7076E-01  4.2539E-01 -9.1121E-01  5.7428E-04  3.4303E-03 -4.4907E-02
      20-
 mid.  surface     3.6523E-01  3.4430E-01 -7.3581E-01 -7.3524E-02  8.0562E-02  1.5841E-02
      21-
 mid.  surface     4.0800E-01  3.6061E-01 -8.9845E-01  1.8018E-02  6.7865E-02 -5.4473E-02
      22-
 mid.  surface     3.9849E-01  4.1154E-01 -8.1829E-01  5.4498E-02  4.5091E-02  4.3154E-02
      23-
 mid.  surface     3.5054E-01  3.2335E-01 -6.7858E-01 -3.0738E-02  1.4738E-01  3.1382E-02
      52-
 mid.  surface     3.8796E-01  2.7033E-01 -6.6492E-01 -1.9186E-02  6.2714E-02  6.7553E-02
      53-
 mid.  surface     4.0969E-01  3.2381E-01 -7.5742E-01 -4.0576E-02  2.0734E-01  9.9200E-02
     124-
 mid.  surface     3.3400E-01  3.4950E-01 -7.0672E-01 -3.3504E-02  5.0318E-02  1.3551E-01
     125-
 mid.  surface     3.0495E-01  4.0066E-01 -6.2463E-01  1.6901E-02  1.9439E-02 -8.8126E-02
     148-
 mid.  surface     4.2516E-01  4.1107E-01 -8.4616E-01 -2.1584E-02  2.3151E-01  1.1786E-02
     164-
 mid.  surface     4.1947E-01  3.0970E-01 -8.1567E-01 -8.4881E-03  1.3770E-01 -8.0679E-03



 n o d a l  s t r e s s  c a l c u l a t i o n s   f o r   t i m e  s t e p      686   ( at time 9.77836E+01 )

 node (global)
          stress       sig-xx      sig-yy      sig-zz      sig-xy      sig-yz      sig-zx       plastic
                                                                                                 strain 
       1-
 mid.  surface     2.1144E+09  2.0917E+09 -4.6463E+08 -8.6349E+07 -7.6450E+07 -2.0894E+07  4.6849E+00
       2-
 mid.  surface     1.2836E+09  1.3321E+09 -1.1589E+09 -3.0715E+07 -3.5701E+07 -1.0364E+08  3.8763E+00
       8-
 mid.  surface    -1.9730E+09 -1.9966E+09 -1.2984E+09  3.3078E+07  5.9016E+07 -5.7523E+07 -1.6289E+00
       9-
 mid.  surface     2.8045E+09  2.6919E+09  1.5432E+09 -5.7259E+06 -3.4726E+08 -6.6029E+06  1.1271E+00
      10-
 mid.  surface     1.0325E+09  1.0292E+09  1.8882E+09  4.7880E+07 -2.3346E+08  1.7353E+07  1.1933E+00
      11-
 mid.  surface    -1.9714E+09 -1.8989E+09  4.7929E+08  8.4583E+07 -2.8142E+08 -5.9455E+07 -1.1929E+00
      12-
 mid.  surface    -8.6885E+08 -9.4367E+08 -1.8772E+09 -6.9030E+06 -1.4207E+08  3.9202E+06  3.0515E-01
      17-
 mid.  surface    -1.5064E+09 -1.5319E+09 -2.9238E+09 -4.4031E+07 -2.6164E+08 -1.2847E+08  1.8675E+00
      18-
 mid.  surface    -1.2255E+09 -1.2590E+09 -1.7616E+09  2.7519E+07 -4.0333E+07 -4.6884E+07 -2.4307E-01
      19-
 mid.  surface    -1.0717E+09 -1.1076E+09 -2.5620E+09 -2.3603E+07 -1.0393E+08 -7.3104E+07  2.2830E+00
      20-
 mid.  surface     4.8716E+08  4.5105E+08 -1.0719E+09 -7.0836E+07  2.5004E+08 -9.2074E+06  1.7137E+00
      21-
 mid.  surface     2.1012E+08  1.6174E+08 -9.7653E+08 -6.6428E+07  6.9900E+07  8.9078E+06  3.2556E-01
      22-
 mid.  surface     2.5672E+08  1.9558E+08  1.0342E+09  2.1857E+06  5.9628E+07  8.5313E+07 -2.9238E+00
      23-
 mid.  surface    -4.6405E+07 -4.9699E+06  1.7125E+09  4.1730E+07  2.7704E+08  5.1525E+07 -1.3500E+00
      52-
 mid.  surface     1.6112E+09  1.6212E+09  1.9106E+09  1.0913E+07  2.1797E+08  1.1448E+08  2.2228E+00
      53-
 mid.  surface    -1.1101E+09 -1.1544E+09 -2.6108E+09 -1.5788E+07  3.5950E+08  4.2834E+07  1.9387E+00
     124-
 mid.  surface     1.1972E+09  1.2230E+09  8.4013E+08 -2.3052E+07 -5.1055E+06 -1.8725E+07  5.6938E-01
     125-
 mid.  surface     1.7548E+09  1.7645E+09 -4.2438E+08 -8.1776E+07 -4.1856E+07  6.5745E+06  2.2339E+00
     148-
 mid.  surface    -2.4306E+09 -2.3722E+09 -1.4530E+09  1.3780E+07  2.4802E+08 -1.8527E+07 -2.0511E-01
     164-
 mid.  surface     2.8404E+09  2.8857E+09  3.5750E+09 -3.0061E+07 -1.2651E+08  4.0108E+07  1.3092E+00



 n o d a l  s t r a i n  c a l c u l a t i o n s   f o r   t i m e  s t e p      686   ( at time 9.77836E+01 )

 node (global)
          strain       eps-xx      eps-yy      eps-zz      eps-xy      eps-yz      eps-zx       
       1-
 mid.  surface     3.3537E-01  4.7689E-01 -7.0379E-01 -3.5092E-02 -3.3539E-02  2.4674E-02
       2-
 mid.  surface     3.5843E-01  4.1470E-01 -8.3792E-01 -6.4446E-02  4.3974E-02  7.4614E-02
       8-
 mid.  surface     4.6666E-01  4.7257E-01 -9.1715E-01  1.2195E-02 -1.5617E-01  5.4769E-03
       9-
 mid.  surface     4.4934E-01  3.2825E-01 -8.5836E-01  7.6784E-04 -1.3297E-01 -2.2699E-02
      10-
 mid.  surface     4.1512E-01  2.7945E-01 -6.5017E-01 -7.0352E-03 -1.9376E-01 -2.7278E-02
      11-
 mid.  surface     3.7806E-01  3.3872E-01 -7.1410E-01 -3.4649E-02 -1.2347E-01  3.6816E-02
      12-
 mid.  surface     4.0082E-01  4.7521E-01 -8.8618E-01  2.7076E-02 -3.5626E-02 -1.9456E-02
      17-
 mid.  surface     3.7036E-01  4.0394E-01 -7.8957E-01 -8.0018E-02 -1.3475E-01 -1.7121E-02
      18-
 mid.  surface     4.3678E-01  4.0213E-01 -7.8567E-01 -6.4432E-03 -1.8749E-01 -4.7111E-03
      19-
 mid.  surface     3.9070E-01  4.4913E-01 -9.6461E-01 -3.9309E-03 -5.6284E-03 -3.2541E-02
      20-
 mid.  surface     3.8825E-01  3.6372E-01 -7.7132E-01 -7.6063E-02  8.4332E-02  6.0632E-03
      21-
 mid.  surface     4.3445E-01  3.7449E-01 -9.3983E-01  1.3030E-02  9.5082E-02 -3.3320E-02
      22-
 mid.  surface     4.2340E-01  4.2730E-01 -8.4213E-01  5.5552E-02  7.6299E-02  4.1862E-02
      23-
 mid.  surface     3.7668E-01  3.3783E-01 -7.3105E-01 -3.3309E-02  1.5620E-01  4.3210E-02
      52-
 mid.  surface     4.1376E-01  2.8327E-01 -7.0066E-01 -2.1391E-02  8.9190E-02  5.4906E-02
      53-
 mid.  surface     4.3131E-01  3.4237E-01 -7.9262E-01 -4.3911E-02  2.3521E-01  1.1769E-01
     124-
 mid.  surface     3.5442E-01  3.6671E-01 -7.4345E-01 -3.1686E-02  3.5749E-02  1.4640E-01
     125-
 mid.  surface     3.2149E-01  4.1652E-01 -6.4483E-01  2.4699E-02  2.5169E-02 -1.0321E-01
     148-
 mid.  surface     4.5171E-01  4.2789E-01 -8.9967E-01 -2.3849E-02  2.8786E-01  1.5249E-02
     164-
 mid.  surface     4.4257E-01  3.2229E-01 -8.4767E-01 -1.5777E-02  1.8909E-01 -1.1983E-02



 n o d a l  s t r e s s  c a l c u l a t i o n s   f o r   t i m e  s t e p      692   ( at time 1.00000E+02 )

 node (global)
          stress       sig-xx      sig-yy      sig-zz      sig-xy      sig-yz      sig-zx       plastic
                                                                                                 strain 
       1-
 mid.  surface     8.6487E+08  9.5923E+08 -1.0301E+09  2.5577E+07 -5.5534E+07 -5.1048E+07  4.7433E+00
       2-
 mid.  surface     1.2479E+09  1.2159E+09 -8.2683E+08 -1.7462E+07 -5.3814E+07 -2.2559E+07  3.9277E+00
       8-
 mid.  surface    -8.9618E+08 -9.0045E+08 -2.0936E+08  9.2002E+06  3.2771E+07 -4.0320E+07 -1.6614E+00
       9-
 mid.  surface     1.9110E+09  1.8737E+09  6.6981E+08 -1.1915E+07 -2.8708E+08  1.2943E+07  1.1752E+00
      10-
 mid.  surface     9.2359E+08  8.8890E+08  1.5553E+09  9.0629E+06 -1.7489E+08  3.5885E+07  1.1686E+00
      11-
 mid.  surface    -2.0133E+09 -1.9945E+09 -1.1245E+08  1.4289E+07 -1.2690E+08 -1.6461E+07 -1.2661E+00
      12-
 mid.  surface    -8.9239E+08 -9.3460E+08 -2.4658E+09  4.9003E+07 -9.5335E+07 -2.9380E+07  3.5701E-01
      17-
 mid.  surface    -1.7001E+09 -1.7649E+09 -3.2409E+09  8.5971E+06 -6.9329E+07 -3.6023E+07  1.9165E+00
      18-
 mid.  surface    -9.8803E+08 -1.0072E+09 -1.2625E+09  1.7306E+07  8.0666E+06 -1.3106E+07 -2.3638E-01
      19-
 mid.  surface     1.1029E+08 -6.7460E+07 -2.4564E+09  7.4169E+06 -8.2459E+07 -2.6723E+07  2.3550E+00
      20-
 mid.  surface    -1.8202E+08 -1.0281E+08 -6.2619E+08 -5.1971E+07  1.5446E+08  8.5361E+05  1.7416E+00
      21-
 mid.  surface     2.1444E+08  1.3676E+08 -7.7236E+08 -7.3443E+07  3.2390E+07  7.0967E+06  3.5991E-01
      22-
 mid.  surface    -4.7024E+08 -4.2164E+08  9.6494E+08 -1.0709E+07  3.3620E+07  2.5554E+07 -2.9544E+00
      23-
 mid.  surface    -5.6730E+08 -4.3066E+08  1.8373E+09 -3.2905E+07  1.2162E+08  2.9478E+07 -1.4228E+00
      52-
 mid.  surface     1.6299E+09  1.6357E+09  1.5785E+09  2.4947E+07  1.0270E+08  5.4995E+07  2.2283E+00
      53-
 mid.  surface    -5.9769E+08 -5.7368E+08 -2.3069E+09  1.8568E+07  1.9826E+08 -2.5249E+06  2.0021E+00
     124-
 mid.  surface     1.3954E+09  1.2944E+09  5.2536E+08 -5.8962E+07  2.6185E+07 -2.0174E+06  5.8954E-01
     125-
 mid.  surface     4.2653E+08  4.7003E+08 -1.3260E+09  1.6823E+07 -1.0201E+07 -4.5893E+07  2.2983E+00
     148-
 mid.  surface    -1.4962E+09 -1.4664E+09 -5.2180E+08  8.9759E+06  1.9853E+08 -2.7949E+07 -2.4452E-01
     164-
 mid.  surface     2.3478E+09  2.3685E+09  3.0710E+09 -1.6439E+07 -9.2915E+07  1.3501E+07  1.2935E+00



 n o d a l  s t r a i n  c a l c u l a t i o n s   f o r   t i m e  s t e p      692   ( at time 1.00000E+02 )

 node (global)
          strain       eps-xx      eps-yy      eps-zz      eps-xy      eps-yz      eps-zx       
       1-
 mid.  surface     3.4203E-01  4.8109E-01 -7.2020E-01 -3.7405E-02 -3.6669E-02  2.3880E-02
       2-
 mid.  surface     3.6510E-01  4.2024E-01 -8.5438E-01 -6.4069E-02  3.9729E-02  7.8629E-02
       8-
 mid.  surface     4.7322E-01  4.7681E-01 -9.2272E-01  1.1633E-02 -1.5630E-01  7.5908E-03
       9-
 mid.  surface     4.5752E-01  3.3476E-01 -8.7945E-01  6.5136E-04 -1.2721E-01 -2.3182E-02
      10-
 mid.  surface     4.2290E-01  2.8891E-01 -6.7042E-01 -6.1278E-03 -1.9578E-01 -2.7387E-02
      11-
 mid.  surface     3.8646E-01  3.4648E-01 -7.2843E-01 -3.2633E-02 -1.2793E-01  3.6656E-02
      12-
 mid.  surface     4.0579E-01  4.8203E-01 -8.9929E-01  2.5322E-02 -3.5683E-02 -2.0498E-02
      17-
 mid.  surface     3.8031E-01  4.0959E-01 -8.0639E-01 -7.7834E-02 -1.4273E-01 -2.2119E-02
      18-
 mid.  surface     4.4335E-01  4.0962E-01 -8.0285E-01 -6.5047E-03 -1.9220E-01 -2.8883E-03
      19-
 mid.  surface     3.9680E-01  4.5641E-01 -9.7454E-01 -4.2103E-03 -7.8965E-03 -3.4397E-02
      20-
 mid.  surface     3.9605E-01  3.6688E-01 -7.8700E-01 -7.6729E-02  7.8813E-02  9.0572E-03
      21-
 mid.  surface     4.4045E-01  3.8013E-01 -9.4979E-01  1.3279E-02  9.9786E-02 -3.3724E-02
      22-
 mid.  surface     4.2774E-01  4.3350E-01 -8.5604E-01  5.4299E-02  8.2724E-02  4.1936E-02
      23-
 mid.  surface     3.8267E-01  3.4162E-01 -7.4322E-01 -3.4572E-02  1.5836E-01  4.8985E-02
      52-
 mid.  surface     4.1978E-01  2.9057E-01 -7.1871E-01 -2.1988E-02  9.8960E-02  5.8165E-02
      53-
 mid.  surface     4.3711E-01  3.4844E-01 -8.0681E-01 -4.4998E-02  2.3526E-01  1.1446E-01
     124-
 mid.  surface     3.6207E-01  3.6996E-01 -7.5710E-01 -2.8511E-02  3.6897E-02  1.5130E-01
     125-
 mid.  surface     3.3005E-01  4.1971E-01 -6.5907E-01  2.5263E-02  2.3903E-02 -9.7108E-02
     148-
 mid.  surface     4.5746E-01  4.3345E-01 -9.0312E-01 -2.4790E-02  2.8913E-01  1.4526E-02
     164-
 mid.  surface     4.5035E-01  3.2848E-01 -8.6481E-01 -1.5004E-02  1.9560E-01 -2.0291E-02
