 LS-DYNA keyword deck by LS-PrePost                                      
                    ls-dyna smp d R14 R14.1.1s_1_ef50e1 date 06/16/2024

{BEGIN LEGEND}
 Entity #        Title
        1                                                                                     
        2                                                                                     
        3                                                                                     
        4                                                                                     
        5                                                                                     
        6                                                                                     
        7                                                                                     
        8                                                                                     
        9                                                                                     
       10                                                                                     
       11                                                                                     
       12                                                                                     
       13                                                                                     
       14                                                                                     
       15                                                                                     
       16                                                                                     
       17                                                                                     
       18                                                                                     
       19                                                                                     
      220                                                                                     
      221                                                                                     
      222                                                                                     
      223                                                                                     
      248                                                                                     
      249                                                                                     
      286                                                                                     
      287                                                                                     
      288                                                                                     
      301                                                                                     
      314                                                                                     
      363                                                                                     
      364                                                                                     
      365                                                                                     
      366                                                                                     
      379                                                                                     
      404                                                                                     
      405                                                                                     
      418                                                                                     
      438                                                                                     
      439                                                                                     
      440                                                                                     
      441                                                                                     
      442                                                                                     
      443                                                                                     
      444                                                                                     
      591                                                                                     
      592                                                                                     
      595                                                                                     
      596                                                                                     
      599                                                                                     
      600                                                                                     
      603                                                                                     
      604                                                                                     
      638                                                                                     
      639                                                                                     
      641                                                                                     
      642                                                                                     
      644                                                                                     
      645                                                                                     
      647                                                                                     
      648                                                                                     
      674                                                                                     
      676                                                                                     
      678                                                                                     
      680                                                                                     
      821                                                                                     
      822                                                                                     
      823                                                                                     
      824                                                                                     
      850                                                                                     
      852                                                                                     
      854                                                                                     
      856                                                                                     
{END LEGEND}




 n o d a l   p r i n t   o u t   f o r   t i m e  s t e p       1                              ( at time 0.0000000E+00 )

 nodal point  x-disp     y-disp      z-disp      x-vel       y-vel       z-vel      x-accl      y-accl      z-accl      x-coor      y-coor      z-coor
        1  0.00000E+00 0.00000E+00 0.00000E+00 0.00000E+00 0.00000E+00 0.00000E+00 0.00000E+00 0.00000E+00 0.00000E+00 3.17500E-03 0.00000E+00-1.78000E-18
        2  0.00000E+00 0.00000E+00 0.00000E+00 0.00000E+00 0.00000E+00 0.00000E+00 0.00000E+00 0.00000E+00 0.00000E+00 2.38130E-03 0.00000E+00 0.00000E+00
        3  0.00000E+00 0.00000E+00 0.00000E+00 0.00000E+00 0.00000E+00 0.00000E+00 0.00000E+00 0.00000E+00 0.00000E+00 1.58750E-03 0.00000E+00 0.00000E+00
        4  0.00000E+00 0.00000E+00 0.00000E+00 0.00000E+00 0.00000E+00 0.00000E+00 0.00000E+00 0.00000E+00 0.00000E+00 7.93750E-04 0.00000E+00 0.00000E+00
        5  0.00000E+00 0.00000E+00 0.00000E+00 0.00000E+00 0.00000E+00 0.00000E+00 0.00000E+00 0.00000E+00 0.00000E+00 0.00000E+00 0.00000E+00 0.00000E+00
        6  0.00000E+00 0.00000E+00 0.00000E+00 0.00000E+00 0.00000E+00 0.00000E+00 0.00000E+00 0.00000E+00 0.00000E+00 4.86000E-20 7.93750E-04 0.00000E+00
        7  0.00000E+00 0.00000E+00 0.00000E+00 0.00000E+00 0.00000E+00 0.00000E+00 0.00000E+00 0.00000E+00 0.00000E+00 9.72100E-20 1.58750E-03 0.00000E+00
        8  0.00000E+00 0.00000E+00 0.00000E+00 0.00000E+00 0.00000E+00 0.00000E+00 0.00000E+00 0.00000E+00 0.00000E+00 1.45800E-19 2.38130E-03 0.00000E+00
        9  0.00000E+00 0.00000E+00 0.00000E+00 0.00000E+00 0.00000E+00 0.00000E+00 0.00000E+00 0.00000E+00 0.00000E+00 1.94400E-19 3.17500E-03 0.00000E+00
       10  0.00000E+00 0.00000E+00 0.00000E+00 0.00000E+00 0.00000E+00 0.00000E+00 0.00000E+00 0.00000E+00 0.00000E+00 1.21500E-03 2.93330E-03 0.00000E+00
       11  0.00000E+00 0.00000E+00 0.00000E+00 0.00000E+00 0.00000E+00 0.00000E+00 0.00000E+00 0.00000E+00 0.00000E+00 2.24510E-03 2.24510E-03 0.00000E+00
       12  0.00000E+00 0.00000E+00 0.00000E+00 0.00000E+00 0.00000E+00 0.00000E+00 0.00000E+00 0.00000E+00 0.00000E+00 2.93330E-03 1.21500E-03 0.00000E+00
       13  0.00000E+00 0.00000E+00 0.00000E+00 0.00000E+00 0.00000E+00 0.00000E+00 0.00000E+00 0.00000E+00 0.00000E+00 1.30830E-03 1.35190E-03 0.00000E+00
       14  0.00000E+00 0.00000E+00 0.00000E+00 0.00000E+00 0.00000E+00 0.00000E+00 0.00000E+00 0.00000E+00 0.00000E+00 1.48830E-03 7.06977E-04 0.00000E+00
       15  0.00000E+00 0.00000E+00 0.00000E+00 0.00000E+00 0.00000E+00 0.00000E+00 0.00000E+00 0.00000E+00 0.00000E+00 6.69510E-04 1.50700E-03 0.00000E+00
       16  0.00000E+00 0.00000E+00 0.00000E+00 0.00000E+00 0.00000E+00 0.00000E+00 0.00000E+00 0.00000E+00 0.00000E+00 7.53638E-04 7.82337E-04 0.00000E+00
       17  0.00000E+00 0.00000E+00 0.00000E+00 0.00000E+00 0.00000E+00 0.00000E+00 0.00000E+00 0.00000E+00 0.00000E+00 1.73630E-03 1.76750E-03 0.00000E+00
       18  0.00000E+00 0.00000E+00 0.00000E+00 0.00000E+00 0.00000E+00 0.00000E+00 0.00000E+00 0.00000E+00 0.00000E+00 9.20131E-04 2.19110E-03 0.00000E+00
       19  0.00000E+00 0.00000E+00 0.00000E+00 0.00000E+00 0.00000E+00 0.00000E+00 0.00000E+00 0.00000E+00 0.00000E+00 2.16330E-03 9.50859E-04 0.00000E+00
      220  0.00000E+00 0.00000E+00 0.00000E+00 0.00000E+00 0.00000E+00 0.00000E+00 0.00000E+00 0.00000E+00 0.00000E+00 2.13900E-19 3.49250E-03 2.54000E-02
      221  0.00000E+00 0.00000E+00 0.00000E+00 0.00000E+00 0.00000E+00 0.00000E+00 0.00000E+00 0.00000E+00 0.00000E+00 1.47250E-03 3.31440E-03 2.54000E-02
      222  0.00000E+00 0.00000E+00 0.00000E+00 0.00000E+00 0.00000E+00 0.00000E+00 0.00000E+00 0.00000E+00 0.00000E+00 2.02380E-03 4.81920E-03 2.54000E-02
      223  0.00000E+00 0.00000E+00 0.00000E+00 0.00000E+00 0.00000E+00 0.00000E+00 0.00000E+00 0.00000E+00 0.00000E+00 3.20800E-19 5.23880E-03 2.54000E-02
      248  0.00000E+00 0.00000E+00 0.00000E+00 0.00000E+00 0.00000E+00 0.00000E+00 0.00000E+00 0.00000E+00 0.00000E+00 2.67340E-03 6.45320E-03 2.54000E-02
      249  0.00000E+00 0.00000E+00 0.00000E+00 0.00000E+00 0.00000E+00 0.00000E+00 0.00000E+00 0.00000E+00 0.00000E+00 4.27700E-19 6.98500E-03 2.54000E-02
      286  0.00000E+00 0.00000E+00 0.00000E+00 0.00000E+00 0.00000E+00 0.00000E+00 0.00000E+00 0.00000E+00 0.00000E+00 3.27330E-03 1.55480E-03 2.54000E-02
      287  0.00000E+00 0.00000E+00 0.00000E+00 0.00000E+00 0.00000E+00 0.00000E+00 0.00000E+00 0.00000E+00 0.00000E+00 2.87770E-03 2.97340E-03 2.54000E-02
      288  0.00000E+00 0.00000E+00 0.00000E+00 0.00000E+00 0.00000E+00 0.00000E+00 0.00000E+00 0.00000E+00 0.00000E+00 1.65770E-03 1.72080E-03 2.54000E-02
      301  0.00000E+00 0.00000E+00 0.00000E+00 0.00000E+00 0.00000E+00 0.00000E+00 0.00000E+00 0.00000E+00 0.00000E+00 3.81930E-03 3.88770E-03 2.54000E-02
      314  0.00000E+00 0.00000E+00 0.00000E+00 0.00000E+00 0.00000E+00 0.00000E+00 0.00000E+00 0.00000E+00 0.00000E+00 4.93910E-03 4.93910E-03 2.54000E-02
      363  0.00000E+00 0.00000E+00 0.00000E+00 0.00000E+00 0.00000E+00 0.00000E+00 0.00000E+00 0.00000E+00 0.00000E+00 6.45340E-03 2.67290E-03 2.54000E-02
      364  0.00000E+00 0.00000E+00 0.00000E+00 0.00000E+00 0.00000E+00 0.00000E+00 0.00000E+00 0.00000E+00 0.00000E+00 4.75810E-03 2.09120E-03 2.54000E-02
      365  0.00000E+00 0.00000E+00 0.00000E+00 0.00000E+00 0.00000E+00 0.00000E+00 0.00000E+00 0.00000E+00 0.00000E+00 5.23880E-03 0.00000E+00 2.54000E-02
      366  0.00000E+00 0.00000E+00 0.00000E+00 0.00000E+00 0.00000E+00 0.00000E+00 0.00000E+00 0.00000E+00 0.00000E+00 6.98500E-03 0.00000E+00 2.54000E-02
      379  0.00000E+00 0.00000E+00 0.00000E+00 0.00000E+00 0.00000E+00 0.00000E+00 0.00000E+00 0.00000E+00 0.00000E+00 1.06900E-19 1.74630E-03 2.54000E-02
      404  0.00000E+00 0.00000E+00 0.00000E+00 0.00000E+00 0.00000E+00 0.00000E+00 0.00000E+00 0.00000E+00 0.00000E+00 1.74630E-03 0.00000E+00 2.54000E-02
      405  0.00000E+00 0.00000E+00 0.00000E+00 0.00000E+00 0.00000E+00 0.00000E+00 0.00000E+00 0.00000E+00 0.00000E+00 0.00000E+00 0.00000E+00 2.54000E-02
      418  0.00000E+00 0.00000E+00 0.00000E+00 0.00000E+00 0.00000E+00 0.00000E+00 0.00000E+00 0.00000E+00 0.00000E+00 3.49250E-03 0.00000E+00 2.54000E-02
      438  0.00000E+00 0.00000E+00 0.00000E+00 0.00000E+00 0.00000E+00 0.00000E+00 0.00000E+00 0.00000E+00 0.00000E+00 1.27000E-02 0.00000E+00 2.54000E-02
      439  0.00000E+00 0.00000E+00 0.00000E+00 0.00000E+00 0.00000E+00 0.00000E+00 0.00000E+00 0.00000E+00 0.00000E+00 1.18836E-02 0.00000E+00 2.54000E-02
      440  0.00000E+00 0.00000E+00 0.00000E+00 0.00000E+00 0.00000E+00 0.00000E+00 0.00000E+00 0.00000E+00 0.00000E+00 1.10671E-02 0.00000E+00 2.54000E-02
      441  0.00000E+00 0.00000E+00 0.00000E+00 0.00000E+00 0.00000E+00 0.00000E+00 0.00000E+00 0.00000E+00 0.00000E+00 1.02507E-02 0.00000E+00 2.54000E-02
      442  0.00000E+00 0.00000E+00 0.00000E+00 0.00000E+00 0.00000E+00 0.00000E+00 0.00000E+00 0.00000E+00 0.00000E+00 9.43430E-03 0.00000E+00 2.54000E-02
      443  0.00000E+00 0.00000E+00 0.00000E+00 0.00000E+00 0.00000E+00 0.00000E+00 0.00000E+00 0.00000E+00 0.00000E+00 8.61790E-03 0.00000E+00 2.54000E-02
      444  0.00000E+00 0.00000E+00 0.00000E+00 0.00000E+00 0.00000E+00 0.00000E+00 0.00000E+00 0.00000E+00 0.00000E+00 7.80140E-03 0.00000E+00 2.54000E-02
      591  0.00000E+00 0.00000E+00 0.00000E+00 0.00000E+00 0.00000E+00 0.00000E+00 0.00000E+00 0.00000E+00 0.00000E+00 7.97270E-03 3.27150E-03 2.54000E-02
      592  0.00000E+00 0.00000E+00 0.00000E+00 0.00000E+00 0.00000E+00 0.00000E+00 0.00000E+00 0.00000E+00 0.00000E+00 8.73230E-03 3.57080E-03 2.54000E-02
      595  0.00000E+00 0.00000E+00 0.00000E+00 0.00000E+00 0.00000E+00 0.00000E+00 0.00000E+00 0.00000E+00 0.00000E+00 6.09600E-03 6.09150E-03 2.54000E-02
      596  0.00000E+00 0.00000E+00 0.00000E+00 0.00000E+00 0.00000E+00 0.00000E+00 0.00000E+00 0.00000E+00 0.00000E+00 6.67450E-03 6.66760E-03 2.54000E-02
      599  0.00000E+00 0.00000E+00 0.00000E+00 0.00000E+00 0.00000E+00 0.00000E+00 0.00000E+00 0.00000E+00 0.00000E+00 3.27630E-03 7.97070E-03 2.54000E-02
      600  0.00000E+00 0.00000E+00 0.00000E+00 0.00000E+00 0.00000E+00 0.00000E+00 0.00000E+00 0.00000E+00 0.00000E+00 3.57780E-03 8.72950E-03 2.54000E-02
      603  0.00000E+00 0.00000E+00 0.00000E+00 0.00000E+00 0.00000E+00 0.00000E+00 0.00000E+00 0.00000E+00 0.00000E+00 5.27700E-19 8.61790E-03 2.54000E-02
      604  0.00000E+00 0.00000E+00 0.00000E+00 0.00000E+00 0.00000E+00 0.00000E+00 0.00000E+00 0.00000E+00 0.00000E+00 5.77700E-19 9.43430E-03 2.54000E-02
      638  0.00000E+00 0.00000E+00 0.00000E+00 0.00000E+00 0.00000E+00 0.00000E+00 0.00000E+00 0.00000E+00 0.00000E+00 1.02517E-02 4.16940E-03 2.54000E-02
      639  0.00000E+00 0.00000E+00 0.00000E+00 0.00000E+00 0.00000E+00 0.00000E+00 0.00000E+00 0.00000E+00 0.00000E+00 1.10113E-02 4.46870E-03 2.54000E-02
      641  0.00000E+00 0.00000E+00 0.00000E+00 0.00000E+00 0.00000E+00 0.00000E+00 0.00000E+00 0.00000E+00 0.00000E+00 7.83140E-03 7.81990E-03 2.54000E-02
      642  0.00000E+00 0.00000E+00 0.00000E+00 0.00000E+00 0.00000E+00 0.00000E+00 0.00000E+00 0.00000E+00 0.00000E+00 8.40990E-03 8.39600E-03 2.54000E-02
      644  0.00000E+00 0.00000E+00 0.00000E+00 0.00000E+00 0.00000E+00 0.00000E+00 0.00000E+00 0.00000E+00 0.00000E+00 4.18070E-03 1.02471E-02 2.54000E-02
      645  0.00000E+00 0.00000E+00 0.00000E+00 0.00000E+00 0.00000E+00 0.00000E+00 0.00000E+00 0.00000E+00 0.00000E+00 4.48220E-03 1.10058E-02 2.54000E-02
      647  0.00000E+00 0.00000E+00 0.00000E+00 0.00000E+00 0.00000E+00 0.00000E+00 0.00000E+00 0.00000E+00 0.00000E+00 6.77700E-19 1.10671E-02 2.54000E-02
      648  0.00000E+00 0.00000E+00 0.00000E+00 0.00000E+00 0.00000E+00 0.00000E+00 0.00000E+00 0.00000E+00 0.00000E+00 7.27700E-19 1.18836E-02 2.54000E-02
      674  0.00000E+00 0.00000E+00 0.00000E+00 0.00000E+00 0.00000E+00 0.00000E+00 0.00000E+00 0.00000E+00 0.00000E+00 7.21300E-03 2.97220E-03 2.54000E-02
      676  0.00000E+00 0.00000E+00 0.00000E+00 0.00000E+00 0.00000E+00 0.00000E+00 0.00000E+00 0.00000E+00 0.00000E+00 5.51760E-03 5.51530E-03 2.54000E-02
      678  0.00000E+00 0.00000E+00 0.00000E+00 0.00000E+00 0.00000E+00 0.00000E+00 0.00000E+00 0.00000E+00 0.00000E+00 2.97480E-03 7.21200E-03 2.54000E-02
      680  0.00000E+00 0.00000E+00 0.00000E+00 0.00000E+00 0.00000E+00 0.00000E+00 0.00000E+00 0.00000E+00 0.00000E+00 4.77700E-19 7.80140E-03 2.54000E-02
      821  0.00000E+00 0.00000E+00 0.00000E+00 0.00000E+00 0.00000E+00 0.00000E+00 0.00000E+00 0.00000E+00 0.00000E+00 9.49200E-03 3.87010E-03 2.54000E-02
      822  0.00000E+00 0.00000E+00 0.00000E+00 0.00000E+00 0.00000E+00 0.00000E+00 0.00000E+00 0.00000E+00 0.00000E+00 7.25290E-03 7.24380E-03 2.54000E-02
      823  0.00000E+00 0.00000E+00 0.00000E+00 0.00000E+00 0.00000E+00 0.00000E+00 0.00000E+00 0.00000E+00 0.00000E+00 3.87930E-03 9.48830E-03 2.54000E-02
      824  0.00000E+00 0.00000E+00 0.00000E+00 0.00000E+00 0.00000E+00 0.00000E+00 0.00000E+00 0.00000E+00 0.00000E+00 6.27700E-19 1.02507E-02 2.54000E-02
      850  0.00000E+00 0.00000E+00 0.00000E+00 0.00000E+00 0.00000E+00 0.00000E+00 0.00000E+00 0.00000E+00 0.00000E+00 1.17710E-02 4.76810E-03 2.54000E-02
      852  0.00000E+00 0.00000E+00 0.00000E+00 0.00000E+00 0.00000E+00 0.00000E+00 0.00000E+00 0.00000E+00 0.00000E+00 8.98830E-03 8.97220E-03 2.54000E-02
      854  0.00000E+00 0.00000E+00 0.00000E+00 0.00000E+00 0.00000E+00 0.00000E+00 0.00000E+00 0.00000E+00 0.00000E+00 4.78370E-03 1.17646E-02 2.54000E-02
      856  0.00000E+00 0.00000E+00 0.00000E+00 0.00000E+00 0.00000E+00 0.00000E+00 0.00000E+00 0.00000E+00 0.00000E+00 7.77700E-19 1.27000E-02 2.54000E-02



 n o d a l   p r i n t   o u t   f o r   t i m e  s t e p      10                              ( at time 1.2924466E+00 )

 nodal point  x-disp     y-disp      z-disp      x-vel       y-vel       z-vel      x-accl      y-accl      z-accl      x-coor      y-coor      z-coor
        1  3.25876E-06 0.00000E+00 0.00000E+00 0.00000E+00 0.00000E+00 0.00000E+00 0.00000E+00 0.00000E+00 0.00000E+00 3.17826E-03 0.00000E+00-1.78000E-18
        2  2.09847E-06 0.00000E+00 0.00000E+00 0.00000E+00 0.00000E+00 0.00000E+00 0.00000E+00 0.00000E+00 0.00000E+00 2.38340E-03 0.00000E+00 0.00000E+00
        3  1.27746E-06 0.00000E+00 0.00000E+00 0.00000E+00 0.00000E+00 0.00000E+00 0.00000E+00 0.00000E+00 0.00000E+00 1.58878E-03 0.00000E+00 0.00000E+00
        4  6.09659E-07 0.00000E+00 0.00000E+00 0.00000E+00 0.00000E+00 0.00000E+00 0.00000E+00 0.00000E+00 0.00000E+00 7.94360E-04 0.00000E+00 0.00000E+00
        5  0.00000E+00 0.00000E+00 0.00000E+00 0.00000E+00 0.00000E+00 0.00000E+00 0.00000E+00 0.00000E+00 0.00000E+00 0.00000E+00 0.00000E+00 0.00000E+00
        6  0.00000E+00 6.15394E-07 0.00000E+00 0.00000E+00 0.00000E+00 0.00000E+00 0.00000E+00 0.00000E+00 0.00000E+00 4.86000E-20 7.94365E-04 0.00000E+00
        7  0.00000E+00 1.31633E-06 0.00000E+00 0.00000E+00 0.00000E+00 0.00000E+00 0.00000E+00 0.00000E+00 0.00000E+00 9.72100E-20 1.58882E-03 0.00000E+00
        8  0.00000E+00 2.22828E-06 0.00000E+00 0.00000E+00 0.00000E+00 0.00000E+00 0.00000E+00 0.00000E+00 0.00000E+00 1.45800E-19 2.38353E-03 0.00000E+00
        9  0.00000E+00 3.47108E-06 0.00000E+00 0.00000E+00 0.00000E+00 0.00000E+00 0.00000E+00 0.00000E+00 0.00000E+00 1.94400E-19 3.17847E-03 0.00000E+00
       10  1.22417E-06 3.20207E-06 0.00000E+00 0.00000E+00 0.00000E+00 0.00000E+00 0.00000E+00 0.00000E+00 0.00000E+00 1.21622E-03 2.93650E-03 0.00000E+00
       11  2.44233E-06 2.75952E-06 0.00000E+00 0.00000E+00 0.00000E+00 0.00000E+00 0.00000E+00 0.00000E+00 0.00000E+00 2.24754E-03 2.24786E-03 0.00000E+00
       12  3.10702E-06 1.55142E-06 0.00000E+00 0.00000E+00 0.00000E+00 0.00000E+00 0.00000E+00 0.00000E+00 0.00000E+00 2.93641E-03 1.21655E-03 0.00000E+00
       13  1.22656E-06 1.25676E-06 0.00000E+00 0.00000E+00 0.00000E+00 0.00000E+00 0.00000E+00 0.00000E+00 0.00000E+00 1.30953E-03 1.35316E-03 0.00000E+00
       14  1.27635E-06 6.31145E-07 0.00000E+00 0.00000E+00 0.00000E+00 0.00000E+00 0.00000E+00 0.00000E+00 0.00000E+00 1.48958E-03 7.07608E-04 0.00000E+00
       15  5.95037E-07 1.25082E-06 0.00000E+00 0.00000E+00 0.00000E+00 0.00000E+00 0.00000E+00 0.00000E+00 0.00000E+00 6.70105E-04 1.50825E-03 0.00000E+00
       16  6.15232E-07 6.19178E-07 0.00000E+00 0.00000E+00 0.00000E+00 0.00000E+00 0.00000E+00 0.00000E+00 0.00000E+00 7.54253E-04 7.82956E-04 0.00000E+00
       17  1.81472E-06 1.72847E-06 0.00000E+00 0.00000E+00 0.00000E+00 0.00000E+00 0.00000E+00 0.00000E+00 0.00000E+00 1.73811E-03 1.76923E-03 0.00000E+00
       18  9.11765E-07 1.99589E-06 0.00000E+00 0.00000E+00 0.00000E+00 0.00000E+00 0.00000E+00 0.00000E+00 0.00000E+00 9.21043E-04 2.19310E-03 0.00000E+00
       19  2.04300E-06 8.58035E-07 0.00000E+00 0.00000E+00 0.00000E+00 0.00000E+00 0.00000E+00 0.00000E+00 0.00000E+00 2.16534E-03 9.51717E-04 0.00000E+00
      220  0.00000E+00 3.77843E-07-2.58489E-05 0.00000E+00 0.00000E+00 0.00000E+00 0.00000E+00 0.00000E+00 0.00000E+00 2.13900E-19 3.49288E-03 2.53742E-02
      221  1.01689E-07 3.18231E-07-2.58489E-05 0.00000E+00 0.00000E+00 0.00000E+00 0.00000E+00 0.00000E+00 0.00000E+00 1.47260E-03 3.31472E-03 2.53742E-02
      222  1.82316E-07 4.60455E-07-2.58489E-05 0.00000E+00 0.00000E+00 0.00000E+00 0.00000E+00 0.00000E+00 0.00000E+00 2.02398E-03 4.81966E-03 2.53742E-02
      223  0.00000E+00 5.97184E-07-2.58489E-05 0.00000E+00 0.00000E+00 0.00000E+00 0.00000E+00 0.00000E+00 0.00000E+00 3.20800E-19 5.23940E-03 2.53742E-02
      248  2.59451E-07 7.57475E-07-2.58489E-05 0.00000E+00 0.00000E+00 0.00000E+00 0.00000E+00 0.00000E+00 0.00000E+00 2.67366E-03 6.45396E-03 2.53742E-02
      249  0.00000E+00 8.76995E-07-2.58489E-05 0.00000E+00 0.00000E+00 0.00000E+00 0.00000E+00 0.00000E+00 0.00000E+00 4.27700E-19 6.98588E-03 2.53742E-02
      286  2.72628E-07 1.23192E-07-2.58489E-05 0.00000E+00 0.00000E+00 0.00000E+00 0.00000E+00 0.00000E+00 0.00000E+00 3.27357E-03 1.55492E-03 2.53742E-02
      287  2.51980E-07 3.05936E-07-2.58489E-05 0.00000E+00 0.00000E+00 0.00000E+00 0.00000E+00 0.00000E+00 0.00000E+00 2.87795E-03 2.97371E-03 2.53742E-02
      288  1.63894E-07 2.15880E-07-2.58489E-05 0.00000E+00 0.00000E+00 0.00000E+00 0.00000E+00 0.00000E+00 0.00000E+00 1.65786E-03 1.72102E-03 2.53742E-02
      301  3.61701E-07 4.43920E-07-2.58489E-05 0.00000E+00 0.00000E+00 0.00000E+00 0.00000E+00 0.00000E+00 0.00000E+00 3.81966E-03 3.88814E-03 2.53742E-02
      314  4.78517E-07 5.76136E-07-2.58489E-05 0.00000E+00 0.00000E+00 0.00000E+00 0.00000E+00 0.00000E+00 0.00000E+00 4.93958E-03 4.93968E-03 2.53742E-02
      363  6.10329E-07 3.17316E-07-2.58489E-05 0.00000E+00 0.00000E+00 0.00000E+00 0.00000E+00 0.00000E+00 0.00000E+00 6.45401E-03 2.67322E-03 2.53742E-02
      364  3.76504E-07 2.38732E-07-2.58489E-05 0.00000E+00 0.00000E+00 0.00000E+00 0.00000E+00 0.00000E+00 0.00000E+00 4.75848E-03 2.09144E-03 2.53742E-02
      365  4.82963E-07 0.00000E+00-2.58489E-05 0.00000E+00 0.00000E+00 0.00000E+00 0.00000E+00 0.00000E+00 0.00000E+00 5.23928E-03 0.00000E+00 2.53742E-02
      366  6.66778E-07 0.00000E+00-2.58489E-05 0.00000E+00 0.00000E+00 0.00000E+00 0.00000E+00 0.00000E+00 0.00000E+00 6.98567E-03 0.00000E+00 2.53742E-02
      379  0.00000E+00 1.93256E-07-2.58489E-05 0.00000E+00 0.00000E+00 0.00000E+00 0.00000E+00 0.00000E+00 0.00000E+00 1.06900E-19 1.74649E-03 2.53742E-02
      404  1.55616E-07 0.00000E+00-2.58489E-05 0.00000E+00 0.00000E+00 0.00000E+00 0.00000E+00 0.00000E+00 0.00000E+00 1.74646E-03 0.00000E+00 2.53742E-02
      405  0.00000E+00 0.00000E+00-2.58489E-05 0.00000E+00 0.00000E+00 0.00000E+00 0.00000E+00 0.00000E+00 0.00000E+00 0.00000E+00 0.00000E+00 2.53742E-02
      418  3.09467E-07 0.00000E+00-2.58489E-05 0.00000E+00 0.00000E+00 0.00000E+00 0.00000E+00 0.00000E+00 0.00000E+00 3.49281E-03 0.00000E+00 2.53742E-02
      438  9.60733E-07 0.00000E+00-2.58489E-05 0.00000E+00 0.00000E+00 0.00000E+00 0.00000E+00 0.00000E+00 0.00000E+00 1.27010E-02 0.00000E+00 2.53742E-02
      439  9.07265E-07 0.00000E+00-2.58489E-05 0.00000E+00 0.00000E+00 0.00000E+00 0.00000E+00 0.00000E+00 0.00000E+00 1.18845E-02 0.00000E+00 2.53742E-02
      440  8.61437E-07 0.00000E+00-2.58489E-05 0.00000E+00 0.00000E+00 0.00000E+00 0.00000E+00 0.00000E+00 0.00000E+00 1.10680E-02 0.00000E+00 2.53742E-02
      441  8.14964E-07 0.00000E+00-2.58489E-05 0.00000E+00 0.00000E+00 0.00000E+00 0.00000E+00 0.00000E+00 0.00000E+00 1.02515E-02 0.00000E+00 2.53742E-02
      442  7.66924E-07 0.00000E+00-2.58489E-05 0.00000E+00 0.00000E+00 0.00000E+00 0.00000E+00 0.00000E+00 0.00000E+00 9.43507E-03 0.00000E+00 2.53742E-02
      443  7.17519E-07 0.00000E+00-2.58489E-05 0.00000E+00 0.00000E+00 0.00000E+00 0.00000E+00 0.00000E+00 0.00000E+00 8.61862E-03 0.00000E+00 2.53742E-02
      444  6.71010E-07 0.00000E+00-2.58489E-05 0.00000E+00 0.00000E+00 0.00000E+00 0.00000E+00 0.00000E+00 0.00000E+00 7.80207E-03 0.00000E+00 2.53742E-02
      591  6.75547E-07 3.47393E-07-2.58489E-05 0.00000E+00 0.00000E+00 0.00000E+00 0.00000E+00 0.00000E+00 0.00000E+00 7.97338E-03 3.27185E-03 2.53742E-02
      592  7.23250E-07 3.67536E-07-2.58489E-05 0.00000E+00 0.00000E+00 0.00000E+00 0.00000E+00 0.00000E+00 0.00000E+00 8.73302E-03 3.57117E-03 2.53742E-02
      595  5.34259E-07 6.34468E-07-2.58489E-05 0.00000E+00 0.00000E+00 0.00000E+00 0.00000E+00 0.00000E+00 0.00000E+00 6.09653E-03 6.09213E-03 2.53742E-02
      596  5.73430E-07 6.74249E-07-2.58489E-05 0.00000E+00 0.00000E+00 0.00000E+00 0.00000E+00 0.00000E+00 0.00000E+00 6.67507E-03 6.66827E-03 2.53742E-02
      599  2.89061E-07 8.15773E-07-2.58489E-05 0.00000E+00 0.00000E+00 0.00000E+00 0.00000E+00 0.00000E+00 0.00000E+00 3.27659E-03 7.97152E-03 2.53742E-02
      600  3.11201E-07 8.63756E-07-2.58489E-05 0.00000E+00 0.00000E+00 0.00000E+00 0.00000E+00 0.00000E+00 0.00000E+00 3.57811E-03 8.73036E-03 2.53742E-02
      603  0.00000E+00 8.82348E-07-2.58489E-05 0.00000E+00 0.00000E+00 0.00000E+00 0.00000E+00 0.00000E+00 0.00000E+00 5.27700E-19 8.61878E-03 2.53742E-02
      604  0.00000E+00 9.28063E-07-2.58489E-05 0.00000E+00 0.00000E+00 0.00000E+00 0.00000E+00 0.00000E+00 0.00000E+00 5.77700E-19 9.43523E-03 2.53742E-02
      638  8.18670E-07 4.04688E-07-2.58489E-05 0.00000E+00 0.00000E+00 0.00000E+00 0.00000E+00 0.00000E+00 0.00000E+00 1.02525E-02 4.16980E-03 2.53742E-02
      639  8.65105E-07 4.21511E-07-2.58489E-05 0.00000E+00 0.00000E+00 0.00000E+00 0.00000E+00 0.00000E+00 0.00000E+00 1.10122E-02 4.46912E-03 2.53742E-02
      641  6.54548E-07 7.54893E-07-2.58489E-05 0.00000E+00 0.00000E+00 0.00000E+00 0.00000E+00 0.00000E+00 0.00000E+00 7.83205E-03 7.82065E-03 2.53742E-02
      642  6.94883E-07 7.94372E-07-2.58489E-05 0.00000E+00 0.00000E+00 0.00000E+00 0.00000E+00 0.00000E+00 0.00000E+00 8.41059E-03 8.39679E-03 2.53742E-02
      644  3.56730E-07 9.64626E-07-2.58489E-05 0.00000E+00 0.00000E+00 0.00000E+00 0.00000E+00 0.00000E+00 0.00000E+00 4.18106E-03 1.02481E-02 2.53742E-02
      645  3.79617E-07 1.01901E-06-2.58489E-05 0.00000E+00 0.00000E+00 0.00000E+00 0.00000E+00 0.00000E+00 0.00000E+00 4.48258E-03 1.10068E-02 2.53742E-02
      647  0.00000E+00 1.02930E-06-2.58489E-05 0.00000E+00 0.00000E+00 0.00000E+00 0.00000E+00 0.00000E+00 0.00000E+00 6.77700E-19 1.10681E-02 2.53742E-02
      648  0.00000E+00 1.09044E-06-2.58489E-05 0.00000E+00 0.00000E+00 0.00000E+00 0.00000E+00 0.00000E+00 0.00000E+00 7.27700E-19 1.18847E-02 2.53742E-02
      674  6.30311E-07 3.30435E-07-2.58489E-05 0.00000E+00 0.00000E+00 0.00000E+00 0.00000E+00 0.00000E+00 0.00000E+00 7.21363E-03 2.97253E-03 2.53742E-02
      676  4.96099E-07 6.00738E-07-2.58489E-05 0.00000E+00 0.00000E+00 0.00000E+00 0.00000E+00 0.00000E+00 0.00000E+00 5.51810E-03 5.51590E-03 2.53742E-02
      678  2.67784E-07 7.78295E-07-2.58489E-05 0.00000E+00 0.00000E+00 0.00000E+00 0.00000E+00 0.00000E+00 0.00000E+00 2.97507E-03 7.21278E-03 2.53742E-02
      680  0.00000E+00 8.57026E-07-2.58489E-05 0.00000E+00 0.00000E+00 0.00000E+00 0.00000E+00 0.00000E+00 0.00000E+00 4.77700E-19 7.80226E-03 2.53742E-02
      821  7.71017E-07 3.86831E-07-2.58489E-05 0.00000E+00 0.00000E+00 0.00000E+00 0.00000E+00 0.00000E+00 0.00000E+00 9.49277E-03 3.87049E-03 2.53742E-02
      822  6.13591E-07 7.14652E-07-2.58489E-05 0.00000E+00 0.00000E+00 0.00000E+00 0.00000E+00 0.00000E+00 0.00000E+00 7.25351E-03 7.24451E-03 2.53742E-02
      823  3.33993E-07 9.13952E-07-2.58489E-05 0.00000E+00 0.00000E+00 0.00000E+00 0.00000E+00 0.00000E+00 0.00000E+00 3.87963E-03 9.48921E-03 2.53742E-02
      824  0.00000E+00 9.78374E-07-2.58489E-05 0.00000E+00 0.00000E+00 0.00000E+00 0.00000E+00 0.00000E+00 0.00000E+00 6.27700E-19 1.02517E-02 2.53742E-02
      850  8.90752E-07 4.37354E-07-2.58489E-05 0.00000E+00 0.00000E+00 0.00000E+00 0.00000E+00 0.00000E+00 0.00000E+00 1.17719E-02 4.76854E-03 2.53742E-02
      852  6.94625E-07 8.18939E-07-2.58489E-05 0.00000E+00 0.00000E+00 0.00000E+00 0.00000E+00 0.00000E+00 0.00000E+00 8.98899E-03 8.97302E-03 2.53742E-02
      854  3.95624E-07 1.11567E-06-2.58489E-05 0.00000E+00 0.00000E+00 0.00000E+00 0.00000E+00 0.00000E+00 0.00000E+00 4.78410E-03 1.17657E-02 2.53742E-02
      856  0.00000E+00 1.23321E-06-2.58489E-05 0.00000E+00 0.00000E+00 0.00000E+00 0.00000E+00 0.00000E+00 0.00000E+00 7.77700E-19 1.27012E-02 2.53742E-02



 n o d a l   p r i n t   o u t   f o r   t i m e  s t e p     251                              ( at time 2.7993287E+00 )

 nodal point  x-disp     y-disp      z-disp      x-vel       y-vel       z-vel      x-accl      y-accl      z-accl      x-coor      y-coor      z-coor
        1  2.37225E-05 0.00000E+00 0.00000E+00 0.00000E+00 0.00000E+00 0.00000E+00 0.00000E+00 0.00000E+00 0.00000E+00 3.19872E-03 0.00000E+00-1.78000E-18
        2  1.75628E-05 0.00000E+00 0.00000E+00 0.00000E+00 0.00000E+00 0.00000E+00 0.00000E+00 0.00000E+00 0.00000E+00 2.39886E-03 0.00000E+00 0.00000E+00
        3  1.17332E-05 0.00000E+00 0.00000E+00 0.00000E+00 0.00000E+00 0.00000E+00 0.00000E+00 0.00000E+00 0.00000E+00 1.59923E-03 0.00000E+00 0.00000E+00
        4  5.88085E-06 0.00000E+00 0.00000E+00 0.00000E+00 0.00000E+00 0.00000E+00 0.00000E+00 0.00000E+00 0.00000E+00 7.99631E-04 0.00000E+00 0.00000E+00
        5  0.00000E+00 0.00000E+00 0.00000E+00 0.00000E+00 0.00000E+00 0.00000E+00 0.00000E+00 0.00000E+00 0.00000E+00 0.00000E+00 0.00000E+00 0.00000E+00
        6  0.00000E+00 5.78882E-06 0.00000E+00 0.00000E+00 0.00000E+00 0.00000E+00 0.00000E+00 0.00000E+00 0.00000E+00 4.86000E-20 7.99539E-04 0.00000E+00
        7  0.00000E+00 1.17676E-05 0.00000E+00 0.00000E+00 0.00000E+00 0.00000E+00 0.00000E+00 0.00000E+00 0.00000E+00 9.72100E-20 1.59927E-03 0.00000E+00
        8  0.00000E+00 1.81522E-05 0.00000E+00 0.00000E+00 0.00000E+00 0.00000E+00 0.00000E+00 0.00000E+00 0.00000E+00 1.45800E-19 2.39945E-03 0.00000E+00
        9  0.00000E+00 2.45174E-05 0.00000E+00 0.00000E+00 0.00000E+00 0.00000E+00 0.00000E+00 0.00000E+00 0.00000E+00 1.94400E-19 3.19952E-03 0.00000E+00
       10  9.48762E-06 2.28582E-05 0.00000E+00 0.00000E+00 0.00000E+00 0.00000E+00 0.00000E+00 0.00000E+00 0.00000E+00 1.22449E-03 2.95616E-03 0.00000E+00
       11  1.81389E-05 1.90635E-05 0.00000E+00 0.00000E+00 0.00000E+00 0.00000E+00 0.00000E+00 0.00000E+00 0.00000E+00 2.26324E-03 2.26416E-03 0.00000E+00
       12  2.30882E-05 1.06990E-05 0.00000E+00 0.00000E+00 0.00000E+00 0.00000E+00 0.00000E+00 0.00000E+00 0.00000E+00 2.95639E-03 1.22570E-03 0.00000E+00
       13  1.11924E-05 1.11566E-05 0.00000E+00 0.00000E+00 0.00000E+00 0.00000E+00 0.00000E+00 0.00000E+00 0.00000E+00 1.31949E-03 1.36306E-03 0.00000E+00
       14  1.21390E-05 5.91086E-06 0.00000E+00 0.00000E+00 0.00000E+00 0.00000E+00 0.00000E+00 0.00000E+00 0.00000E+00 1.50044E-03 7.12888E-04 0.00000E+00
       15  5.65142E-06 1.14351E-05 0.00000E+00 0.00000E+00 0.00000E+00 0.00000E+00 0.00000E+00 0.00000E+00 0.00000E+00 6.75162E-04 1.51844E-03 0.00000E+00
       16  6.10144E-06 5.90853E-06 0.00000E+00 0.00000E+00 0.00000E+00 0.00000E+00 0.00000E+00 0.00000E+00 0.00000E+00 7.59739E-04 7.88246E-04 0.00000E+00
       17  1.51172E-05 1.43724E-05 0.00000E+00 0.00000E+00 0.00000E+00 0.00000E+00 0.00000E+00 0.00000E+00 0.00000E+00 1.75142E-03 1.78187E-03 0.00000E+00
       18  7.79785E-06 1.67904E-05 0.00000E+00 0.00000E+00 0.00000E+00 0.00000E+00 0.00000E+00 0.00000E+00 0.00000E+00 9.27929E-04 2.20789E-03 0.00000E+00
       19  1.77147E-05 7.53278E-06 0.00000E+00 0.00000E+00 0.00000E+00 0.00000E+00 0.00000E+00 0.00000E+00 0.00000E+00 2.18101E-03 9.58391E-04 0.00000E+00
      220  0.00000E+00 8.16846E-07-5.59866E-05 0.00000E+00 0.00000E+00 0.00000E+00 0.00000E+00 0.00000E+00 0.00000E+00 2.13900E-19 3.49332E-03 2.53440E-02
      221  5.97009E-08 5.43712E-07-5.59866E-05 0.00000E+00 0.00000E+00 0.00000E+00 0.00000E+00 0.00000E+00 0.00000E+00 1.47256E-03 3.31494E-03 2.53440E-02
      222  1.39402E-07 7.19992E-07-5.59866E-05 0.00000E+00 0.00000E+00 0.00000E+00 0.00000E+00 0.00000E+00 0.00000E+00 2.02394E-03 4.81992E-03 2.53440E-02
      223  0.00000E+00 1.13804E-06-5.59866E-05 0.00000E+00 0.00000E+00 0.00000E+00 0.00000E+00 0.00000E+00 0.00000E+00 3.20800E-19 5.23994E-03 2.53440E-02
      248  2.56597E-07 1.20475E-06-5.59866E-05 0.00000E+00 0.00000E+00 0.00000E+00 0.00000E+00 0.00000E+00 0.00000E+00 2.67366E-03 6.45440E-03 2.53440E-02
      249  0.00000E+00 1.67997E-06-5.59866E-05 0.00000E+00 0.00000E+00 0.00000E+00 0.00000E+00 0.00000E+00 0.00000E+00 4.27700E-19 6.98668E-03 2.53440E-02
      286  1.03223E-07 5.00566E-07-5.59866E-05 0.00000E+00 0.00000E+00 0.00000E+00 0.00000E+00 0.00000E+00 0.00000E+00 3.27340E-03 1.55530E-03 2.53440E-02
      287  1.88580E-07 6.49719E-07-5.59866E-05 0.00000E+00 0.00000E+00 0.00000E+00 0.00000E+00 0.00000E+00 0.00000E+00 2.87789E-03 2.97405E-03 2.53440E-02
      288  6.36492E-08 5.36636E-07-5.59866E-05 0.00000E+00 0.00000E+00 0.00000E+00 0.00000E+00 0.00000E+00 0.00000E+00 1.65776E-03 1.72134E-03 2.53440E-02
      301  3.33475E-07 9.16699E-07-5.59866E-05 0.00000E+00 0.00000E+00 0.00000E+00 0.00000E+00 0.00000E+00 0.00000E+00 3.81963E-03 3.88862E-03 2.53440E-02
      314  4.95986E-07 1.09484E-06-5.59866E-05 0.00000E+00 0.00000E+00 0.00000E+00 0.00000E+00 0.00000E+00 0.00000E+00 4.93960E-03 4.94019E-03 2.53440E-02
      363  4.47941E-07 7.85620E-07-5.59866E-05 0.00000E+00 0.00000E+00 0.00000E+00 0.00000E+00 0.00000E+00 0.00000E+00 6.45385E-03 2.67369E-03 2.53440E-02
      364  2.02905E-07 6.88592E-07-5.59866E-05 0.00000E+00 0.00000E+00 0.00000E+00 0.00000E+00 0.00000E+00 0.00000E+00 4.75830E-03 2.09189E-03 2.53440E-02
      365  3.92591E-07 0.00000E+00-5.59866E-05 0.00000E+00 0.00000E+00 0.00000E+00 0.00000E+00 0.00000E+00 0.00000E+00 5.23919E-03 0.00000E+00 2.53440E-02
      366  5.78977E-07 0.00000E+00-5.59866E-05 0.00000E+00 0.00000E+00 0.00000E+00 0.00000E+00 0.00000E+00 0.00000E+00 6.98558E-03 0.00000E+00 2.53440E-02
      379  0.00000E+00 5.78652E-07-5.59866E-05 0.00000E+00 0.00000E+00 0.00000E+00 0.00000E+00 0.00000E+00 0.00000E+00 1.06900E-19 1.74688E-03 2.53440E-02
      404  3.62762E-08 0.00000E+00-5.59866E-05 0.00000E+00 0.00000E+00 0.00000E+00 0.00000E+00 0.00000E+00 0.00000E+00 1.74634E-03 0.00000E+00 2.53440E-02
      405  0.00000E+00 0.00000E+00-5.59866E-05 0.00000E+00 0.00000E+00 0.00000E+00 0.00000E+00 0.00000E+00 0.00000E+00 0.00000E+00 0.00000E+00 2.53440E-02
      418  1.65598E-07 0.00000E+00-5.59866E-05 0.00000E+00 0.00000E+00 0.00000E+00 0.00000E+00 0.00000E+00 0.00000E+00 3.49267E-03 0.00000E+00 2.53440E-02
      438  5.20650E-07 0.00000E+00-5.59866E-05 0.00000E+00 0.00000E+00 0.00000E+00 0.00000E+00 0.00000E+00 0.00000E+00 1.27005E-02 0.00000E+00 2.53440E-02
      439  5.65020E-07 0.00000E+00-5.59866E-05 0.00000E+00 0.00000E+00 0.00000E+00 0.00000E+00 0.00000E+00 0.00000E+00 1.18842E-02 0.00000E+00 2.53440E-02
      440  5.59505E-07 0.00000E+00-5.59866E-05 0.00000E+00 0.00000E+00 0.00000E+00 0.00000E+00 0.00000E+00 0.00000E+00 1.10677E-02 0.00000E+00 2.53440E-02
      441  5.38010E-07 0.00000E+00-5.59866E-05 0.00000E+00 0.00000E+00 0.00000E+00 0.00000E+00 0.00000E+00 0.00000E+00 1.02512E-02 0.00000E+00 2.53440E-02
      442  5.11133E-07 0.00000E+00-5.59866E-05 0.00000E+00 0.00000E+00 0.00000E+00 0.00000E+00 0.00000E+00 0.00000E+00 9.43481E-03 0.00000E+00 2.53440E-02
      443  4.78081E-07 0.00000E+00-5.59866E-05 0.00000E+00 0.00000E+00 0.00000E+00 0.00000E+00 0.00000E+00 0.00000E+00 8.61838E-03 0.00000E+00 2.53440E-02
      444  4.58594E-07 0.00000E+00-5.59866E-05 0.00000E+00 0.00000E+00 0.00000E+00 0.00000E+00 0.00000E+00 0.00000E+00 7.80186E-03 0.00000E+00 2.53440E-02
      591  5.58816E-07 8.70453E-07-5.59866E-05 0.00000E+00 0.00000E+00 0.00000E+00 0.00000E+00 0.00000E+00 0.00000E+00 7.97326E-03 3.27237E-03 2.53440E-02
      592  6.06313E-07 8.95919E-07-5.59866E-05 0.00000E+00 0.00000E+00 0.00000E+00 0.00000E+00 0.00000E+00 0.00000E+00 8.73291E-03 3.57170E-03 2.53440E-02
      595  5.46167E-07 1.10472E-06-5.59866E-05 0.00000E+00 0.00000E+00 0.00000E+00 0.00000E+00 0.00000E+00 0.00000E+00 6.09655E-03 6.09260E-03 2.53440E-02
      596  6.08748E-07 1.12116E-06-5.59866E-05 0.00000E+00 0.00000E+00 0.00000E+00 0.00000E+00 0.00000E+00 0.00000E+00 6.67511E-03 6.66872E-03 2.53440E-02
      599  3.34428E-07 1.28548E-06-5.59866E-05 0.00000E+00 0.00000E+00 0.00000E+00 0.00000E+00 0.00000E+00 0.00000E+00 3.27663E-03 7.97199E-03 2.53440E-02
      600  3.76041E-07 1.29089E-06-5.59866E-05 0.00000E+00 0.00000E+00 0.00000E+00 0.00000E+00 0.00000E+00 0.00000E+00 3.57818E-03 8.73079E-03 2.53440E-02
      603  0.00000E+00 1.48460E-06-5.59866E-05 0.00000E+00 0.00000E+00 0.00000E+00 0.00000E+00 0.00000E+00 0.00000E+00 5.27700E-19 8.61938E-03 2.53440E-02
      604  0.00000E+00 1.41925E-06-5.59866E-05 0.00000E+00 0.00000E+00 0.00000E+00 0.00000E+00 0.00000E+00 0.00000E+00 5.77700E-19 9.43572E-03 2.53440E-02
      638  7.04201E-07 9.34898E-07-5.59866E-05 0.00000E+00 0.00000E+00 0.00000E+00 0.00000E+00 0.00000E+00 0.00000E+00 1.02524E-02 4.17033E-03 2.53440E-02
      639  7.40581E-07 9.19131E-07-5.59866E-05 0.00000E+00 0.00000E+00 0.00000E+00 0.00000E+00 0.00000E+00 0.00000E+00 1.10120E-02 4.46962E-03 2.53440E-02
      641  7.16807E-07 1.17653E-06-5.59866E-05 0.00000E+00 0.00000E+00 0.00000E+00 0.00000E+00 0.00000E+00 0.00000E+00 7.83212E-03 7.82108E-03 2.53440E-02
      642  7.75994E-07 1.21004E-06-5.59866E-05 0.00000E+00 0.00000E+00 0.00000E+00 0.00000E+00 0.00000E+00 0.00000E+00 8.41068E-03 8.39721E-03 2.53440E-02
      644  4.50747E-07 1.42024E-06-5.59866E-05 0.00000E+00 0.00000E+00 0.00000E+00 0.00000E+00 0.00000E+00 0.00000E+00 4.18115E-03 1.02485E-02 2.53440E-02
      645  4.44058E-07 1.44968E-06-5.59866E-05 0.00000E+00 0.00000E+00 0.00000E+00 0.00000E+00 0.00000E+00 0.00000E+00 4.48264E-03 1.10072E-02 2.53440E-02
      647  0.00000E+00 1.46008E-06-5.59866E-05 0.00000E+00 0.00000E+00 0.00000E+00 0.00000E+00 0.00000E+00 0.00000E+00 6.77700E-19 1.10686E-02 2.53440E-02
      648  0.00000E+00 1.69626E-06-5.59866E-05 0.00000E+00 0.00000E+00 0.00000E+00 0.00000E+00 0.00000E+00 0.00000E+00 7.27700E-19 1.18853E-02 2.53440E-02
      674  5.04546E-07 8.42741E-07-5.59866E-05 0.00000E+00 0.00000E+00 0.00000E+00 0.00000E+00 0.00000E+00 0.00000E+00 7.21350E-03 2.97304E-03 2.53440E-02
      676  4.96999E-07 1.10384E-06-5.59866E-05 0.00000E+00 0.00000E+00 0.00000E+00 0.00000E+00 0.00000E+00 0.00000E+00 5.51810E-03 5.51640E-03 2.53440E-02
      678  2.81633E-07 1.26318E-06-5.59866E-05 0.00000E+00 0.00000E+00 0.00000E+00 0.00000E+00 0.00000E+00 0.00000E+00 2.97508E-03 7.21326E-03 2.53440E-02
      680  0.00000E+00 1.58590E-06-5.59866E-05 0.00000E+00 0.00000E+00 0.00000E+00 0.00000E+00 0.00000E+00 0.00000E+00 4.77700E-19 7.80299E-03 2.53440E-02
      821  6.54310E-07 9.20922E-07-5.59866E-05 0.00000E+00 0.00000E+00 0.00000E+00 0.00000E+00 0.00000E+00 0.00000E+00 9.49265E-03 3.87102E-03 2.53440E-02
      822  6.65284E-07 1.14782E-06-5.59866E-05 0.00000E+00 0.00000E+00 0.00000E+00 0.00000E+00 0.00000E+00 0.00000E+00 7.25357E-03 7.24495E-03 2.53440E-02
      823  4.18669E-07 1.34590E-06-5.59866E-05 0.00000E+00 0.00000E+00 0.00000E+00 0.00000E+00 0.00000E+00 0.00000E+00 3.87972E-03 9.48965E-03 2.53440E-02
      824  0.00000E+00 1.39849E-06-5.59866E-05 0.00000E+00 0.00000E+00 0.00000E+00 0.00000E+00 0.00000E+00 0.00000E+00 6.27700E-19 1.02521E-02 2.53440E-02
      850  6.00286E-07 8.47639E-07-5.59866E-05 0.00000E+00 0.00000E+00 0.00000E+00 0.00000E+00 0.00000E+00 0.00000E+00 1.17716E-02 4.76895E-03 2.53440E-02
      852  5.65731E-07 1.16644E-06-5.59866E-05 0.00000E+00 0.00000E+00 0.00000E+00 0.00000E+00 0.00000E+00 0.00000E+00 8.98887E-03 8.97337E-03 2.53440E-02
      854  3.38128E-07 1.63277E-06-5.59866E-05 0.00000E+00 0.00000E+00 0.00000E+00 0.00000E+00 0.00000E+00 0.00000E+00 4.78404E-03 1.17662E-02 2.53440E-02
      856  0.00000E+00 2.48389E-06-5.59866E-05 0.00000E+00 0.00000E+00 0.00000E+00 0.00000E+00 0.00000E+00 0.00000E+00 7.77700E-19 1.27025E-02 2.53440E-02



 n o d a l   p r i n t   o u t   f o r   t i m e  s t e p     341                              ( at time 4.2636510E+00 )

 nodal point  x-disp     y-disp      z-disp      x-vel       y-vel       z-vel      x-accl      y-accl      z-accl      x-coor      y-coor      z-coor
        1  3.55360E-05 0.00000E+00 0.00000E+00 0.00000E+00 0.00000E+00 0.00000E+00 0.00000E+00 0.00000E+00 0.00000E+00 3.21054E-03 0.00000E+00-1.78000E-18
        2  2.48740E-05 0.00000E+00 0.00000E+00 0.00000E+00 0.00000E+00 0.00000E+00 0.00000E+00 0.00000E+00 0.00000E+00 2.40617E-03 0.00000E+00 0.00000E+00
        3  1.64742E-05 0.00000E+00 0.00000E+00 0.00000E+00 0.00000E+00 0.00000E+00 0.00000E+00 0.00000E+00 0.00000E+00 1.60397E-03 0.00000E+00 0.00000E+00
        4  8.47489E-06 0.00000E+00 0.00000E+00 0.00000E+00 0.00000E+00 0.00000E+00 0.00000E+00 0.00000E+00 0.00000E+00 8.02225E-04 0.00000E+00 0.00000E+00
        5  0.00000E+00 0.00000E+00 0.00000E+00 0.00000E+00 0.00000E+00 0.00000E+00 0.00000E+00 0.00000E+00 0.00000E+00 0.00000E+00 0.00000E+00 0.00000E+00
        6  0.00000E+00 8.63281E-06 0.00000E+00 0.00000E+00 0.00000E+00 0.00000E+00 0.00000E+00 0.00000E+00 0.00000E+00 4.86000E-20 8.02383E-04 0.00000E+00
        7  0.00000E+00 1.76693E-05 0.00000E+00 0.00000E+00 0.00000E+00 0.00000E+00 0.00000E+00 0.00000E+00 0.00000E+00 9.72100E-20 1.60517E-03 0.00000E+00
        8  0.00000E+00 2.76406E-05 0.00000E+00 0.00000E+00 0.00000E+00 0.00000E+00 0.00000E+00 0.00000E+00 0.00000E+00 1.45800E-19 2.40894E-03 0.00000E+00
        9  0.00000E+00 3.83266E-05 0.00000E+00 0.00000E+00 0.00000E+00 0.00000E+00 0.00000E+00 0.00000E+00 0.00000E+00 1.94400E-19 3.21333E-03 0.00000E+00
       10  1.57727E-05 3.67478E-05 0.00000E+00 0.00000E+00 0.00000E+00 0.00000E+00 0.00000E+00 0.00000E+00 0.00000E+00 1.23077E-03 2.97005E-03 0.00000E+00
       11  3.09598E-05 3.20661E-05 0.00000E+00 0.00000E+00 0.00000E+00 0.00000E+00 0.00000E+00 0.00000E+00 0.00000E+00 2.27606E-03 2.27717E-03 0.00000E+00
       12  3.88167E-05 1.82413E-05 0.00000E+00 0.00000E+00 0.00000E+00 0.00000E+00 0.00000E+00 0.00000E+00 0.00000E+00 2.97212E-03 1.23324E-03 0.00000E+00
       13  1.91812E-05 1.95690E-05 0.00000E+00 0.00000E+00 0.00000E+00 0.00000E+00 0.00000E+00 0.00000E+00 0.00000E+00 1.32748E-03 1.37147E-03 0.00000E+00
       14  2.03953E-05 1.07079E-05 0.00000E+00 0.00000E+00 0.00000E+00 0.00000E+00 0.00000E+00 0.00000E+00 0.00000E+00 1.50870E-03 7.17685E-04 0.00000E+00
       15  9.47384E-06 1.79299E-05 0.00000E+00 0.00000E+00 0.00000E+00 0.00000E+00 0.00000E+00 0.00000E+00 0.00000E+00 6.78984E-04 1.52493E-03 0.00000E+00
       16  1.00199E-05 9.18865E-06 0.00000E+00 0.00000E+00 0.00000E+00 0.00000E+00 0.00000E+00 0.00000E+00 0.00000E+00 7.63658E-04 7.91526E-04 0.00000E+00
       17  2.56963E-05 2.48199E-05 0.00000E+00 0.00000E+00 0.00000E+00 0.00000E+00 0.00000E+00 0.00000E+00 0.00000E+00 1.76200E-03 1.79232E-03 0.00000E+00
       18  1.27221E-05 2.66159E-05 0.00000E+00 0.00000E+00 0.00000E+00 0.00000E+00 0.00000E+00 0.00000E+00 0.00000E+00 9.32853E-04 2.21772E-03 0.00000E+00
       19  2.97904E-05 1.33492E-05 0.00000E+00 0.00000E+00 0.00000E+00 0.00000E+00 0.00000E+00 0.00000E+00 0.00000E+00 2.19309E-03 9.64208E-04 0.00000E+00
      220  0.00000E+00 1.88346E-06-8.52730E-05 0.00000E+00 0.00000E+00 0.00000E+00 0.00000E+00 0.00000E+00 0.00000E+00 2.13900E-19 3.49438E-03 2.53147E-02
      221  1.63688E-07 1.20864E-06-8.52730E-05 0.00000E+00 0.00000E+00 0.00000E+00 0.00000E+00 0.00000E+00 0.00000E+00 1.47266E-03 3.31561E-03 2.53147E-02
      222  8.54851E-08 1.29768E-06-8.52730E-05 0.00000E+00 0.00000E+00 0.00000E+00 0.00000E+00 0.00000E+00 0.00000E+00 2.02389E-03 4.82050E-03 2.53147E-02
      223  0.00000E+00 2.73972E-06-8.52730E-05 0.00000E+00 0.00000E+00 0.00000E+00 0.00000E+00 0.00000E+00 0.00000E+00 3.20800E-19 5.24154E-03 2.53147E-02
      248  2.04932E-07 1.59018E-06-8.52730E-05 0.00000E+00 0.00000E+00 0.00000E+00 0.00000E+00 0.00000E+00 0.00000E+00 2.67360E-03 6.45479E-03 2.53147E-02
      249  0.00000E+00 3.21628E-06-8.52730E-05 0.00000E+00 0.00000E+00 0.00000E+00 0.00000E+00 0.00000E+00 0.00000E+00 4.27700E-19 6.98822E-03 2.53147E-02
      286 -9.26128E-08 1.14388E-06-8.52730E-05 0.00000E+00 0.00000E+00 0.00000E+00 0.00000E+00 0.00000E+00 0.00000E+00 3.27321E-03 1.55594E-03 2.53147E-02
      287  3.89607E-07 9.31272E-07-8.52730E-05 0.00000E+00 0.00000E+00 0.00000E+00 0.00000E+00 0.00000E+00 0.00000E+00 2.87809E-03 2.97433E-03 2.53147E-02
      288 -1.07937E-08 1.03362E-06-8.52730E-05 0.00000E+00 0.00000E+00 0.00000E+00 0.00000E+00 0.00000E+00 0.00000E+00 1.65769E-03 1.72183E-03 2.53147E-02
      301  2.51783E-07 1.61970E-06-8.52730E-05 0.00000E+00 0.00000E+00 0.00000E+00 0.00000E+00 0.00000E+00 0.00000E+00 3.81955E-03 3.88932E-03 2.53147E-02
      314  6.32216E-07 1.80352E-06-8.52730E-05 0.00000E+00 0.00000E+00 0.00000E+00 0.00000E+00 0.00000E+00 0.00000E+00 4.93973E-03 4.94090E-03 2.53147E-02
      363  2.98230E-07 1.61861E-06-8.52730E-05 0.00000E+00 0.00000E+00 0.00000E+00 0.00000E+00 0.00000E+00 0.00000E+00 6.45370E-03 2.67452E-03 2.53147E-02
      364 -1.86515E-07 1.69351E-06-8.52730E-05 0.00000E+00 0.00000E+00 0.00000E+00 0.00000E+00 0.00000E+00 0.00000E+00 4.75791E-03 2.09289E-03 2.53147E-02
      365  1.97199E-06 0.00000E+00-8.52730E-05 0.00000E+00 0.00000E+00 0.00000E+00 0.00000E+00 0.00000E+00 0.00000E+00 5.24077E-03 0.00000E+00 2.53147E-02
      366  1.45978E-06 0.00000E+00-8.52730E-05 0.00000E+00 0.00000E+00 0.00000E+00 0.00000E+00 0.00000E+00 0.00000E+00 6.98646E-03 0.00000E+00 2.53147E-02
      379  0.00000E+00 1.29194E-06-8.52730E-05 0.00000E+00 0.00000E+00 0.00000E+00 0.00000E+00 0.00000E+00 0.00000E+00 1.06900E-19 1.74759E-03 2.53147E-02
      404  2.10522E-06 0.00000E+00-8.52730E-05 0.00000E+00 0.00000E+00 0.00000E+00 0.00000E+00 0.00000E+00 0.00000E+00 1.74841E-03 0.00000E+00 2.53147E-02
      405  0.00000E+00 0.00000E+00-8.52730E-05 0.00000E+00 0.00000E+00 0.00000E+00 0.00000E+00 0.00000E+00 0.00000E+00 0.00000E+00 0.00000E+00 2.53147E-02
      418  2.86767E-06 0.00000E+00-8.52730E-05 0.00000E+00 0.00000E+00 0.00000E+00 0.00000E+00 0.00000E+00 0.00000E+00 3.49537E-03 0.00000E+00 2.53147E-02
      438  3.33832E-07 0.00000E+00-8.52730E-05 0.00000E+00 0.00000E+00 0.00000E+00 0.00000E+00 0.00000E+00 0.00000E+00 1.27003E-02 0.00000E+00 2.53147E-02
      439  4.98305E-07 0.00000E+00-8.52730E-05 0.00000E+00 0.00000E+00 0.00000E+00 0.00000E+00 0.00000E+00 0.00000E+00 1.18841E-02 0.00000E+00 2.53147E-02
      440  5.29783E-07 0.00000E+00-8.52730E-05 0.00000E+00 0.00000E+00 0.00000E+00 0.00000E+00 0.00000E+00 0.00000E+00 1.10676E-02 0.00000E+00 2.53147E-02
      441  5.66798E-07 0.00000E+00-8.52730E-05 0.00000E+00 0.00000E+00 0.00000E+00 0.00000E+00 0.00000E+00 0.00000E+00 1.02513E-02 0.00000E+00 2.53147E-02
      442  6.10946E-07 0.00000E+00-8.52730E-05 0.00000E+00 0.00000E+00 0.00000E+00 0.00000E+00 0.00000E+00 0.00000E+00 9.43491E-03 0.00000E+00 2.53147E-02
      443  6.79570E-07 0.00000E+00-8.52730E-05 0.00000E+00 0.00000E+00 0.00000E+00 0.00000E+00 0.00000E+00 0.00000E+00 8.61858E-03 0.00000E+00 2.53147E-02
      444  8.37107E-07 0.00000E+00-8.52730E-05 0.00000E+00 0.00000E+00 0.00000E+00 0.00000E+00 0.00000E+00 0.00000E+00 7.80224E-03 0.00000E+00 2.53147E-02
      591  6.23295E-07 1.72076E-06-8.52730E-05 0.00000E+00 0.00000E+00 0.00000E+00 0.00000E+00 0.00000E+00 0.00000E+00 7.97332E-03 3.27322E-03 2.53147E-02
      592  6.70750E-07 1.70899E-06-8.52730E-05 0.00000E+00 0.00000E+00 0.00000E+00 0.00000E+00 0.00000E+00 0.00000E+00 8.73297E-03 3.57251E-03 2.53147E-02
      595  6.11504E-07 1.60114E-06-8.52730E-05 0.00000E+00 0.00000E+00 0.00000E+00 0.00000E+00 0.00000E+00 0.00000E+00 6.09661E-03 6.09310E-03 2.53147E-02
      596  6.94840E-07 1.56137E-06-8.52730E-05 0.00000E+00 0.00000E+00 0.00000E+00 0.00000E+00 0.00000E+00 0.00000E+00 6.67519E-03 6.66916E-03 2.53147E-02
      599  3.96469E-07 1.71120E-06-8.52730E-05 0.00000E+00 0.00000E+00 0.00000E+00 0.00000E+00 0.00000E+00 0.00000E+00 3.27670E-03 7.97241E-03 2.53147E-02
      600  4.60159E-07 1.69419E-06-8.52730E-05 0.00000E+00 0.00000E+00 0.00000E+00 0.00000E+00 0.00000E+00 0.00000E+00 3.57826E-03 8.73119E-03 2.53147E-02
      603  0.00000E+00 2.48751E-06-8.52730E-05 0.00000E+00 0.00000E+00 0.00000E+00 0.00000E+00 0.00000E+00 0.00000E+00 5.27700E-19 8.62039E-03 2.53147E-02
      604  0.00000E+00 2.30785E-06-8.52730E-05 0.00000E+00 0.00000E+00 0.00000E+00 0.00000E+00 0.00000E+00 0.00000E+00 5.77700E-19 9.43661E-03 2.53147E-02
      638  8.01797E-07 1.69730E-06-8.52730E-05 0.00000E+00 0.00000E+00 0.00000E+00 0.00000E+00 0.00000E+00 0.00000E+00 1.02525E-02 4.17110E-03 2.53147E-02
      639  7.94321E-07 1.63601E-06-8.52730E-05 0.00000E+00 0.00000E+00 0.00000E+00 0.00000E+00 0.00000E+00 0.00000E+00 1.10121E-02 4.47034E-03 2.53147E-02
      641  8.20679E-07 1.50127E-06-8.52730E-05 0.00000E+00 0.00000E+00 0.00000E+00 0.00000E+00 0.00000E+00 0.00000E+00 7.83222E-03 7.82140E-03 2.53147E-02
      642  9.92231E-07 1.59618E-06-8.52730E-05 0.00000E+00 0.00000E+00 0.00000E+00 0.00000E+00 0.00000E+00 0.00000E+00 8.41089E-03 8.39760E-03 2.53147E-02
      644  5.23674E-07 1.68285E-06-8.52730E-05 0.00000E+00 0.00000E+00 0.00000E+00 0.00000E+00 0.00000E+00 0.00000E+00 4.18122E-03 1.02488E-02 2.53147E-02
      645  3.68687E-07 1.45893E-06-8.52730E-05 0.00000E+00 0.00000E+00 0.00000E+00 0.00000E+00 0.00000E+00 0.00000E+00 4.48257E-03 1.10073E-02 2.53147E-02
      647  0.00000E+00 2.23123E-06-8.52730E-05 0.00000E+00 0.00000E+00 0.00000E+00 0.00000E+00 0.00000E+00 0.00000E+00 6.77700E-19 1.10693E-02 2.53147E-02
      648  0.00000E+00 2.72738E-06-8.52730E-05 0.00000E+00 0.00000E+00 0.00000E+00 0.00000E+00 0.00000E+00 0.00000E+00 7.27700E-19 1.18863E-02 2.53147E-02
      674  5.57795E-07 1.72699E-06-8.52730E-05 0.00000E+00 0.00000E+00 0.00000E+00 0.00000E+00 0.00000E+00 0.00000E+00 7.21356E-03 2.97393E-03 2.53147E-02
      676  5.30697E-07 1.64562E-06-8.52730E-05 0.00000E+00 0.00000E+00 0.00000E+00 0.00000E+00 0.00000E+00 0.00000E+00 5.51813E-03 5.51695E-03 2.53147E-02
      678  3.31004E-07 1.72968E-06-8.52730E-05 0.00000E+00 0.00000E+00 0.00000E+00 0.00000E+00 0.00000E+00 0.00000E+00 2.97513E-03 7.21373E-03 2.53147E-02
      680  0.00000E+00 2.75503E-06-8.52730E-05 0.00000E+00 0.00000E+00 0.00000E+00 0.00000E+00 0.00000E+00 0.00000E+00 4.77700E-19 7.80416E-03 2.53147E-02
      821  7.28342E-07 1.70606E-06-8.52730E-05 0.00000E+00 0.00000E+00 0.00000E+00 0.00000E+00 0.00000E+00 0.00000E+00 9.49273E-03 3.87181E-03 2.53147E-02
      822  7.64133E-07 1.52903E-06-8.52730E-05 0.00000E+00 0.00000E+00 0.00000E+00 0.00000E+00 0.00000E+00 0.00000E+00 7.25366E-03 7.24533E-03 2.53147E-02
      823  5.12823E-07 1.69334E-06-8.52730E-05 0.00000E+00 0.00000E+00 0.00000E+00 0.00000E+00 0.00000E+00 0.00000E+00 3.87981E-03 9.48999E-03 2.53147E-02
      824  0.00000E+00 2.18385E-06-8.52730E-05 0.00000E+00 0.00000E+00 0.00000E+00 0.00000E+00 0.00000E+00 0.00000E+00 6.27700E-19 1.02529E-02 2.53147E-02
      850  4.98834E-07 1.47884E-06-8.52730E-05 0.00000E+00 0.00000E+00 0.00000E+00 0.00000E+00 0.00000E+00 0.00000E+00 1.17715E-02 4.76958E-03 2.53147E-02
      852  6.48204E-07 1.50447E-06-8.52730E-05 0.00000E+00 0.00000E+00 0.00000E+00 0.00000E+00 0.00000E+00 0.00000E+00 8.98895E-03 8.97370E-03 2.53147E-02
      854  1.48525E-07 1.74648E-06-8.52730E-05 0.00000E+00 0.00000E+00 0.00000E+00 0.00000E+00 0.00000E+00 0.00000E+00 4.78385E-03 1.17663E-02 2.53147E-02
      856  0.00000E+00 3.82899E-06-8.52730E-05 0.00000E+00 0.00000E+00 0.00000E+00 0.00000E+00 0.00000E+00 0.00000E+00 7.77700E-19 1.27038E-02 2.53147E-02



 n o d a l   p r i n t   o u t   f o r   t i m e  s t e p     353                              ( at time 6.1607031E+00 )

 nodal point  x-disp     y-disp      z-disp      x-vel       y-vel       z-vel      x-accl      y-accl      z-accl      x-coor      y-coor      z-coor
        1  5.78890E-05 0.00000E+00 0.00000E+00 0.00000E+00 0.00000E+00 0.00000E+00 0.00000E+00 0.00000E+00 0.00000E+00 3.23289E-03 0.00000E+00-1.78000E-18
        2  4.07686E-05 0.00000E+00 0.00000E+00 0.00000E+00 0.00000E+00 0.00000E+00 0.00000E+00 0.00000E+00 0.00000E+00 2.42207E-03 0.00000E+00 0.00000E+00
        3  2.70846E-05 0.00000E+00 0.00000E+00 0.00000E+00 0.00000E+00 0.00000E+00 0.00000E+00 0.00000E+00 0.00000E+00 1.61458E-03 0.00000E+00 0.00000E+00
        4  1.40098E-05 0.00000E+00 0.00000E+00 0.00000E+00 0.00000E+00 0.00000E+00 0.00000E+00 0.00000E+00 0.00000E+00 8.07760E-04 0.00000E+00 0.00000E+00
        5  0.00000E+00 0.00000E+00 0.00000E+00 0.00000E+00 0.00000E+00 0.00000E+00 0.00000E+00 0.00000E+00 0.00000E+00 0.00000E+00 0.00000E+00 0.00000E+00
        6  0.00000E+00 1.44201E-05 0.00000E+00 0.00000E+00 0.00000E+00 0.00000E+00 0.00000E+00 0.00000E+00 0.00000E+00 4.86000E-20 8.08170E-04 0.00000E+00
        7  0.00000E+00 2.92057E-05 0.00000E+00 0.00000E+00 0.00000E+00 0.00000E+00 0.00000E+00 0.00000E+00 0.00000E+00 9.72100E-20 1.61671E-03 0.00000E+00
        8  0.00000E+00 4.51084E-05 0.00000E+00 0.00000E+00 0.00000E+00 0.00000E+00 0.00000E+00 0.00000E+00 0.00000E+00 1.45800E-19 2.42641E-03 0.00000E+00
        9  0.00000E+00 6.18364E-05 0.00000E+00 0.00000E+00 0.00000E+00 0.00000E+00 0.00000E+00 0.00000E+00 0.00000E+00 1.94400E-19 3.23684E-03 0.00000E+00
       10  2.56154E-05 5.88134E-05 0.00000E+00 0.00000E+00 0.00000E+00 0.00000E+00 0.00000E+00 0.00000E+00 0.00000E+00 1.24062E-03 2.99211E-03 0.00000E+00
       11  4.86857E-05 4.94622E-05 0.00000E+00 0.00000E+00 0.00000E+00 0.00000E+00 0.00000E+00 0.00000E+00 0.00000E+00 2.29379E-03 2.29456E-03 0.00000E+00
       12  6.09501E-05 2.81281E-05 0.00000E+00 0.00000E+00 0.00000E+00 0.00000E+00 0.00000E+00 0.00000E+00 0.00000E+00 2.99425E-03 1.24313E-03 0.00000E+00
       13  3.07244E-05 3.08957E-05 0.00000E+00 0.00000E+00 0.00000E+00 0.00000E+00 0.00000E+00 0.00000E+00 0.00000E+00 1.33902E-03 1.38280E-03 0.00000E+00
       14  3.28537E-05 1.70908E-05 0.00000E+00 0.00000E+00 0.00000E+00 0.00000E+00 0.00000E+00 0.00000E+00 0.00000E+00 1.52115E-03 7.24068E-04 0.00000E+00
       15  1.55951E-05 2.95921E-05 0.00000E+00 0.00000E+00 0.00000E+00 0.00000E+00 0.00000E+00 0.00000E+00 0.00000E+00 6.85105E-04 1.53659E-03 0.00000E+00
       16  1.63394E-05 1.53225E-05 0.00000E+00 0.00000E+00 0.00000E+00 0.00000E+00 0.00000E+00 0.00000E+00 0.00000E+00 7.69977E-04 7.97660E-04 0.00000E+00
       17  4.03838E-05 3.91172E-05 0.00000E+00 0.00000E+00 0.00000E+00 0.00000E+00 0.00000E+00 0.00000E+00 0.00000E+00 1.77668E-03 1.80662E-03 0.00000E+00
       18  2.06459E-05 4.33574E-05 0.00000E+00 0.00000E+00 0.00000E+00 0.00000E+00 0.00000E+00 0.00000E+00 0.00000E+00 9.40777E-04 2.23446E-03 0.00000E+00
       19  4.71084E-05 2.12211E-05 0.00000E+00 0.00000E+00 0.00000E+00 0.00000E+00 0.00000E+00 0.00000E+00 0.00000E+00 2.21041E-03 9.72080E-04 0.00000E+00
      220  0.00000E+00 2.01517E-06-1.23214E-04 0.00000E+00 0.00000E+00 0.00000E+00 0.00000E+00 0.00000E+00 0.00000E+00 2.13900E-19 3.49452E-03 2.52768E-02
      221  2.12350E-07 1.27642E-06-1.23214E-04 0.00000E+00 0.00000E+00 0.00000E+00 0.00000E+00 0.00000E+00 0.00000E+00 1.47271E-03 3.31568E-03 2.52768E-02
      222  1.13709E-07 1.36044E-06-1.23214E-04 0.00000E+00 0.00000E+00 0.00000E+00 0.00000E+00 0.00000E+00 0.00000E+00 2.02391E-03 4.82056E-03 2.52768E-02
      223  0.00000E+00 2.89783E-06-1.23214E-04 0.00000E+00 0.00000E+00 0.00000E+00 0.00000E+00 0.00000E+00 0.00000E+00 3.20800E-19 5.24170E-03 2.52768E-02
      248  2.37513E-07 1.74117E-06-1.23214E-04 0.00000E+00 0.00000E+00 0.00000E+00 0.00000E+00 0.00000E+00 0.00000E+00 2.67364E-03 6.45494E-03 2.52768E-02
      249  0.00000E+00 3.37745E-06-1.23214E-04 0.00000E+00 0.00000E+00 0.00000E+00 0.00000E+00 0.00000E+00 0.00000E+00 4.27700E-19 6.98838E-03 2.52768E-02
      286 -2.11656E-07 1.07170E-06-1.23214E-04 0.00000E+00 0.00000E+00 0.00000E+00 0.00000E+00 0.00000E+00 0.00000E+00 3.27309E-03 1.55587E-03 2.52768E-02
      287  4.29092E-07 7.00911E-07-1.23214E-04 0.00000E+00 0.00000E+00 0.00000E+00 0.00000E+00 0.00000E+00 0.00000E+00 2.87813E-03 2.97410E-03 2.52768E-02
      288 -1.38693E-07 9.69021E-07-1.23214E-04 0.00000E+00 0.00000E+00 0.00000E+00 0.00000E+00 0.00000E+00 0.00000E+00 1.65756E-03 1.72177E-03 2.52768E-02
      301  2.58634E-07 1.63223E-06-1.23214E-04 0.00000E+00 0.00000E+00 0.00000E+00 0.00000E+00 0.00000E+00 0.00000E+00 3.81956E-03 3.88933E-03 2.52768E-02
      314  6.48303E-07 1.87805E-06-1.23214E-04 0.00000E+00 0.00000E+00 0.00000E+00 0.00000E+00 0.00000E+00 0.00000E+00 4.93975E-03 4.94098E-03 2.52768E-02
      363  3.11292E-07 1.68594E-06-1.23214E-04 0.00000E+00 0.00000E+00 0.00000E+00 0.00000E+00 0.00000E+00 0.00000E+00 6.45371E-03 2.67459E-03 2.52768E-02
      364 -1.90848E-07 1.67999E-06-1.23214E-04 0.00000E+00 0.00000E+00 0.00000E+00 0.00000E+00 0.00000E+00 0.00000E+00 4.75791E-03 2.09288E-03 2.52768E-02
      365  2.22155E-06 0.00000E+00-1.23214E-04 0.00000E+00 0.00000E+00 0.00000E+00 0.00000E+00 0.00000E+00 0.00000E+00 5.24102E-03 0.00000E+00 2.52768E-02
      366  1.59424E-06 0.00000E+00-1.23214E-04 0.00000E+00 0.00000E+00 0.00000E+00 0.00000E+00 0.00000E+00 0.00000E+00 6.98659E-03 0.00000E+00 2.52768E-02
      379  0.00000E+00 1.32939E-06-1.23214E-04 0.00000E+00 0.00000E+00 0.00000E+00 0.00000E+00 0.00000E+00 0.00000E+00 1.06900E-19 1.74763E-03 2.52768E-02
      404  2.40256E-06 0.00000E+00-1.23214E-04 0.00000E+00 0.00000E+00 0.00000E+00 0.00000E+00 0.00000E+00 0.00000E+00 1.74870E-03 0.00000E+00 2.52768E-02
      405  0.00000E+00 0.00000E+00-1.23214E-04 0.00000E+00 0.00000E+00 0.00000E+00 0.00000E+00 0.00000E+00 0.00000E+00 0.00000E+00 0.00000E+00 2.52768E-02
      418  3.39062E-06 0.00000E+00-1.23214E-04 0.00000E+00 0.00000E+00 0.00000E+00 0.00000E+00 0.00000E+00 0.00000E+00 3.49589E-03 0.00000E+00 2.52768E-02
      438  2.72118E-07 0.00000E+00-1.23214E-04 0.00000E+00 0.00000E+00 0.00000E+00 0.00000E+00 0.00000E+00 0.00000E+00 1.27003E-02 0.00000E+00 2.52768E-02
      439  4.59132E-07 0.00000E+00-1.23214E-04 0.00000E+00 0.00000E+00 0.00000E+00 0.00000E+00 0.00000E+00 0.00000E+00 1.18841E-02 0.00000E+00 2.52768E-02
      440  4.98334E-07 0.00000E+00-1.23214E-04 0.00000E+00 0.00000E+00 0.00000E+00 0.00000E+00 0.00000E+00 0.00000E+00 1.10676E-02 0.00000E+00 2.52768E-02
      441  5.51978E-07 0.00000E+00-1.23214E-04 0.00000E+00 0.00000E+00 0.00000E+00 0.00000E+00 0.00000E+00 0.00000E+00 1.02513E-02 0.00000E+00 2.52768E-02
      442  6.07026E-07 0.00000E+00-1.23214E-04 0.00000E+00 0.00000E+00 0.00000E+00 0.00000E+00 0.00000E+00 0.00000E+00 9.43491E-03 0.00000E+00 2.52768E-02
      443  6.92888E-07 0.00000E+00-1.23214E-04 0.00000E+00 0.00000E+00 0.00000E+00 0.00000E+00 0.00000E+00 0.00000E+00 8.61859E-03 0.00000E+00 2.52768E-02
      444  9.09494E-07 0.00000E+00-1.23214E-04 0.00000E+00 0.00000E+00 0.00000E+00 0.00000E+00 0.00000E+00 0.00000E+00 7.80231E-03 0.00000E+00 2.52768E-02
      591  6.38703E-07 1.83893E-06-1.23214E-04 0.00000E+00 0.00000E+00 0.00000E+00 0.00000E+00 0.00000E+00 0.00000E+00 7.97334E-03 3.27334E-03 2.52768E-02
      592  6.68915E-07 1.81958E-06-1.23214E-04 0.00000E+00 0.00000E+00 0.00000E+00 0.00000E+00 0.00000E+00 0.00000E+00 8.73297E-03 3.57262E-03 2.52768E-02
      595  6.02041E-07 1.67956E-06-1.23214E-04 0.00000E+00 0.00000E+00 0.00000E+00 0.00000E+00 0.00000E+00 0.00000E+00 6.09660E-03 6.09318E-03 2.52768E-02
      596  6.93762E-07 1.64152E-06-1.23214E-04 0.00000E+00 0.00000E+00 0.00000E+00 0.00000E+00 0.00000E+00 0.00000E+00 6.67519E-03 6.66924E-03 2.52768E-02
      599  4.22203E-07 1.86054E-06-1.23214E-04 0.00000E+00 0.00000E+00 0.00000E+00 0.00000E+00 0.00000E+00 0.00000E+00 3.27672E-03 7.97256E-03 2.52768E-02
      600  4.85711E-07 1.83253E-06-1.23214E-04 0.00000E+00 0.00000E+00 0.00000E+00 0.00000E+00 0.00000E+00 0.00000E+00 3.57829E-03 8.73133E-03 2.52768E-02
      603  0.00000E+00 2.67129E-06-1.23214E-04 0.00000E+00 0.00000E+00 0.00000E+00 0.00000E+00 0.00000E+00 0.00000E+00 5.27700E-19 8.62057E-03 2.52768E-02
      604  0.00000E+00 2.51225E-06-1.23214E-04 0.00000E+00 0.00000E+00 0.00000E+00 0.00000E+00 0.00000E+00 0.00000E+00 5.77700E-19 9.43681E-03 2.52768E-02
      638  7.88739E-07 1.79489E-06-1.23214E-04 0.00000E+00 0.00000E+00 0.00000E+00 0.00000E+00 0.00000E+00 0.00000E+00 1.02525E-02 4.17119E-03 2.52768E-02
      639  7.74933E-07 1.72064E-06-1.23214E-04 0.00000E+00 0.00000E+00 0.00000E+00 0.00000E+00 0.00000E+00 0.00000E+00 1.10121E-02 4.47042E-03 2.52768E-02
      641  8.41829E-07 1.57946E-06-1.23214E-04 0.00000E+00 0.00000E+00 0.00000E+00 0.00000E+00 0.00000E+00 0.00000E+00 7.83224E-03 7.82148E-03 2.52768E-02
      642  1.01669E-06 1.66896E-06-1.23214E-04 0.00000E+00 0.00000E+00 0.00000E+00 0.00000E+00 0.00000E+00 0.00000E+00 8.41092E-03 8.39767E-03 2.52768E-02
      644  5.26993E-07 1.76934E-06-1.23214E-04 0.00000E+00 0.00000E+00 0.00000E+00 0.00000E+00 0.00000E+00 0.00000E+00 4.18123E-03 1.02489E-02 2.52768E-02
      645  3.52180E-07 1.56012E-06-1.23214E-04 0.00000E+00 0.00000E+00 0.00000E+00 0.00000E+00 0.00000E+00 0.00000E+00 4.48255E-03 1.10074E-02 2.52768E-02
      647  0.00000E+00 2.46763E-06-1.23214E-04 0.00000E+00 0.00000E+00 0.00000E+00 0.00000E+00 0.00000E+00 0.00000E+00 6.77700E-19 1.10696E-02 2.52768E-02
      648  0.00000E+00 2.96105E-06-1.23214E-04 0.00000E+00 0.00000E+00 0.00000E+00 0.00000E+00 0.00000E+00 0.00000E+00 7.27700E-19 1.18866E-02 2.52768E-02
      674  5.86512E-07 1.83000E-06-1.23214E-04 0.00000E+00 0.00000E+00 0.00000E+00 0.00000E+00 0.00000E+00 0.00000E+00 7.21359E-03 2.97403E-03 2.52768E-02
      676  5.23922E-07 1.71979E-06-1.23214E-04 0.00000E+00 0.00000E+00 0.00000E+00 0.00000E+00 0.00000E+00 0.00000E+00 5.51812E-03 5.51702E-03 2.52768E-02
      678  3.48960E-07 1.87626E-06-1.23214E-04 0.00000E+00 0.00000E+00 0.00000E+00 0.00000E+00 0.00000E+00 0.00000E+00 2.97515E-03 7.21388E-03 2.52768E-02
      680  0.00000E+00 2.93831E-06-1.23214E-04 0.00000E+00 0.00000E+00 0.00000E+00 0.00000E+00 0.00000E+00 0.00000E+00 4.77700E-19 7.80434E-03 2.52768E-02
      821  7.21445E-07 1.80443E-06-1.23214E-04 0.00000E+00 0.00000E+00 0.00000E+00 0.00000E+00 0.00000E+00 0.00000E+00 9.49272E-03 3.87190E-03 2.52768E-02
      822  7.72503E-07 1.60395E-06-1.23214E-04 0.00000E+00 0.00000E+00 0.00000E+00 0.00000E+00 0.00000E+00 0.00000E+00 7.25367E-03 7.24540E-03 2.52768E-02
      823  5.33816E-07 1.80385E-06-1.23214E-04 0.00000E+00 0.00000E+00 0.00000E+00 0.00000E+00 0.00000E+00 0.00000E+00 3.87983E-03 9.49010E-03 2.52768E-02
      824  0.00000E+00 2.41114E-06-1.23214E-04 0.00000E+00 0.00000E+00 0.00000E+00 0.00000E+00 0.00000E+00 0.00000E+00 6.27700E-19 1.02531E-02 2.52768E-02
      850  4.62856E-07 1.53933E-06-1.23214E-04 0.00000E+00 0.00000E+00 0.00000E+00 0.00000E+00 0.00000E+00 0.00000E+00 1.17715E-02 4.76964E-03 2.52768E-02
      852  5.92162E-07 1.53292E-06-1.23214E-04 0.00000E+00 0.00000E+00 0.00000E+00 0.00000E+00 0.00000E+00 0.00000E+00 8.98889E-03 8.97373E-03 2.52768E-02
      854  1.89561E-07 1.94012E-06-1.23214E-04 0.00000E+00 0.00000E+00 0.00000E+00 0.00000E+00 0.00000E+00 0.00000E+00 4.78389E-03 1.17665E-02 2.52768E-02
      856  0.00000E+00 4.00492E-06-1.23214E-04 0.00000E+00 0.00000E+00 0.00000E+00 0.00000E+00 0.00000E+00 0.00000E+00 7.77700E-19 1.27040E-02 2.52768E-02



 n o d a l   p r i n t   o u t   f o r   t i m e  s t e p     361                              ( at time 8.0041757E+00 )

 nodal point  x-disp     y-disp      z-disp      x-vel       y-vel       z-vel      x-accl      y-accl      z-accl      x-coor      y-coor      z-coor
        1  7.91404E-05 0.00000E+00 0.00000E+00 0.00000E+00 0.00000E+00 0.00000E+00 0.00000E+00 0.00000E+00 0.00000E+00 3.25414E-03 0.00000E+00-1.78000E-18
        2  5.58737E-05 0.00000E+00 0.00000E+00 0.00000E+00 0.00000E+00 0.00000E+00 0.00000E+00 0.00000E+00 0.00000E+00 2.43717E-03 0.00000E+00 0.00000E+00
        3  3.71967E-05 0.00000E+00 0.00000E+00 0.00000E+00 0.00000E+00 0.00000E+00 0.00000E+00 0.00000E+00 0.00000E+00 1.62470E-03 0.00000E+00 0.00000E+00
        4  1.91833E-05 0.00000E+00 0.00000E+00 0.00000E+00 0.00000E+00 0.00000E+00 0.00000E+00 0.00000E+00 0.00000E+00 8.12933E-04 0.00000E+00 0.00000E+00
        5  0.00000E+00 0.00000E+00 0.00000E+00 0.00000E+00 0.00000E+00 0.00000E+00 0.00000E+00 0.00000E+00 0.00000E+00 0.00000E+00 0.00000E+00 0.00000E+00
        6  0.00000E+00 1.98291E-05 0.00000E+00 0.00000E+00 0.00000E+00 0.00000E+00 0.00000E+00 0.00000E+00 0.00000E+00 4.86000E-20 8.13579E-04 0.00000E+00
        7  0.00000E+00 3.99934E-05 0.00000E+00 0.00000E+00 0.00000E+00 0.00000E+00 0.00000E+00 0.00000E+00 0.00000E+00 9.72100E-20 1.62749E-03 0.00000E+00
        8  0.00000E+00 6.11106E-05 0.00000E+00 0.00000E+00 0.00000E+00 0.00000E+00 0.00000E+00 0.00000E+00 0.00000E+00 1.45800E-19 2.44241E-03 0.00000E+00
        9  0.00000E+00 8.33029E-05 0.00000E+00 0.00000E+00 0.00000E+00 0.00000E+00 0.00000E+00 0.00000E+00 0.00000E+00 1.94400E-19 3.25830E-03 0.00000E+00
       10  3.50193E-05 7.93018E-05 0.00000E+00 0.00000E+00 0.00000E+00 0.00000E+00 0.00000E+00 0.00000E+00 0.00000E+00 1.25002E-03 3.01260E-03 0.00000E+00
       11  6.54520E-05 6.53796E-05 0.00000E+00 0.00000E+00 0.00000E+00 0.00000E+00 0.00000E+00 0.00000E+00 0.00000E+00 2.31055E-03 2.31048E-03 0.00000E+00
       12  8.17355E-05 3.71136E-05 0.00000E+00 0.00000E+00 0.00000E+00 0.00000E+00 0.00000E+00 0.00000E+00 0.00000E+00 3.01504E-03 1.25211E-03 0.00000E+00
       13  4.11481E-05 4.10094E-05 0.00000E+00 0.00000E+00 0.00000E+00 0.00000E+00 0.00000E+00 0.00000E+00 0.00000E+00 1.34945E-03 1.39291E-03 0.00000E+00
       14  4.42997E-05 2.27217E-05 0.00000E+00 0.00000E+00 0.00000E+00 0.00000E+00 0.00000E+00 0.00000E+00 0.00000E+00 1.53260E-03 7.29699E-04 0.00000E+00
       15  2.11879E-05 4.05622E-05 0.00000E+00 0.00000E+00 0.00000E+00 0.00000E+00 0.00000E+00 0.00000E+00 0.00000E+00 6.90698E-04 1.54756E-03 0.00000E+00
       16  2.22628E-05 2.12110E-05 0.00000E+00 0.00000E+00 0.00000E+00 0.00000E+00 0.00000E+00 0.00000E+00 0.00000E+00 7.75900E-04 8.03548E-04 0.00000E+00
       17  5.39436E-05 5.21235E-05 0.00000E+00 0.00000E+00 0.00000E+00 0.00000E+00 0.00000E+00 0.00000E+00 0.00000E+00 1.79024E-03 1.81962E-03 0.00000E+00
       18  2.80584E-05 5.89960E-05 0.00000E+00 0.00000E+00 0.00000E+00 0.00000E+00 0.00000E+00 0.00000E+00 0.00000E+00 9.48189E-04 2.25010E-03 0.00000E+00
       19  6.33334E-05 2.85044E-05 0.00000E+00 0.00000E+00 0.00000E+00 0.00000E+00 0.00000E+00 0.00000E+00 0.00000E+00 2.22663E-03 9.79363E-04 0.00000E+00
      220  0.00000E+00 2.35813E-06-1.60084E-04 0.00000E+00 0.00000E+00 0.00000E+00 0.00000E+00 0.00000E+00 0.00000E+00 2.13900E-19 3.49486E-03 2.52399E-02
      221  2.79403E-07 1.40584E-06-1.60084E-04 0.00000E+00 0.00000E+00 0.00000E+00 0.00000E+00 0.00000E+00 0.00000E+00 1.47278E-03 3.31581E-03 2.52399E-02
      222  1.83193E-07 1.41934E-06-1.60084E-04 0.00000E+00 0.00000E+00 0.00000E+00 0.00000E+00 0.00000E+00 0.00000E+00 2.02398E-03 4.82062E-03 2.52399E-02
      223  0.00000E+00 3.28526E-06-1.60084E-04 0.00000E+00 0.00000E+00 0.00000E+00 0.00000E+00 0.00000E+00 0.00000E+00 3.20800E-19 5.24209E-03 2.52399E-02
      248  3.10758E-07 1.85934E-06-1.60084E-04 0.00000E+00 0.00000E+00 0.00000E+00 0.00000E+00 0.00000E+00 0.00000E+00 2.67371E-03 6.45506E-03 2.52399E-02
      249  0.00000E+00 3.67038E-06-1.60084E-04 0.00000E+00 0.00000E+00 0.00000E+00 0.00000E+00 0.00000E+00 0.00000E+00 4.27700E-19 6.98867E-03 2.52399E-02
      286 -1.27136E-07 1.03095E-06-1.60084E-04 0.00000E+00 0.00000E+00 0.00000E+00 0.00000E+00 0.00000E+00 0.00000E+00 3.27317E-03 1.55583E-03 2.52399E-02
      287  5.30617E-07 5.97922E-07-1.60084E-04 0.00000E+00 0.00000E+00 0.00000E+00 0.00000E+00 0.00000E+00 0.00000E+00 2.87823E-03 2.97400E-03 2.52399E-02
      288 -1.99390E-08 1.05110E-06-1.60084E-04 0.00000E+00 0.00000E+00 0.00000E+00 0.00000E+00 0.00000E+00 0.00000E+00 1.65768E-03 1.72185E-03 2.52399E-02
      301  3.44111E-07 1.71043E-06-1.60084E-04 0.00000E+00 0.00000E+00 0.00000E+00 0.00000E+00 0.00000E+00 0.00000E+00 3.81964E-03 3.88941E-03 2.52399E-02
      314  7.65607E-07 2.02435E-06-1.60084E-04 0.00000E+00 0.00000E+00 0.00000E+00 0.00000E+00 0.00000E+00 0.00000E+00 4.93987E-03 4.94112E-03 2.52399E-02
      363  4.53526E-07 1.84268E-06-1.60084E-04 0.00000E+00 0.00000E+00 0.00000E+00 0.00000E+00 0.00000E+00 0.00000E+00 6.45385E-03 2.67474E-03 2.52399E-02
      364 -1.80593E-07 1.75476E-06-1.60084E-04 0.00000E+00 0.00000E+00 0.00000E+00 0.00000E+00 0.00000E+00 0.00000E+00 4.75792E-03 2.09295E-03 2.52399E-02
      365  2.66283E-06 0.00000E+00-1.60084E-04 0.00000E+00 0.00000E+00 0.00000E+00 0.00000E+00 0.00000E+00 0.00000E+00 5.24146E-03 0.00000E+00 2.52399E-02
      366  1.81956E-06 0.00000E+00-1.60084E-04 0.00000E+00 0.00000E+00 0.00000E+00 0.00000E+00 0.00000E+00 0.00000E+00 6.98682E-03 0.00000E+00 2.52399E-02
      379  0.00000E+00 1.52576E-06-1.60084E-04 0.00000E+00 0.00000E+00 0.00000E+00 0.00000E+00 0.00000E+00 0.00000E+00 1.06900E-19 1.74783E-03 2.52399E-02
      404  2.79377E-06 0.00000E+00-1.60084E-04 0.00000E+00 0.00000E+00 0.00000E+00 0.00000E+00 0.00000E+00 0.00000E+00 1.74909E-03 0.00000E+00 2.52399E-02
      405  0.00000E+00 0.00000E+00-1.60084E-04 0.00000E+00 0.00000E+00 0.00000E+00 0.00000E+00 0.00000E+00 0.00000E+00 0.00000E+00 0.00000E+00 2.52399E-02
      418  3.99548E-06 0.00000E+00-1.60084E-04 0.00000E+00 0.00000E+00 0.00000E+00 0.00000E+00 0.00000E+00 0.00000E+00 3.49650E-03 0.00000E+00 2.52399E-02
      438  4.18896E-07 0.00000E+00-1.60084E-04 0.00000E+00 0.00000E+00 0.00000E+00 0.00000E+00 0.00000E+00 0.00000E+00 1.27004E-02 0.00000E+00 2.52399E-02
      439  6.25646E-07 0.00000E+00-1.60084E-04 0.00000E+00 0.00000E+00 0.00000E+00 0.00000E+00 0.00000E+00 0.00000E+00 1.18842E-02 0.00000E+00 2.52399E-02
      440  6.65505E-07 0.00000E+00-1.60084E-04 0.00000E+00 0.00000E+00 0.00000E+00 0.00000E+00 0.00000E+00 0.00000E+00 1.10678E-02 0.00000E+00 2.52399E-02
      441  7.04905E-07 0.00000E+00-1.60084E-04 0.00000E+00 0.00000E+00 0.00000E+00 0.00000E+00 0.00000E+00 0.00000E+00 1.02514E-02 0.00000E+00 2.52399E-02
      442  7.52914E-07 0.00000E+00-1.60084E-04 0.00000E+00 0.00000E+00 0.00000E+00 0.00000E+00 0.00000E+00 0.00000E+00 9.43505E-03 0.00000E+00 2.52399E-02
      443  8.32414E-07 0.00000E+00-1.60084E-04 0.00000E+00 0.00000E+00 0.00000E+00 0.00000E+00 0.00000E+00 0.00000E+00 8.61873E-03 0.00000E+00 2.52399E-02
      444  1.07184E-06 0.00000E+00-1.60084E-04 0.00000E+00 0.00000E+00 0.00000E+00 0.00000E+00 0.00000E+00 0.00000E+00 7.80247E-03 0.00000E+00 2.52399E-02
      591  7.87072E-07 2.00088E-06-1.60084E-04 0.00000E+00 0.00000E+00 0.00000E+00 0.00000E+00 0.00000E+00 0.00000E+00 7.97349E-03 3.27350E-03 2.52399E-02
      592  8.24700E-07 1.96818E-06-1.60084E-04 0.00000E+00 0.00000E+00 0.00000E+00 0.00000E+00 0.00000E+00 0.00000E+00 8.73312E-03 3.57277E-03 2.52399E-02
      595  7.34343E-07 1.84330E-06-1.60084E-04 0.00000E+00 0.00000E+00 0.00000E+00 0.00000E+00 0.00000E+00 0.00000E+00 6.09673E-03 6.09334E-03 2.52399E-02
      596  8.24914E-07 1.80345E-06-1.60084E-04 0.00000E+00 0.00000E+00 0.00000E+00 0.00000E+00 0.00000E+00 0.00000E+00 6.67532E-03 6.66940E-03 2.52399E-02
      599  4.89554E-07 2.05352E-06-1.60084E-04 0.00000E+00 0.00000E+00 0.00000E+00 0.00000E+00 0.00000E+00 0.00000E+00 3.27679E-03 7.97275E-03 2.52399E-02
      600  5.51629E-07 2.04528E-06-1.60084E-04 0.00000E+00 0.00000E+00 0.00000E+00 0.00000E+00 0.00000E+00 0.00000E+00 3.57835E-03 8.73155E-03 2.52399E-02
      603  0.00000E+00 3.06273E-06-1.60084E-04 0.00000E+00 0.00000E+00 0.00000E+00 0.00000E+00 0.00000E+00 0.00000E+00 5.27700E-19 8.62096E-03 2.52399E-02
      604  0.00000E+00 2.85888E-06-1.60084E-04 0.00000E+00 0.00000E+00 0.00000E+00 0.00000E+00 0.00000E+00 0.00000E+00 5.77700E-19 9.43716E-03 2.52399E-02
      638  9.52721E-07 1.92371E-06-1.60084E-04 0.00000E+00 0.00000E+00 0.00000E+00 0.00000E+00 0.00000E+00 0.00000E+00 1.02527E-02 4.17132E-03 2.52399E-02
      639  9.31482E-07 1.85479E-06-1.60084E-04 0.00000E+00 0.00000E+00 0.00000E+00 0.00000E+00 0.00000E+00 0.00000E+00 1.10122E-02 4.47055E-03 2.52399E-02
      641  9.93018E-07 1.74123E-06-1.60084E-04 0.00000E+00 0.00000E+00 0.00000E+00 0.00000E+00 0.00000E+00 0.00000E+00 7.83239E-03 7.82164E-03 2.52399E-02
      642  1.17639E-06 1.83393E-06-1.60084E-04 0.00000E+00 0.00000E+00 0.00000E+00 0.00000E+00 0.00000E+00 0.00000E+00 8.41108E-03 8.39783E-03 2.52399E-02
      644  5.90939E-07 1.97624E-06-1.60084E-04 0.00000E+00 0.00000E+00 0.00000E+00 0.00000E+00 0.00000E+00 0.00000E+00 4.18129E-03 1.02491E-02 2.52399E-02
      645  4.01629E-07 1.77004E-06-1.60084E-04 0.00000E+00 0.00000E+00 0.00000E+00 0.00000E+00 0.00000E+00 0.00000E+00 4.48260E-03 1.10076E-02 2.52399E-02
      647  0.00000E+00 2.73440E-06-1.60084E-04 0.00000E+00 0.00000E+00 0.00000E+00 0.00000E+00 0.00000E+00 0.00000E+00 6.77700E-19 1.10698E-02 2.52399E-02
      648  0.00000E+00 3.21891E-06-1.60084E-04 0.00000E+00 0.00000E+00 0.00000E+00 0.00000E+00 0.00000E+00 0.00000E+00 7.27700E-19 1.18868E-02 2.52399E-02
      674  7.37397E-07 1.99266E-06-1.60084E-04 0.00000E+00 0.00000E+00 0.00000E+00 0.00000E+00 0.00000E+00 0.00000E+00 7.21374E-03 2.97419E-03 2.52399E-02
      676  6.29219E-07 1.88862E-06-1.60084E-04 0.00000E+00 0.00000E+00 0.00000E+00 0.00000E+00 0.00000E+00 0.00000E+00 5.51823E-03 5.51719E-03 2.52399E-02
      678  4.02295E-07 2.03648E-06-1.60084E-04 0.00000E+00 0.00000E+00 0.00000E+00 0.00000E+00 0.00000E+00 0.00000E+00 2.97520E-03 7.21404E-03 2.52399E-02
      680  0.00000E+00 3.30799E-06-1.60084E-04 0.00000E+00 0.00000E+00 0.00000E+00 0.00000E+00 0.00000E+00 0.00000E+00 4.77700E-19 7.80471E-03 2.52399E-02
      821  8.83271E-07 1.94267E-06-1.60084E-04 0.00000E+00 0.00000E+00 0.00000E+00 0.00000E+00 0.00000E+00 0.00000E+00 9.49288E-03 3.87204E-03 2.52399E-02
      822  9.08748E-07 1.76037E-06-1.60084E-04 0.00000E+00 0.00000E+00 0.00000E+00 0.00000E+00 0.00000E+00 0.00000E+00 7.25381E-03 7.24556E-03 2.52399E-02
      823  6.00374E-07 2.03241E-06-1.60084E-04 0.00000E+00 0.00000E+00 0.00000E+00 0.00000E+00 0.00000E+00 0.00000E+00 3.87990E-03 9.49033E-03 2.52399E-02
      824  0.00000E+00 2.71489E-06-1.60084E-04 0.00000E+00 0.00000E+00 0.00000E+00 0.00000E+00 0.00000E+00 0.00000E+00 6.27700E-19 1.02534E-02 2.52399E-02
      850  6.40730E-07 1.68558E-06-1.60084E-04 0.00000E+00 0.00000E+00 0.00000E+00 0.00000E+00 0.00000E+00 0.00000E+00 1.17716E-02 4.76979E-03 2.52399E-02
      852  7.08076E-07 1.67503E-06-1.60084E-04 0.00000E+00 0.00000E+00 0.00000E+00 0.00000E+00 0.00000E+00 0.00000E+00 8.98901E-03 8.97388E-03 2.52399E-02
      854  2.59841E-07 2.16989E-06-1.60084E-04 0.00000E+00 0.00000E+00 0.00000E+00 0.00000E+00 0.00000E+00 0.00000E+00 4.78396E-03 1.17668E-02 2.52399E-02
      856  0.00000E+00 4.26956E-06-1.60084E-04 0.00000E+00 0.00000E+00 0.00000E+00 0.00000E+00 0.00000E+00 0.00000E+00 7.77700E-19 1.27043E-02 2.52399E-02



 n o d a l   p r i n t   o u t   f o r   t i m e  s t e p     370                              ( at time 9.8476482E+00 )

 nodal point  x-disp     y-disp      z-disp      x-vel       y-vel       z-vel      x-accl      y-accl      z-accl      x-coor      y-coor      z-coor
        1  1.04990E-04 0.00000E+00 0.00000E+00 0.00000E+00 0.00000E+00 0.00000E+00 0.00000E+00 0.00000E+00 0.00000E+00 3.27999E-03 0.00000E+00-1.78000E-18
        2  7.28770E-05 0.00000E+00 0.00000E+00 0.00000E+00 0.00000E+00 0.00000E+00 0.00000E+00 0.00000E+00 0.00000E+00 2.45418E-03 0.00000E+00 0.00000E+00
        3  4.79990E-05 0.00000E+00 0.00000E+00 0.00000E+00 0.00000E+00 0.00000E+00 0.00000E+00 0.00000E+00 0.00000E+00 1.63550E-03 0.00000E+00 0.00000E+00
        4  2.47237E-05 0.00000E+00 0.00000E+00 0.00000E+00 0.00000E+00 0.00000E+00 0.00000E+00 0.00000E+00 0.00000E+00 8.18474E-04 0.00000E+00 0.00000E+00
        5  0.00000E+00 0.00000E+00 0.00000E+00 0.00000E+00 0.00000E+00 0.00000E+00 0.00000E+00 0.00000E+00 0.00000E+00 0.00000E+00 0.00000E+00 0.00000E+00
        6  0.00000E+00 2.63971E-05 0.00000E+00 0.00000E+00 0.00000E+00 0.00000E+00 0.00000E+00 0.00000E+00 0.00000E+00 4.86000E-20 8.20147E-04 0.00000E+00
        7  0.00000E+00 5.24758E-05 0.00000E+00 0.00000E+00 0.00000E+00 0.00000E+00 0.00000E+00 0.00000E+00 0.00000E+00 9.72100E-20 1.63998E-03 0.00000E+00
        8  0.00000E+00 7.90150E-05 0.00000E+00 0.00000E+00 0.00000E+00 0.00000E+00 0.00000E+00 0.00000E+00 0.00000E+00 1.45800E-19 2.46031E-03 0.00000E+00
        9  0.00000E+00 1.06530E-04 0.00000E+00 0.00000E+00 0.00000E+00 0.00000E+00 0.00000E+00 0.00000E+00 0.00000E+00 1.94400E-19 3.28153E-03 0.00000E+00
       10  4.41722E-05 1.02285E-04 0.00000E+00 0.00000E+00 0.00000E+00 0.00000E+00 0.00000E+00 0.00000E+00 0.00000E+00 1.25917E-03 3.03559E-03 0.00000E+00
       11  8.25755E-05 8.37712E-05 0.00000E+00 0.00000E+00 0.00000E+00 0.00000E+00 0.00000E+00 0.00000E+00 0.00000E+00 2.32768E-03 2.32887E-03 0.00000E+00
       12  1.05074E-04 4.95210E-05 0.00000E+00 0.00000E+00 0.00000E+00 0.00000E+00 0.00000E+00 0.00000E+00 0.00000E+00 3.03837E-03 1.26452E-03 0.00000E+00
       13  5.24342E-05 5.38373E-05 0.00000E+00 0.00000E+00 0.00000E+00 0.00000E+00 0.00000E+00 0.00000E+00 0.00000E+00 1.36073E-03 1.40574E-03 0.00000E+00
       14  5.64320E-05 2.85280E-05 0.00000E+00 0.00000E+00 0.00000E+00 0.00000E+00 0.00000E+00 0.00000E+00 0.00000E+00 1.54473E-03 7.35505E-04 0.00000E+00
       15  2.64550E-05 5.35889E-05 0.00000E+00 0.00000E+00 0.00000E+00 0.00000E+00 0.00000E+00 0.00000E+00 0.00000E+00 6.95965E-04 1.56059E-03 0.00000E+00
       16  2.80526E-05 2.76567E-05 0.00000E+00 0.00000E+00 0.00000E+00 0.00000E+00 0.00000E+00 0.00000E+00 0.00000E+00 7.81690E-04 8.09994E-04 0.00000E+00
       17  6.84040E-05 6.75858E-05 0.00000E+00 0.00000E+00 0.00000E+00 0.00000E+00 0.00000E+00 0.00000E+00 0.00000E+00 1.80470E-03 1.83509E-03 0.00000E+00
       18  3.58379E-05 7.69247E-05 0.00000E+00 0.00000E+00 0.00000E+00 0.00000E+00 0.00000E+00 0.00000E+00 0.00000E+00 9.55969E-04 2.26802E-03 0.00000E+00
       19  8.07364E-05 3.75847E-05 0.00000E+00 0.00000E+00 0.00000E+00 0.00000E+00 0.00000E+00 0.00000E+00 0.00000E+00 2.24404E-03 9.88443E-04 0.00000E+00
[...]
      220  0.00000E+00 2.85006E-06-1.95567E-03 0.00000E+00 0.00000E+00 0.00000E+00 0.00000E+00 0.00000E+00 0.00000E+00 2.13900E-19 3.49535E-03 2.34443E-02
      221  3.94099E-07 7.54923E-07-1.95567E-03 0.00000E+00 0.00000E+00 0.00000E+00 0.00000E+00 0.00000E+00 0.00000E+00 1.47289E-03 3.31515E-03 2.34443E-02
      222  2.31018E-07 9.60475E-07-1.95567E-03 0.00000E+00 0.00000E+00 0.00000E+00 0.00000E+00 0.00000E+00 0.00000E+00 2.02403E-03 4.82016E-03 2.34443E-02
      223  0.00000E+00 3.66390E-06-1.95567E-03 0.00000E+00 0.00000E+00 0.00000E+00 0.00000E+00 0.00000E+00 0.00000E+00 3.20800E-19 5.24246E-03 2.34443E-02
      248  3.24333E-07 1.32573E-06-1.95567E-03 0.00000E+00 0.00000E+00 0.00000E+00 0.00000E+00 0.00000E+00 0.00000E+00 2.67372E-03 6.45453E-03 2.34443E-02
      249  0.00000E+00 3.77033E-06-1.95567E-03 0.00000E+00 0.00000E+00 0.00000E+00 0.00000E+00 0.00000E+00 0.00000E+00 4.27700E-19 6.98877E-03 2.34443E-02
      286 -1.34048E-07 3.58897E-07-1.95567E-03 0.00000E+00 0.00000E+00 0.00000E+00 0.00000E+00 0.00000E+00 0.00000E+00 3.27317E-03 1.55516E-03 2.34443E-02
      287  7.01809E-07-2.29468E-07-1.95567E-03 0.00000E+00 0.00000E+00 0.00000E+00 0.00000E+00 0.00000E+00 0.00000E+00 2.87840E-03 2.97317E-03 2.34443E-02
      288 -2.29641E-07-9.30279E-08-1.95567E-03 0.00000E+00 0.00000E+00 0.00000E+00 0.00000E+00 0.00000E+00 0.00000E+00 1.65747E-03 1.72071E-03 2.34443E-02
      301  2.65492E-07 7.69999E-07-1.95567E-03 0.00000E+00 0.00000E+00 0.00000E+00 0.00000E+00 0.00000E+00 0.00000E+00 3.81957E-03 3.88847E-03 2.34443E-02
      314  6.87018E-07 1.24840E-06-1.95567E-03 0.00000E+00 0.00000E+00 0.00000E+00 0.00000E+00 0.00000E+00 0.00000E+00 4.93979E-03 4.94035E-03 2.34443E-02
      363  6.89049E-07 9.27719E-07-1.95567E-03 0.00000E+00 0.00000E+00 0.00000E+00 0.00000E+00 0.00000E+00 0.00000E+00 6.45409E-03 2.67383E-03 2.34443E-02
      364  1.02779E-07 1.18407E-06-1.95567E-03 0.00000E+00 0.00000E+00 0.00000E+00 0.00000E+00 0.00000E+00 0.00000E+00 4.75820E-03 2.09238E-03 2.34443E-02
      365  2.45280E-06 0.00000E+00-1.95567E-03 0.00000E+00 0.00000E+00 0.00000E+00 0.00000E+00 0.00000E+00 0.00000E+00 5.24125E-03 0.00000E+00 2.34443E-02
      366  1.56302E-06 0.00000E+00-1.95567E-03 0.00000E+00 0.00000E+00 0.00000E+00 0.00000E+00 0.00000E+00 0.00000E+00 6.98656E-03 0.00000E+00 2.34443E-02
      379  0.00000E+00 1.23010E-06-1.95567E-03 0.00000E+00 0.00000E+00 0.00000E+00 0.00000E+00 0.00000E+00 0.00000E+00 1.06900E-19 1.74753E-03 2.34443E-02
      404  2.53182E-06 0.00000E+00-1.95567E-03 0.00000E+00 0.00000E+00 0.00000E+00 0.00000E+00 0.00000E+00 0.00000E+00 1.74883E-03 0.00000E+00 2.34443E-02
      405  0.00000E+00 0.00000E+00-1.95567E-03 0.00000E+00 0.00000E+00 0.00000E+00 0.00000E+00 0.00000E+00 0.00000E+00 0.00000E+00 0.00000E+00 2.34443E-02
      418  3.73715E-06 0.00000E+00-1.95567E-03 0.00000E+00 0.00000E+00 0.00000E+00 0.00000E+00 0.00000E+00 0.00000E+00 3.49624E-03 0.00000E+00 2.34443E-02
      438  7.08842E-07 0.00000E+00-1.95567E-03 0.00000E+00 0.00000E+00 0.00000E+00 0.00000E+00 0.00000E+00 0.00000E+00 1.27007E-02 0.00000E+00 2.34443E-02
      439  8.69712E-07 0.00000E+00-1.95567E-03 0.00000E+00 0.00000E+00 0.00000E+00 0.00000E+00 0.00000E+00 0.00000E+00 1.18845E-02 0.00000E+00 2.34443E-02
      440  8.83251E-07 0.00000E+00-1.95567E-03 0.00000E+00 0.00000E+00 0.00000E+00 0.00000E+00 0.00000E+00 0.00000E+00 1.10680E-02 0.00000E+00 2.34443E-02
      441  9.04118E-07 0.00000E+00-1.95567E-03 0.00000E+00 0.00000E+00 0.00000E+00 0.00000E+00 0.00000E+00 0.00000E+00 1.02516E-02 0.00000E+00 2.34443E-02
      442  9.79310E-07 0.00000E+00-1.95567E-03 0.00000E+00 0.00000E+00 0.00000E+00 0.00000E+00 0.00000E+00 0.00000E+00 9.43528E-03 0.00000E+00 2.34443E-02
      443  9.79578E-07 0.00000E+00-1.95567E-03 0.00000E+00 0.00000E+00 0.00000E+00 0.00000E+00 0.00000E+00 0.00000E+00 8.61888E-03 0.00000E+00 2.34443E-02
      444  1.07620E-06 0.00000E+00-1.95567E-03 0.00000E+00 0.00000E+00 0.00000E+00 0.00000E+00 0.00000E+00 0.00000E+00 7.80248E-03 0.00000E+00 2.34443E-02
      591  7.84228E-07 9.32021E-07-1.95567E-03 0.00000E+00 0.00000E+00 0.00000E+00 0.00000E+00 0.00000E+00 0.00000E+00 7.97348E-03 3.27243E-03 2.34443E-02
      592  7.61372E-07 8.87820E-07-1.95567E-03 0.00000E+00 0.00000E+00 0.00000E+00 0.00000E+00 0.00000E+00 0.00000E+00 8.73306E-03 3.57169E-03 2.34443E-02
      595  4.73858E-07 1.22222E-06-1.95567E-03 0.00000E+00 0.00000E+00 0.00000E+00 0.00000E+00 0.00000E+00 0.00000E+00 6.09647E-03 6.09272E-03 2.34443E-02
      596  5.82315E-07 1.31497E-06-1.95567E-03 0.00000E+00 0.00000E+00 0.00000E+00 0.00000E+00 0.00000E+00 0.00000E+00 6.67508E-03 6.66891E-03 2.34443E-02
      599  2.67875E-07 1.53941E-06-1.95567E-03 0.00000E+00 0.00000E+00 0.00000E+00 0.00000E+00 0.00000E+00 0.00000E+00 3.27657E-03 7.97224E-03 2.34443E-02
      600  2.84413E-07 1.46966E-06-1.95567E-03 0.00000E+00 0.00000E+00 0.00000E+00 0.00000E+00 0.00000E+00 0.00000E+00 3.57808E-03 8.73097E-03 2.34443E-02
      603  0.00000E+00 3.10892E-06-1.95567E-03 0.00000E+00 0.00000E+00 0.00000E+00 0.00000E+00 0.00000E+00 0.00000E+00 5.27700E-19 8.62101E-03 2.34443E-02
      604  0.00000E+00 3.10805E-06-1.95567E-03 0.00000E+00 0.00000E+00 0.00000E+00 0.00000E+00 0.00000E+00 0.00000E+00 5.77700E-19 9.43741E-03 2.34443E-02
      638  1.01258E-06 8.06681E-07-1.95567E-03 0.00000E+00 0.00000E+00 0.00000E+00 0.00000E+00 0.00000E+00 0.00000E+00 1.02527E-02 4.17021E-03 2.34443E-02
      639  1.00667E-06 8.10046E-07-1.95567E-03 0.00000E+00 0.00000E+00 0.00000E+00 0.00000E+00 0.00000E+00 0.00000E+00 1.10123E-02 4.46951E-03 2.34443E-02
      641  7.50501E-07 1.40587E-06-1.95567E-03 0.00000E+00 0.00000E+00 0.00000E+00 0.00000E+00 0.00000E+00 0.00000E+00 7.83215E-03 7.82131E-03 2.34443E-02
      642  8.06856E-07 1.58331E-06-1.95567E-03 0.00000E+00 0.00000E+00 0.00000E+00 0.00000E+00 0.00000E+00 0.00000E+00 8.41071E-03 8.39758E-03 2.34443E-02
      644  2.32379E-07 1.30616E-06-1.95567E-03 0.00000E+00 0.00000E+00 0.00000E+00 0.00000E+00 0.00000E+00 0.00000E+00 4.18093E-03 1.02484E-02 2.34443E-02
      645  1.42889E-07 1.22916E-06-1.95567E-03 0.00000E+00 0.00000E+00 0.00000E+00 0.00000E+00 0.00000E+00 0.00000E+00 4.48234E-03 1.10070E-02 2.34443E-02
      647  0.00000E+00 2.98380E-06-1.95567E-03 0.00000E+00 0.00000E+00 0.00000E+00 0.00000E+00 0.00000E+00 0.00000E+00 6.77700E-19 1.10701E-02 2.34443E-02
      648  0.00000E+00 3.12900E-06-1.95567E-03 0.00000E+00 0.00000E+00 0.00000E+00 0.00000E+00 0.00000E+00 0.00000E+00 7.27700E-19 1.18867E-02 2.34443E-02
      674  7.74178E-07 9.86793E-07-1.95567E-03 0.00000E+00 0.00000E+00 0.00000E+00 0.00000E+00 0.00000E+00 0.00000E+00 7.21377E-03 2.97319E-03 2.34443E-02
      676  5.00671E-07 1.12439E-06-1.95567E-03 0.00000E+00 0.00000E+00 0.00000E+00 0.00000E+00 0.00000E+00 0.00000E+00 5.51810E-03 5.51642E-03 2.34443E-02
      678  1.90206E-07 1.51476E-06-1.95567E-03 0.00000E+00 0.00000E+00 0.00000E+00 0.00000E+00 0.00000E+00 0.00000E+00 2.97499E-03 7.21351E-03 2.34443E-02
      680  0.00000E+00 3.40751E-06-1.95567E-03 0.00000E+00 0.00000E+00 0.00000E+00 0.00000E+00 0.00000E+00 0.00000E+00 4.77700E-19 7.80481E-03 2.34443E-02
      821  9.54534E-07 8.09649E-07-1.95567E-03 0.00000E+00 0.00000E+00 0.00000E+00 0.00000E+00 0.00000E+00 0.00000E+00 9.49295E-03 3.87091E-03 2.34443E-02
      822  6.59567E-07 1.30023E-06-1.95567E-03 0.00000E+00 0.00000E+00 0.00000E+00 0.00000E+00 0.00000E+00 0.00000E+00 7.25356E-03 7.24510E-03 2.34443E-02
      823  2.79559E-07 1.31810E-06-1.95567E-03 0.00000E+00 0.00000E+00 0.00000E+00 0.00000E+00 0.00000E+00 0.00000E+00 3.87958E-03 9.48962E-03 2.34443E-02
      824  0.00000E+00 3.02938E-06-1.95567E-03 0.00000E+00 0.00000E+00 0.00000E+00 0.00000E+00 0.00000E+00 0.00000E+00 6.27700E-19 1.02537E-02 2.34443E-02
      850  8.54588E-07 8.38835E-07-1.95567E-03 0.00000E+00 0.00000E+00 0.00000E+00 0.00000E+00 0.00000E+00 0.00000E+00 1.17719E-02 4.76894E-03 2.34443E-02
      852  4.03612E-07 1.54238E-06-1.95567E-03 0.00000E+00 0.00000E+00 0.00000E+00 0.00000E+00 0.00000E+00 0.00000E+00 8.98870E-03 8.97374E-03 2.34443E-02
      854  2.08946E-07 1.72270E-06-1.95567E-03 0.00000E+00 0.00000E+00 0.00000E+00 0.00000E+00 0.00000E+00 0.00000E+00 4.78391E-03 1.17663E-02 2.34443E-02
      856  0.00000E+00 3.15433E-06-1.95567E-03 0.00000E+00 0.00000E+00 0.00000E+00 0.00000E+00 0.00000E+00 0.00000E+00 7.77700E-19 1.27032E-02 2.34443E-02



 n o d a l   p r i n t   o u t   f o r   t i m e  s t e p     692                              ( at time 1.0000000E+02 )

 nodal point  x-disp     y-disp      z-disp      x-vel       y-vel       z-vel      x-accl      y-accl      z-accl      x-coor      y-coor      z-coor
        1  1.83116E-03 0.00000E+00 0.00000E+00 0.00000E+00 0.00000E+00 0.00000E+00 0.00000E+00 0.00000E+00 0.00000E+00 5.00616E-03 0.00000E+00-1.78000E-18
        2  1.38496E-03 0.00000E+00 0.00000E+00 0.00000E+00 0.00000E+00 0.00000E+00 0.00000E+00 0.00000E+00 0.00000E+00 3.76626E-03 0.00000E+00 0.00000E+00
        3  9.18178E-04 0.00000E+00 0.00000E+00 0.00000E+00 0.00000E+00 0.00000E+00 0.00000E+00 0.00000E+00 0.00000E+00 2.50568E-03 0.00000E+00 0.00000E+00
        4  4.71755E-04 0.00000E+00 0.00000E+00 0.00000E+00 0.00000E+00 0.00000E+00 0.00000E+00 0.00000E+00 0.00000E+00 1.26550E-03 0.00000E+00 0.00000E+00
        5  0.00000E+00 0.00000E+00 0.00000E+00 0.00000E+00 0.00000E+00 0.00000E+00 0.00000E+00 0.00000E+00 0.00000E+00 0.00000E+00 0.00000E+00 0.00000E+00
        6  0.00000E+00 4.36733E-04 0.00000E+00 0.00000E+00 0.00000E+00 0.00000E+00 0.00000E+00 0.00000E+00 0.00000E+00 4.86000E-20 1.23048E-03 0.00000E+00
        7  0.00000E+00 8.71922E-04 0.00000E+00 0.00000E+00 0.00000E+00 0.00000E+00 0.00000E+00 0.00000E+00 0.00000E+00 9.72100E-20 2.45942E-03 0.00000E+00
        8  0.00000E+00 1.23043E-03 0.00000E+00 0.00000E+00 0.00000E+00 0.00000E+00 0.00000E+00 0.00000E+00 0.00000E+00 1.45800E-19 3.61173E-03 0.00000E+00
        9  0.00000E+00 1.60480E-03 0.00000E+00 0.00000E+00 0.00000E+00 0.00000E+00 0.00000E+00 0.00000E+00 0.00000E+00 1.94400E-19 4.77980E-03 0.00000E+00
       10  7.03731E-04 1.47952E-03 0.00000E+00 0.00000E+00 0.00000E+00 0.00000E+00 0.00000E+00 0.00000E+00 0.00000E+00 1.91873E-03 4.41282E-03 0.00000E+00
       11  1.19449E-03 1.13822E-03 0.00000E+00 0.00000E+00 0.00000E+00 0.00000E+00 0.00000E+00 0.00000E+00 0.00000E+00 3.43959E-03 3.38332E-03 0.00000E+00
       12  1.66158E-03 7.51595E-04 0.00000E+00 0.00000E+00 0.00000E+00 0.00000E+00 0.00000E+00 0.00000E+00 0.00000E+00 4.59488E-03 1.96659E-03 0.00000E+00
       13  8.45817E-04 7.88489E-04 0.00000E+00 0.00000E+00 0.00000E+00 0.00000E+00 0.00000E+00 0.00000E+00 0.00000E+00 2.15412E-03 2.14039E-03 0.00000E+00
       14  9.55465E-04 4.43092E-04 0.00000E+00 0.00000E+00 0.00000E+00 0.00000E+00 0.00000E+00 0.00000E+00 0.00000E+00 2.44377E-03 1.15007E-03 0.00000E+00
       15  4.43833E-04 8.75876E-04 0.00000E+00 0.00000E+00 0.00000E+00 0.00000E+00 0.00000E+00 0.00000E+00 0.00000E+00 1.11334E-03 2.38288E-03 0.00000E+00
       16  5.11009E-04 4.71249E-04 0.00000E+00 0.00000E+00 0.00000E+00 0.00000E+00 0.00000E+00 0.00000E+00 0.00000E+00 1.26465E-03 1.25359E-03 0.00000E+00
       17  1.03400E-03 9.62188E-04 0.00000E+00 0.00000E+00 0.00000E+00 0.00000E+00 0.00000E+00 0.00000E+00 0.00000E+00 2.77030E-03 2.72969E-03 0.00000E+00
       18  5.62871E-04 1.19363E-03 0.00000E+00 0.00000E+00 0.00000E+00 0.00000E+00 0.00000E+00 0.00000E+00 0.00000E+00 1.48300E-03 3.38473E-03 0.00000E+00
       19  1.30851E-03 5.35384E-04 0.00000E+00 0.00000E+00 0.00000E+00 0.00000E+00 0.00000E+00 0.00000E+00 0.00000E+00 3.47181E-03 1.48624E-03 0.00000E+00
      220  0.00000E+00 3.12077E-06-2.00000E-03 0.00000E+00 0.00000E+00 0.00000E+00 0.00000E+00 0.00000E+00 0.00000E+00 2.13900E-19 3.49562E-03 2.34000E-02
      221  3.96078E-07 1.11095E-06-2.00000E-03 0.00000E+00 0.00000E+00 0.00000E+00 0.00000E+00 0.00000E+00 0.00000E+00 1.47290E-03 3.31551E-03 2.34000E-02
      222  2.65835E-07 1.45837E-06-2.00000E-03 0.00000E+00 0.00000E+00 0.00000E+00 0.00000E+00 0.00000E+00 0.00000E+00 2.02407E-03 4.82066E-03 2.34000E-02
      223  0.00000E+00 3.93483E-06-2.00000E-03 0.00000E+00 0.00000E+00 0.00000E+00 0.00000E+00 0.00000E+00 0.00000E+00 3.20800E-19 5.24273E-03 2.34000E-02
      248  3.93338E-07 2.24657E-06-2.00000E-03 0.00000E+00 0.00000E+00 0.00000E+00 0.00000E+00 0.00000E+00 0.00000E+00 2.67379E-03 6.45545E-03 2.34000E-02
      249  0.00000E+00 4.48885E-06-2.00000E-03 0.00000E+00 0.00000E+00 0.00000E+00 0.00000E+00 0.00000E+00 0.00000E+00 4.27700E-19 6.98949E-03 2.34000E-02
      286  6.03220E-08 5.07297E-07-2.00000E-03 0.00000E+00 0.00000E+00 0.00000E+00 0.00000E+00 0.00000E+00 0.00000E+00 3.27336E-03 1.55531E-03 2.34000E-02
      287  5.12141E-07 5.56455E-07-2.00000E-03 0.00000E+00 0.00000E+00 0.00000E+00 0.00000E+00 0.00000E+00 0.00000E+00 2.87821E-03 2.97396E-03 2.34000E-02
      288  2.73112E-07 2.23195E-07-2.00000E-03 0.00000E+00 0.00000E+00 0.00000E+00 0.00000E+00 0.00000E+00 0.00000E+00 1.65797E-03 1.72102E-03 2.34000E-02
      301  6.03268E-07 1.68346E-06-2.00000E-03 0.00000E+00 0.00000E+00 0.00000E+00 0.00000E+00 0.00000E+00 0.00000E+00 3.81990E-03 3.88938E-03 2.34000E-02
      314  6.97121E-07 2.13957E-06-2.00000E-03 0.00000E+00 0.00000E+00 0.00000E+00 0.00000E+00 0.00000E+00 0.00000E+00 4.93980E-03 4.94124E-03 2.34000E-02
      363  5.71859E-07 1.48990E-06-2.00000E-03 0.00000E+00 0.00000E+00 0.00000E+00 0.00000E+00 0.00000E+00 0.00000E+00 6.45397E-03 2.67439E-03 2.34000E-02
      364 -2.01324E-07 1.00546E-06-2.00000E-03 0.00000E+00 0.00000E+00 0.00000E+00 0.00000E+00 0.00000E+00 0.00000E+00 4.75790E-03 2.09221E-03 2.34000E-02
      365  2.18807E-06 0.00000E+00-2.00000E-03 0.00000E+00 0.00000E+00 0.00000E+00 0.00000E+00 0.00000E+00 0.00000E+00 5.24099E-03 0.00000E+00 2.34000E-02
      366  1.26077E-06 0.00000E+00-2.00000E-03 0.00000E+00 0.00000E+00 0.00000E+00 0.00000E+00 0.00000E+00 0.00000E+00 6.98626E-03 0.00000E+00 2.34000E-02
      379  0.00000E+00 1.68920E-06-2.00000E-03 0.00000E+00 0.00000E+00 0.00000E+00 0.00000E+00 0.00000E+00 0.00000E+00 1.06900E-19 1.74799E-03 2.34000E-02
      404  2.68466E-06 0.00000E+00-2.00000E-03 0.00000E+00 0.00000E+00 0.00000E+00 0.00000E+00 0.00000E+00 0.00000E+00 1.74898E-03 0.00000E+00 2.34000E-02
      405  0.00000E+00 0.00000E+00-2.00000E-03 0.00000E+00 0.00000E+00 0.00000E+00 0.00000E+00 0.00000E+00 0.00000E+00 0.00000E+00 0.00000E+00 2.34000E-02
      418  3.58872E-06 0.00000E+00-2.00000E-03 0.00000E+00 0.00000E+00 0.00000E+00 0.00000E+00 0.00000E+00 0.00000E+00 3.49609E-03 0.00000E+00 2.34000E-02
      438 -1.23654E-07 0.00000E+00-2.00000E-03 0.00000E+00 0.00000E+00 0.00000E+00 0.00000E+00 0.00000E+00 0.00000E+00 1.26999E-02 0.00000E+00 2.34000E-02
      439  1.48272E-07 0.00000E+00-2.00000E-03 0.00000E+00 0.00000E+00 0.00000E+00 0.00000E+00 0.00000E+00 0.00000E+00 1.18837E-02 0.00000E+00 2.34000E-02
      440  2.90891E-07 0.00000E+00-2.00000E-03 0.00000E+00 0.00000E+00 0.00000E+00 0.00000E+00 0.00000E+00 0.00000E+00 1.10674E-02 0.00000E+00 2.34000E-02
      441  3.45484E-07 0.00000E+00-2.00000E-03 0.00000E+00 0.00000E+00 0.00000E+00 0.00000E+00 0.00000E+00 0.00000E+00 1.02510E-02 0.00000E+00 2.34000E-02
      442  3.93649E-07 0.00000E+00-2.00000E-03 0.00000E+00 0.00000E+00 0.00000E+00 0.00000E+00 0.00000E+00 0.00000E+00 9.43469E-03 0.00000E+00 2.34000E-02
      443  5.06892E-07 0.00000E+00-2.00000E-03 0.00000E+00 0.00000E+00 0.00000E+00 0.00000E+00 0.00000E+00 0.00000E+00 8.61841E-03 0.00000E+00 2.34000E-02
      444  6.86814E-07 0.00000E+00-2.00000E-03 0.00000E+00 0.00000E+00 0.00000E+00 0.00000E+00 0.00000E+00 0.00000E+00 7.80209E-03 0.00000E+00 2.34000E-02
      591  6.31363E-07 1.73551E-06-2.00000E-03 0.00000E+00 0.00000E+00 0.00000E+00 0.00000E+00 0.00000E+00 0.00000E+00 7.97333E-03 3.27324E-03 2.34000E-02
      592  6.52368E-07 1.70926E-06-2.00000E-03 0.00000E+00 0.00000E+00 0.00000E+00 0.00000E+00 0.00000E+00 0.00000E+00 8.73295E-03 3.57251E-03 2.34000E-02
      595  7.16314E-07 2.17339E-06-2.00000E-03 0.00000E+00 0.00000E+00 0.00000E+00 0.00000E+00 0.00000E+00 0.00000E+00 6.09672E-03 6.09367E-03 2.34000E-02
      596  7.73778E-07 2.10322E-06-2.00000E-03 0.00000E+00 0.00000E+00 0.00000E+00 0.00000E+00 0.00000E+00 0.00000E+00 6.67527E-03 6.66970E-03 2.34000E-02
      599  4.13573E-07 2.29018E-06-2.00000E-03 0.00000E+00 0.00000E+00 0.00000E+00 0.00000E+00 0.00000E+00 0.00000E+00 3.27671E-03 7.97299E-03 2.34000E-02
      600  4.68611E-07 2.27561E-06-2.00000E-03 0.00000E+00 0.00000E+00 0.00000E+00 0.00000E+00 0.00000E+00 0.00000E+00 3.57827E-03 8.73178E-03 2.34000E-02
      603  0.00000E+00 4.04692E-06-2.00000E-03 0.00000E+00 0.00000E+00 0.00000E+00 0.00000E+00 0.00000E+00 0.00000E+00 5.27700E-19 8.62195E-03 2.34000E-02
      604  0.00000E+00 3.77355E-06-2.00000E-03 0.00000E+00 0.00000E+00 0.00000E+00 0.00000E+00 0.00000E+00 0.00000E+00 5.77700E-19 9.43807E-03 2.34000E-02
      638  6.84285E-07 1.57737E-06-2.00000E-03 0.00000E+00 0.00000E+00 0.00000E+00 0.00000E+00 0.00000E+00 0.00000E+00 1.02524E-02 4.17098E-03 2.34000E-02
      639  6.87918E-07 1.48081E-06-2.00000E-03 0.00000E+00 0.00000E+00 0.00000E+00 0.00000E+00 0.00000E+00 0.00000E+00 1.10120E-02 4.47018E-03 2.34000E-02
      641  9.96034E-07 1.99796E-06-2.00000E-03 0.00000E+00 0.00000E+00 0.00000E+00 0.00000E+00 0.00000E+00 0.00000E+00 7.83240E-03 7.82190E-03 2.34000E-02
      642  1.00911E-06 1.91213E-06-2.00000E-03 0.00000E+00 0.00000E+00 0.00000E+00 0.00000E+00 0.00000E+00 0.00000E+00 8.41091E-03 8.39791E-03 2.34000E-02
      644  4.64722E-07 2.01685E-06-2.00000E-03 0.00000E+00 0.00000E+00 0.00000E+00 0.00000E+00 0.00000E+00 0.00000E+00 4.18116E-03 1.02491E-02 2.34000E-02
      645  4.34731E-07 2.20954E-06-2.00000E-03 0.00000E+00 0.00000E+00 0.00000E+00 0.00000E+00 0.00000E+00 0.00000E+00 4.48263E-03 1.10080E-02 2.34000E-02
      647  0.00000E+00 3.70889E-06-2.00000E-03 0.00000E+00 0.00000E+00 0.00000E+00 0.00000E+00 0.00000E+00 0.00000E+00 6.77700E-19 1.10708E-02 2.34000E-02
      648  0.00000E+00 3.67380E-06-2.00000E-03 0.00000E+00 0.00000E+00 0.00000E+00 0.00000E+00 0.00000E+00 0.00000E+00 7.27700E-19 1.18873E-02 2.34000E-02
      674  6.51751E-07 1.69504E-06-2.00000E-03 0.00000E+00 0.00000E+00 0.00000E+00 0.00000E+00 0.00000E+00 0.00000E+00 7.21365E-03 2.97390E-03 2.34000E-02
      676  6.01388E-07 2.21824E-06-2.00000E-03 0.00000E+00 0.00000E+00 0.00000E+00 0.00000E+00 0.00000E+00 0.00000E+00 5.51820E-03 5.51752E-03 2.34000E-02
      678  3.13263E-07 2.37302E-06-2.00000E-03 0.00000E+00 0.00000E+00 0.00000E+00 0.00000E+00 0.00000E+00 0.00000E+00 2.97511E-03 7.21437E-03 2.34000E-02
      680  0.00000E+00 4.33183E-06-2.00000E-03 0.00000E+00 0.00000E+00 0.00000E+00 0.00000E+00 0.00000E+00 0.00000E+00 4.77700E-19 7.80573E-03 2.34000E-02
      821  6.67366E-07 1.67973E-06-2.00000E-03 0.00000E+00 0.00000E+00 0.00000E+00 0.00000E+00 0.00000E+00 0.00000E+00 9.49267E-03 3.87178E-03 2.34000E-02
      822  8.79333E-07 2.05268E-06-2.00000E-03 0.00000E+00 0.00000E+00 0.00000E+00 0.00000E+00 0.00000E+00 0.00000E+00 7.25378E-03 7.24585E-03 2.34000E-02
      823  5.03703E-07 2.19080E-06-2.00000E-03 0.00000E+00 0.00000E+00 0.00000E+00 0.00000E+00 0.00000E+00 0.00000E+00 3.87980E-03 9.49049E-03 2.34000E-02
      824  0.00000E+00 3.66069E-06-2.00000E-03 0.00000E+00 0.00000E+00 0.00000E+00 0.00000E+00 0.00000E+00 0.00000E+00 6.27700E-19 1.02544E-02 2.34000E-02
      850  2.42758E-07 1.28968E-06-2.00000E-03 0.00000E+00 0.00000E+00 0.00000E+00 0.00000E+00 0.00000E+00 0.00000E+00 1.17712E-02 4.76939E-03 2.34000E-02
      852  2.28483E-07 1.74315E-06-2.00000E-03 0.00000E+00 0.00000E+00 0.00000E+00 0.00000E+00 0.00000E+00 0.00000E+00 8.98853E-03 8.97394E-03 2.34000E-02
      854  6.77776E-07 3.08201E-06-2.00000E-03 0.00000E+00 0.00000E+00 0.00000E+00 0.00000E+00 0.00000E+00 0.00000E+00 4.78438E-03 1.17677E-02 2.34000E-02
      856  0.00000E+00 3.80571E-06-2.00000E-03 0.00000E+00 0.00000E+00 0.00000E+00 0.00000E+00 0.00000E+00 0.00000E+00 7.77700E-19 1.27038E-02 2.34000E-02
