 LS-DYNA keyword deck by LS-PrePost                                      
                    ls-dyna smp d R14 R14.1.1s_1_ef50e1 date 06/16/2024

 n o d a l   f o r c e/e n e r g y    o u t p u t  t=   0.00000E+00

 velocity boundary condition forces/rigid body moments 

 nd#     220  xforce=   0.0000E+00   yforce=   0.0000E+00  zforce=   0.0000E+00   energy=   0.0000E+00   setid =     220 xmoment=   0.0000E+00 ymoment=   0.0000E+00 zmoment=   0.0000E+00
 nd#     221  xforce=   0.0000E+00   yforce=   0.0000E+00  zforce=   0.0000E+00   energy=   0.0000E+00   setid =     221 xmoment=   0.0000E+00 ymoment=   0.0000E+00 zmoment=   0.0000E+00
 nd#     222  xforce=   0.0000E+00   yforce=   0.0000E+00  zforce=   0.0000E+00   energy=   0.0000E+00   setid =     222 xmoment=   0.0000E+00 ymoment=   0.0000E+00 zmoment=   0.0000E+00
 nd#     223  xforce=   0.0000E+00   yforce=   0.0000E+00  zforce=   0.0000E+00   energy=   0.0000E+00   setid =     223 xmoment=   0.0000E+00 ymoment=   0.0000E+00 zmoment=   0.0000E+00
 nd#     248  xforce=   0.0000E+00   yforce=   0.0000E+00  zforce=   0.0000E+00   energy=   0.0000E+00   setid =     248 xmoment=   0.0000E+00 ymoment=   0.0000E+00 zmoment=   0.0000E+00
 nd#     249  xforce=   0.0000E+00   yforce=   0.0000E+00  zforce=   0.0000E+00   energy=   0.0000E+00   setid =     249 xmoment=   0.0000E+00 ymoment=   0.0000E+00 zmoment=   0.0000E+00
 nd#     286  xforce=   0.0000E+00   yforce=   0.0000E+00  zforce=   0.0000E+00   energy=   0.0000E+00   setid =     286 xmoment=   0.0000E+00 ymoment=   0.0000E+00 zmoment=   0.0000E+00
 nd#     287  xforce=   0.0000E+00   yforce=   0.0000E+00  zforce=   0.0000E+00   energy=   0.0000E+00   setid =     287 xmoment=   0.0000E+00 ymoment=   0.0000E+00 zmoment=   0.0000E+00
 nd#     288  xforce=   0.0000E+00   yforce=   0.0000E+00  zforce=   0.0000E+00   energy=   0.0000E+00   setid =     288 xmoment=   0.0000E+00 ymoment=   0.0000E+00 zmoment=   0.0000E+00
 nd#     301  xforce=   0.0000E+00   yforce=   0.0000E+00  zforce=   0.0000E+00   energy=   0.0000E+00   setid =     301 xmoment=   0.0000E+00 ymoment=   0.0000E+00 zmoment=   0.0000E+00
 nd#     314  xforce=   0.0000E+00   yforce=   0.0000E+00  zforce=   0.0000E+00   energy=   0.0000E+00   setid =     314 xmoment=   0.0000E+00 ymoment=   0.0000E+00 zmoment=   0.0000E+00
 nd#     363  xforce=   0.0000E+00   yforce=   0.0000E+00  zforce=   0.0000E+00   energy=   0.0000E+00   setid =     363 xmoment=   0.0000E+00 ymoment=   0.0000E+00 zmoment=   0.0000E+00
 nd#     364  xforce=   0.0000E+00   yforce=   0.0000E+00  zforce=   0.0000E+00   energy=   0.0000E+00   setid =     364 xmoment=   0.0000E+00 ymoment=   0.0000E+00 zmoment=   0.0000E+00
 nd#     365  xforce=   0.0000E+00   yforce=   0.0000E+00  zforce=   0.0000E+00   energy=   0.0000E+00   setid =     365 xmoment=   0.0000E+00 ymoment=   0.0000E+00 zmoment=   0.0000E+00
 nd#     366  xforce=   0.0000E+00   yforce=   0.0000E+00  zforce=   0.0000E+00   energy=   0.0000E+00   setid =     366 xmoment=   0.0000E+00 ymoment=   0.0000E+00 zmoment=   0.0000E+00
 nd#     379  xforce=   0.0000E+00   yforce=   0.0000E+00  zforce=   0.0000E+00   energy=   0.0000E+00   setid =     379 xmoment=   0.0000E+00 ymoment=   0.0000E+00 zmoment=   0.0000E+00
 nd#     404  xforce=   0.0000E+00   yforce=   0.0000E+00  zforce=   0.0000E+00   energy=   0.0000E+00   setid =     404 xmoment=   0.0000E+00 ymoment=   0.0000E+00 zmoment=   0.0000E+00
 nd#     405  xforce=   0.0000E+00   yforce=   0.0000E+00  zforce=   0.0000E+00   energy=   0.0000E+00   setid =     405 xmoment=   0.0000E+00 ymoment=   0.0000E+00 zmoment=   0.0000E+00
 nd#     418  xforce=   0.0000E+00   yforce=   0.0000E+00  zforce=   0.0000E+00   energy=   0.0000E+00   setid =     418 xmoment=   0.0000E+00 ymoment=   0.0000E+00 zmoment=   0.0000E+00
 nd#     438  xforce=   0.0000E+00   yforce=   0.0000E+00  zforce=   0.0000E+00   energy=   0.0000E+00   setid =     438 xmoment=   0.0000E+00 ymoment=   0.0000E+00 zmoment=   0.0000E+00
 nd#     439  xforce=   0.0000E+00   yforce=   0.0000E+00  zforce=   0.0000E+00   energy=   0.0000E+00   setid =     439 xmoment=   0.0000E+00 ymoment=   0.0000E+00 zmoment=   0.0000E+00
 nd#     440  xforce=   0.0000E+00   yforce=   0.0000E+00  zforce=   0.0000E+00   energy=   0.0000E+00   setid =     440 xmoment=   0.0000E+00 ymoment=   0.0000E+00 zmoment=   0.0000E+00
 nd#     441  xforce=   0.0000E+00   yforce=   0.0000E+00  zforce=   0.0000E+00   energy=   0.0000E+00   setid =     441 xmoment=   0.0000E+00 ymoment=   0.0000E+00 zmoment=   0.0000E+00
 nd#     442  xforce=   0.0000E+00   yforce=   0.0000E+00  zforce=   0.0000E+00   energy=   0.0000E+00   setid =     442 xmoment=   0.0000E+00 ymoment=   0.0000E+00 zmoment=   0.0000E+00
 nd#     443  xforce=   0.0000E+00   yforce=   0.0000E+00  zforce=   0.0000E+00   energy=   0.0000E+00   setid =     443 xmoment=   0.0000E+00 ymoment=   0.0000E+00 zmoment=   0.0000E+00
 nd#     444  xforce=   0.0000E+00   yforce=   0.0000E+00  zforce=   0.0000E+00   energy=   0.0000E+00   setid =     444 xmoment=   0.0000E+00 ymoment=   0.0000E+00 zmoment=   0.0000E+00
 nd#     591  xforce=   0.0000E+00   yforce=   0.0000E+00  zforce=   0.0000E+00   energy=   0.0000E+00   setid =     591 xmoment=   0.0000E+00 ymoment=   0.0000E+00 zmoment=   0.0000E+00
 nd#     592  xforce=   0.0000E+00   yforce=   0.0000E+00  zforce=   0.0000E+00   energy=   0.0000E+00   setid =     592 xmoment=   0.0000E+00 ymoment=   0.0000E+00 zmoment=   0.0000E+00
 nd#     595  xforce=   0.0000E+00   yforce=   0.0000E+00  zforce=   0.0000E+00   energy=   0.0000E+00   setid =     595 xmoment=   0.0000E+00 ymoment=   0.0000E+00 zmoment=   0.0000E+00
 nd#     596  xforce=   0.0000E+00   yforce=   0.0000E+00  zforce=   0.0000E+00   energy=   0.0000E+00   setid =     596 xmoment=   0.0000E+00 ymoment=   0.0000E+00 zmoment=   0.0000E+00
 nd#     599  xforce=   0.0000E+00   yforce=   0.0000E+00  zforce=   0.0000E+00   energy=   0.0000E+00   setid =     599 xmoment=   0.0000E+00 ymoment=   0.0000E+00 zmoment=   0.0000E+00
 nd#     600  xforce=   0.0000E+00   yforce=   0.0000E+00  zforce=   0.0000E+00   energy=   0.0000E+00   setid =     600 xmoment=   0.0000E+00 ymoment=   0.0000E+00 zmoment=   0.0000E+00
 nd#     603  xforce=   0.0000E+00   yforce=   0.0000E+00  zforce=   0.0000E+00   energy=   0.0000E+00   setid =     603 xmoment=   0.0000E+00 ymoment=   0.0000E+00 zmoment=   0.0000E+00
 nd#     604  xforce=   0.0000E+00   yforce=   0.0000E+00  zforce=   0.0000E+00   energy=   0.0000E+00   setid =     604 xmoment=   0.0000E+00 ymoment=   0.0000E+00 zmoment=   0.0000E+00
 nd#     638  xforce=   0.0000E+00   yforce=   0.0000E+00  zforce=   0.0000E+00   energy=   0.0000E+00   setid =     638 xmoment=   0.0000E+00 ymoment=   0.0000E+00 zmoment=   0.0000E+00
 nd#     639  xforce=   0.0000E+00   yforce=   0.0000E+00  zforce=   0.0000E+00   energy=   0.0000E+00   setid =     639 xmoment=   0.0000E+00 ymoment=   0.0000E+00 zmoment=   0.0000E+00
 nd#     641  xforce=   0.0000E+00   yforce=   0.0000E+00  zforce=   0.0000E+00   energy=   0.0000E+00   setid =     641 xmoment=   0.0000E+00 ymoment=   0.0000E+00 zmoment=   0.0000E+00
 nd#     642  xforce=   0.0000E+00   yforce=   0.0000E+00  zforce=   0.0000E+00   energy=   0.0000E+00   setid =     642 xmoment=   0.0000E+00 ymoment=   0.0000E+00 zmoment=   0.0000E+00
 nd#     644  xforce=   0.0000E+00   yforce=   0.0000E+00  zforce=   0.0000E+00   energy=   0.0000E+00   setid =     644 xmoment=   0.0000E+00 ymoment=   0.0000E+00 zmoment=   0.0000E+00
 nd#     645  xforce=   0.0000E+00   yforce=   0.0000E+00  zforce=   0.0000E+00   energy=   0.0000E+00   setid =     645 xmoment=   0.0000E+00 ymoment=   0.0000E+00 zmoment=   0.0000E+00
 nd#     647  xforce=   0.0000E+00   yforce=   0.0000E+00  zforce=   0.0000E+00   energy=   0.0000E+00   setid =     647 xmoment=   0.0000E+00 ymoment=   0.0000E+00 zmoment=   0.0000E+00
 nd#     648  xforce=   0.0000E+00   yforce=   0.0000E+00  zforce=   0.0000E+00   energy=   0.0000E+00   setid =     648 xmoment=   0.0000E+00 ymoment=   0.0000E+00 zmoment=   0.0000E+00
 nd#     674  xforce=   0.0000E+00   yforce=   0.0000E+00  zforce=   0.0000E+00   energy=   0.0000E+00   setid =     674 xmoment=   0.0000E+00 ymoment=   0.0000E+00 zmoment=   0.0000E+00
 nd#     676  xforce=   0.0000E+00   yforce=   0.0000E+00  zforce=   0.0000E+00   energy=   0.0000E+00   setid =     676 xmoment=   0.0000E+00 ymoment=   0.0000E+00 zmoment=   0.0000E+00
 nd#     678  xforce=   0.0000E+00   yforce=   0.0000E+00  zforce=   0.0000E+00   energy=   0.0000E+00   setid =     678 xmoment=   0.0000E+00 ymoment=   0.0000E+00 zmoment=   0.0000E+00
 nd#     680  xforce=   0.0000E+00   yforce=   0.0000E+00  zforce=   0.0000E+00   energy=   0.0000E+00   setid =     680 xmoment=   0.0000E+00 ymoment=   0.0000E+00 zmoment=   0.0000E+00
 nd#     821  xforce=   0.0000E+00   yforce=   0.0000E+00  zforce=   0.0000E+00   energy=   0.0000E+00   setid =     821 xmoment=   0.0000E+00 ymoment=   0.0000E+00 zmoment=   0.0000E+00
 nd#     822  xforce=   0.0000E+00   yforce=   0.0000E+00  zforce=   0.0000E+00   energy=   0.0000E+00   setid =     822 xmoment=   0.0000E+00 ymoment=   0.0000E+00 zmoment=   0.0000E+00
 nd#     823  xforce=   0.0000E+00   yforce=   0.0000E+00  zforce=   0.0000E+00   energy=   0.0000E+00   setid =     823 xmoment=   0.0000E+00 ymoment=   0.0000E+00 zmoment=   0.0000E+00
 nd#     824  xforce=   0.0000E+00   yforce=   0.0000E+00  zforce=   0.0000E+00   energy=   0.0000E+00   setid =     824 xmoment=   0.0000E+00 ymoment=   0.0000E+00 zmoment=   0.0000E+00
 nd#     850  xforce=   0.0000E+00   yforce=   0.0000E+00  zforce=   0.0000E+00   energy=   0.0000E+00   setid =     850 xmoment=   0.0000E+00 ymoment=   0.0000E+00 zmoment=   0.0000E+00
 nd#     852  xforce=   0.0000E+00   yforce=   0.0000E+00  zforce=   0.0000E+00   energy=   0.0000E+00   setid =     852 xmoment=   0.0000E+00 ymoment=   0.0000E+00 zmoment=   0.0000E+00
 nd#     854  xforce=   0.0000E+00   yforce=   0.0000E+00  zforce=   0.0000E+00   energy=   0.0000E+00   setid =     854 xmoment=   0.0000E+00 ymoment=   0.0000E+00 zmoment=   0.0000E+00
 nd#     856  xforce=   0.0000E+00   yforce=   0.0000E+00  zforce=   0.0000E+00   energy=   0.0000E+00   setid =     856 xmoment=   0.0000E+00 ymoment=   0.0000E+00 zmoment=   0.0000E+00
              xtotal=   0.0000E+00   ytotal=   0.0000E+00  ztotal=   0.0000E+00   etotal=   0.0000E+00

 n o d a l   f o r c e/e n e r g y    o u t p u t  t=   1.29245E+00

 velocity boundary condition forces/rigid body moments 

 nd#     220  xforce=   0.0000E+00   yforce=   0.0000E+00  zforce=  -1.4005E+01   energy=   8.9493E-05   setid =     220 xmoment=   0.0000E+00 ymoment=   0.0000E+00 zmoment=   0.0000E+00
 nd#     221  xforce=   0.0000E+00   yforce=   0.0000E+00  zforce=  -1.9136E+01   energy=   1.2898E-04   setid =     221 xmoment=   0.0000E+00 ymoment=   0.0000E+00 zmoment=   0.0000E+00
 nd#     222  xforce=   0.0000E+00   yforce=   0.0000E+00  zforce=  -2.9374E+01   energy=   1.9109E-04   setid =     222 xmoment=   0.0000E+00 ymoment=   0.0000E+00 zmoment=   0.0000E+00
 nd#     223  xforce=   0.0000E+00   yforce=   0.0000E+00  zforce=  -1.7577E+01   energy=   1.1220E-04   setid =     223 xmoment=   0.0000E+00 ymoment=   0.0000E+00 zmoment=   0.0000E+00
 nd#     248  xforce=   0.0000E+00   yforce=   0.0000E+00  zforce=  -2.6580E+01   energy=   1.7172E-04   setid =     248 xmoment=   0.0000E+00 ymoment=   0.0000E+00 zmoment=   0.0000E+00
 nd#     249  xforce=   0.0000E+00   yforce=   0.0000E+00  zforce=  -1.5619E+01   energy=   9.9474E-05   setid =     249 xmoment=   0.0000E+00 ymoment=   0.0000E+00 zmoment=   0.0000E+00
 nd#     286  xforce=   0.0000E+00   yforce=   0.0000E+00  zforce=  -2.7562E+01   energy=   1.7928E-04   setid =     286 xmoment=   0.0000E+00 ymoment=   0.0000E+00 zmoment=   0.0000E+00
 nd#     287  xforce=   0.0000E+00   yforce=   0.0000E+00  zforce=  -1.4601E+01   energy=   9.6168E-05   setid =     287 xmoment=   0.0000E+00 ymoment=   0.0000E+00 zmoment=   0.0000E+00
 nd#     288  xforce=   0.0000E+00   yforce=   0.0000E+00  zforce=  -2.6605E+01   energy=   1.7302E-04   setid =     288 xmoment=   0.0000E+00 ymoment=   0.0000E+00 zmoment=   0.0000E+00
 nd#     301  xforce=   0.0000E+00   yforce=   0.0000E+00  zforce=  -2.8971E+01   energy=   1.8822E-04   setid =     301 xmoment=   0.0000E+00 ymoment=   0.0000E+00 zmoment=   0.0000E+00
 nd#     314  xforce=   0.0000E+00   yforce=   0.0000E+00  zforce=  -2.5515E+01   energy=   1.6569E-04   setid =     314 xmoment=   0.0000E+00 ymoment=   0.0000E+00 zmoment=   0.0000E+00
 nd#     363  xforce=   0.0000E+00   yforce=   0.0000E+00  zforce=  -2.6885E+01   energy=   1.7423E-04   setid =     363 xmoment=   0.0000E+00 ymoment=   0.0000E+00 zmoment=   0.0000E+00
 nd#     364  xforce=   0.0000E+00   yforce=   0.0000E+00  zforce=  -3.3594E+01   energy=   2.1697E-04   setid =     364 xmoment=   0.0000E+00 ymoment=   0.0000E+00 zmoment=   0.0000E+00
 nd#     365  xforce=   0.0000E+00   yforce=   0.0000E+00  zforce=  -1.9898E+01   energy=   1.2488E-04   setid =     365 xmoment=   0.0000E+00 ymoment=   0.0000E+00 zmoment=   0.0000E+00
 nd#     366  xforce=   0.0000E+00   yforce=   0.0000E+00  zforce=  -1.4782E+01   energy=   9.4343E-05   setid =     366 xmoment=   0.0000E+00 ymoment=   0.0000E+00 zmoment=   0.0000E+00
 nd#     379  xforce=   0.0000E+00   yforce=   0.0000E+00  zforce=  -1.8162E+01   energy=   1.1358E-04   setid =     379 xmoment=   0.0000E+00 ymoment=   0.0000E+00 zmoment=   0.0000E+00
 nd#     404  xforce=   0.0000E+00   yforce=   0.0000E+00  zforce=  -1.6752E+01   energy=   1.0352E-04   setid =     404 xmoment=   0.0000E+00 ymoment=   0.0000E+00 zmoment=   0.0000E+00
 nd#     405  xforce=   0.0000E+00   yforce=   0.0000E+00  zforce=  -1.1276E+01   energy=   6.8330E-05   setid =     405 xmoment=   0.0000E+00 ymoment=   0.0000E+00 zmoment=   0.0000E+00
 nd#     418  xforce=   0.0000E+00   yforce=   0.0000E+00  zforce=  -1.9632E+01   energy=   1.2109E-04   setid =     418 xmoment=   0.0000E+00 ymoment=   0.0000E+00 zmoment=   0.0000E+00
 nd#     438  xforce=   0.0000E+00   yforce=   0.0000E+00  zforce=  -2.5428E+00   energy=   1.7335E-05   setid =     438 xmoment=   0.0000E+00 ymoment=   0.0000E+00 zmoment=   0.0000E+00
 nd#     439  xforce=   0.0000E+00   yforce=   0.0000E+00  zforce=  -1.3070E+01   energy=   8.5508E-05   setid =     439 xmoment=   0.0000E+00 ymoment=   0.0000E+00 zmoment=   0.0000E+00
 nd#     440  xforce=   0.0000E+00   yforce=   0.0000E+00  zforce=  -1.2991E+01   energy=   8.4486E-05   setid =     440 xmoment=   0.0000E+00 ymoment=   0.0000E+00 zmoment=   0.0000E+00
 nd#     441  xforce=   0.0000E+00   yforce=   0.0000E+00  zforce=  -1.2704E+01   energy=   8.2297E-05   setid =     441 xmoment=   0.0000E+00 ymoment=   0.0000E+00 zmoment=   0.0000E+00
 nd#     442  xforce=   0.0000E+00   yforce=   0.0000E+00  zforce=  -1.2390E+01   energy=   7.9977E-05   setid =     442 xmoment=   0.0000E+00 ymoment=   0.0000E+00 zmoment=   0.0000E+00
 nd#     443  xforce=   0.0000E+00   yforce=   0.0000E+00  zforce=  -1.2014E+01   energy=   7.7310E-05   setid =     443 xmoment=   0.0000E+00 ymoment=   0.0000E+00 zmoment=   0.0000E+00
 nd#     444  xforce=   0.0000E+00   yforce=   0.0000E+00  zforce=  -1.1385E+01   energy=   7.3063E-05   setid =     444 xmoment=   0.0000E+00 ymoment=   0.0000E+00 zmoment=   0.0000E+00
 nd#     591  xforce=   0.0000E+00   yforce=   0.0000E+00  zforce=  -2.3653E+01   energy=   1.5325E-04   setid =     591 xmoment=   0.0000E+00 ymoment=   0.0000E+00 zmoment=   0.0000E+00
 nd#     592  xforce=   0.0000E+00   yforce=   0.0000E+00  zforce=  -2.4623E+01   energy=   1.5971E-04   setid =     592 xmoment=   0.0000E+00 ymoment=   0.0000E+00 zmoment=   0.0000E+00
 nd#     595  xforce=   0.0000E+00   yforce=   0.0000E+00  zforce=  -2.3235E+01   energy=   1.5054E-04   setid =     595 xmoment=   0.0000E+00 ymoment=   0.0000E+00 zmoment=   0.0000E+00
 nd#     596  xforce=   0.0000E+00   yforce=   0.0000E+00  zforce=  -2.4460E+01   energy=   1.5857E-04   setid =     596 xmoment=   0.0000E+00 ymoment=   0.0000E+00 zmoment=   0.0000E+00
 nd#     599  xforce=   0.0000E+00   yforce=   0.0000E+00  zforce=  -2.3391E+01   energy=   1.5120E-04   setid =     599 xmoment=   0.0000E+00 ymoment=   0.0000E+00 zmoment=   0.0000E+00
 nd#     600  xforce=   0.0000E+00   yforce=   0.0000E+00  zforce=  -2.4725E+01   energy=   1.5985E-04   setid =     600 xmoment=   0.0000E+00 ymoment=   0.0000E+00 zmoment=   0.0000E+00
 nd#     603  xforce=   0.0000E+00   yforce=   0.0000E+00  zforce=  -1.2319E+01   energy=   7.9062E-05   setid =     603 xmoment=   0.0000E+00 ymoment=   0.0000E+00 zmoment=   0.0000E+00
 nd#     604  xforce=   0.0000E+00   yforce=   0.0000E+00  zforce=  -1.2918E+01   energy=   8.2991E-05   setid =     604 xmoment=   0.0000E+00 ymoment=   0.0000E+00 zmoment=   0.0000E+00
 nd#     638  xforce=   0.0000E+00   yforce=   0.0000E+00  zforce=  -2.6128E+01   energy=   1.7025E-04   setid =     638 xmoment=   0.0000E+00 ymoment=   0.0000E+00 zmoment=   0.0000E+00
 nd#     639  xforce=   0.0000E+00   yforce=   0.0000E+00  zforce=  -2.6313E+01   energy=   1.7234E-04   setid =     639 xmoment=   0.0000E+00 ymoment=   0.0000E+00 zmoment=   0.0000E+00
 nd#     641  xforce=   0.0000E+00   yforce=   0.0000E+00  zforce=  -2.6371E+01   energy=   1.7155E-04   setid =     641 xmoment=   0.0000E+00 ymoment=   0.0000E+00 zmoment=   0.0000E+00
 nd#     642  xforce=   0.0000E+00   yforce=   0.0000E+00  zforce=  -2.6598E+01   energy=   1.7388E-04   setid =     642 xmoment=   0.0000E+00 ymoment=   0.0000E+00 zmoment=   0.0000E+00
 nd#     644  xforce=   0.0000E+00   yforce=   0.0000E+00  zforce=  -2.6830E+01   energy=   1.7387E-04   setid =     644 xmoment=   0.0000E+00 ymoment=   0.0000E+00 zmoment=   0.0000E+00
 nd#     645  xforce=   0.0000E+00   yforce=   0.0000E+00  zforce=  -2.7234E+01   energy=   1.7725E-04   setid =     645 xmoment=   0.0000E+00 ymoment=   0.0000E+00 zmoment=   0.0000E+00
 nd#     647  xforce=   0.0000E+00   yforce=   0.0000E+00  zforce=  -1.3828E+01   energy=   8.9185E-05   setid =     647 xmoment=   0.0000E+00 ymoment=   0.0000E+00 zmoment=   0.0000E+00
 nd#     648  xforce=   0.0000E+00   yforce=   0.0000E+00  zforce=  -1.4002E+01   energy=   9.0725E-05   setid =     648 xmoment=   0.0000E+00 ymoment=   0.0000E+00 zmoment=   0.0000E+00
 nd#     674  xforce=   0.0000E+00   yforce=   0.0000E+00  zforce=  -2.2338E+01   energy=   1.4462E-04   setid =     674 xmoment=   0.0000E+00 ymoment=   0.0000E+00 zmoment=   0.0000E+00
 nd#     676  xforce=   0.0000E+00   yforce=   0.0000E+00  zforce=  -2.1774E+01   energy=   1.4099E-04   setid =     676 xmoment=   0.0000E+00 ymoment=   0.0000E+00 zmoment=   0.0000E+00
 nd#     678  xforce=   0.0000E+00   yforce=   0.0000E+00  zforce=  -2.2013E+01   energy=   1.4218E-04   setid =     678 xmoment=   0.0000E+00 ymoment=   0.0000E+00 zmoment=   0.0000E+00
 nd#     680  xforce=   0.0000E+00   yforce=   0.0000E+00  zforce=  -1.1700E+01   energy=   7.4950E-05   setid =     680 xmoment=   0.0000E+00 ymoment=   0.0000E+00 zmoment=   0.0000E+00
 nd#     821  xforce=   0.0000E+00   yforce=   0.0000E+00  zforce=  -2.5436E+01   energy=   1.6530E-04   setid =     821 xmoment=   0.0000E+00 ymoment=   0.0000E+00 zmoment=   0.0000E+00
 nd#     822  xforce=   0.0000E+00   yforce=   0.0000E+00  zforce=  -2.5507E+01   energy=   1.6557E-04   setid =     822 xmoment=   0.0000E+00 ymoment=   0.0000E+00 zmoment=   0.0000E+00
 nd#     823  xforce=   0.0000E+00   yforce=   0.0000E+00  zforce=  -2.5865E+01   energy=   1.6734E-04   setid =     823 xmoment=   0.0000E+00 ymoment=   0.0000E+00 zmoment=   0.0000E+00
 nd#     824  xforce=   0.0000E+00   yforce=   0.0000E+00  zforce=  -1.3411E+01   energy=   8.6293E-05   setid =     824 xmoment=   0.0000E+00 ymoment=   0.0000E+00 zmoment=   0.0000E+00
 nd#     850  xforce=   0.0000E+00   yforce=   0.0000E+00  zforce=  -4.2793E+00   energy=   3.0418E-05   setid =     850 xmoment=   0.0000E+00 ymoment=   0.0000E+00 zmoment=   0.0000E+00
 nd#     852  xforce=   0.0000E+00   yforce=   0.0000E+00  zforce=  -2.5031E+00   energy=   2.0323E-05   setid =     852 xmoment=   0.0000E+00 ymoment=   0.0000E+00 zmoment=   0.0000E+00
 nd#     854  xforce=   0.0000E+00   yforce=   0.0000E+00  zforce=  -6.1608E-01   energy=   9.9206E-06   setid =     854 xmoment=   0.0000E+00 ymoment=   0.0000E+00 zmoment=   0.0000E+00
 nd#     856  xforce=   0.0000E+00   yforce=   0.0000E+00  zforce=  -1.4138E-01   energy=   4.2560E-06   setid =     856 xmoment=   0.0000E+00 ymoment=   0.0000E+00 zmoment=   0.0000E+00
              xtotal=   0.0000E+00   ytotal=   0.0000E+00  ztotal=  -1.0158E+03   etotal=   6.5786E-03

 n o d a l   f o r c e/e n e r g y    o u t p u t  t=   2.54839E+00

 velocity boundary condition forces/rigid body moments 

 nd#     220  xforce=   0.0000E+00   yforce=   0.0000E+00  zforce=  -2.8612E+01   energy=   3.5711E-04   setid =     220 xmoment=   0.0000E+00 ymoment=   0.0000E+00 zmoment=   0.0000E+00
 nd#     221  xforce=   0.0000E+00   yforce=   0.0000E+00  zforce=  -3.5353E+01   energy=   4.7116E-04   setid =     221 xmoment=   0.0000E+00 ymoment=   0.0000E+00 zmoment=   0.0000E+00
 nd#     222  xforce=   0.0000E+00   yforce=   0.0000E+00  zforce=  -5.7377E+01   energy=   7.3586E-04   setid =     222 xmoment=   0.0000E+00 ymoment=   0.0000E+00 zmoment=   0.0000E+00
 nd#     223  xforce=   0.0000E+00   yforce=   0.0000E+00  zforce=  -3.5492E+01   energy=   4.4546E-04   setid =     223 xmoment=   0.0000E+00 ymoment=   0.0000E+00 zmoment=   0.0000E+00
 nd#     248  xforce=   0.0000E+00   yforce=   0.0000E+00  zforce=  -5.2351E+01   energy=   6.6738E-04   setid =     248 xmoment=   0.0000E+00 ymoment=   0.0000E+00 zmoment=   0.0000E+00
 nd#     249  xforce=   0.0000E+00   yforce=   0.0000E+00  zforce=  -3.1501E+01   energy=   3.9537E-04   setid =     249 xmoment=   0.0000E+00 ymoment=   0.0000E+00 zmoment=   0.0000E+00
 nd#     286  xforce=   0.0000E+00   yforce=   0.0000E+00  zforce=  -5.1765E+01   energy=   6.7743E-04   setid =     286 xmoment=   0.0000E+00 ymoment=   0.0000E+00 zmoment=   0.0000E+00
 nd#     287  xforce=   0.0000E+00   yforce=   0.0000E+00  zforce=  -2.7858E+01   energy=   3.6280E-04   setid =     287 xmoment=   0.0000E+00 ymoment=   0.0000E+00 zmoment=   0.0000E+00
 nd#     288  xforce=   0.0000E+00   yforce=   0.0000E+00  zforce=  -5.0960E+01   energy=   6.6011E-04   setid =     288 xmoment=   0.0000E+00 ymoment=   0.0000E+00 zmoment=   0.0000E+00
 nd#     301  xforce=   0.0000E+00   yforce=   0.0000E+00  zforce=  -5.6854E+01   energy=   7.2718E-04   setid =     301 xmoment=   0.0000E+00 ymoment=   0.0000E+00 zmoment=   0.0000E+00
 nd#     314  xforce=   0.0000E+00   yforce=   0.0000E+00  zforce=  -4.9969E+01   energy=   6.3970E-04   setid =     314 xmoment=   0.0000E+00 ymoment=   0.0000E+00 zmoment=   0.0000E+00
 nd#     363  xforce=   0.0000E+00   yforce=   0.0000E+00  zforce=  -5.2256E+01   energy=   6.7121E-04   setid =     363 xmoment=   0.0000E+00 ymoment=   0.0000E+00 zmoment=   0.0000E+00
 nd#     364  xforce=   0.0000E+00   yforce=   0.0000E+00  zforce=  -6.5470E+01   energy=   8.3906E-04   setid =     364 xmoment=   0.0000E+00 ymoment=   0.0000E+00 zmoment=   0.0000E+00
 nd#     365  xforce=   0.0000E+00   yforce=   0.0000E+00  zforce=  -4.1769E+01   energy=   5.1213E-04   setid =     365 xmoment=   0.0000E+00 ymoment=   0.0000E+00 zmoment=   0.0000E+00
 nd#     366  xforce=   0.0000E+00   yforce=   0.0000E+00  zforce=  -3.0005E+01   energy=   3.7560E-04   setid =     366 xmoment=   0.0000E+00 ymoment=   0.0000E+00 zmoment=   0.0000E+00
 nd#     379  xforce=   0.0000E+00   yforce=   0.0000E+00  zforce=  -3.7414E+01   energy=   4.6258E-04   setid =     379 xmoment=   0.0000E+00 ymoment=   0.0000E+00 zmoment=   0.0000E+00
 nd#     404  xforce=   0.0000E+00   yforce=   0.0000E+00  zforce=  -3.6793E+01   energy=   4.3977E-04   setid =     404 xmoment=   0.0000E+00 ymoment=   0.0000E+00 zmoment=   0.0000E+00
 nd#     405  xforce=   0.0000E+00   yforce=   0.0000E+00  zforce=  -2.5239E+01   energy=   2.9763E-04   setid =     405 xmoment=   0.0000E+00 ymoment=   0.0000E+00 zmoment=   0.0000E+00
 nd#     418  xforce=   0.0000E+00   yforce=   0.0000E+00  zforce=  -4.2161E+01   energy=   5.0913E-04   setid =     418 xmoment=   0.0000E+00 ymoment=   0.0000E+00 zmoment=   0.0000E+00
 nd#     438  xforce=   0.0000E+00   yforce=   0.0000E+00  zforce=  -4.4912E+00   energy=   6.1507E-05   setid =     438 xmoment=   0.0000E+00 ymoment=   0.0000E+00 zmoment=   0.0000E+00
 nd#     439  xforce=   0.0000E+00   yforce=   0.0000E+00  zforce=  -2.5238E+01   energy=   3.2607E-04   setid =     439 xmoment=   0.0000E+00 ymoment=   0.0000E+00 zmoment=   0.0000E+00
 nd#     440  xforce=   0.0000E+00   yforce=   0.0000E+00  zforce=  -2.5369E+01   energy=   3.2538E-04   setid =     440 xmoment=   0.0000E+00 ymoment=   0.0000E+00 zmoment=   0.0000E+00
 nd#     441  xforce=   0.0000E+00   yforce=   0.0000E+00  zforce=  -2.4985E+01   energy=   3.1897E-04   setid =     441 xmoment=   0.0000E+00 ymoment=   0.0000E+00 zmoment=   0.0000E+00
 nd#     442  xforce=   0.0000E+00   yforce=   0.0000E+00  zforce=  -2.4521E+01   energy=   3.1176E-04   setid =     442 xmoment=   0.0000E+00 ymoment=   0.0000E+00 zmoment=   0.0000E+00
 nd#     443  xforce=   0.0000E+00   yforce=   0.0000E+00  zforce=  -2.3919E+01   energy=   3.0296E-04   setid =     443 xmoment=   0.0000E+00 ymoment=   0.0000E+00 zmoment=   0.0000E+00
 nd#     444  xforce=   0.0000E+00   yforce=   0.0000E+00  zforce=  -2.2800E+01   energy=   2.8773E-04   setid =     444 xmoment=   0.0000E+00 ymoment=   0.0000E+00 zmoment=   0.0000E+00
 nd#     591  xforce=   0.0000E+00   yforce=   0.0000E+00  zforce=  -4.6102E+01   energy=   5.9129E-04   setid =     591 xmoment=   0.0000E+00 ymoment=   0.0000E+00 zmoment=   0.0000E+00
 nd#     592  xforce=   0.0000E+00   yforce=   0.0000E+00  zforce=  -4.7965E+01   energy=   6.1554E-04   setid =     592 xmoment=   0.0000E+00 ymoment=   0.0000E+00 zmoment=   0.0000E+00
 nd#     595  xforce=   0.0000E+00   yforce=   0.0000E+00  zforce=  -4.5614E+01   energy=   5.8290E-04   setid =     595 xmoment=   0.0000E+00 ymoment=   0.0000E+00 zmoment=   0.0000E+00
 nd#     596  xforce=   0.0000E+00   yforce=   0.0000E+00  zforce=  -4.7947E+01   energy=   6.1327E-04   setid =     596 xmoment=   0.0000E+00 ymoment=   0.0000E+00 zmoment=   0.0000E+00
 nd#     599  xforce=   0.0000E+00   yforce=   0.0000E+00  zforce=  -4.6064E+01   energy=   5.8735E-04   setid =     599 xmoment=   0.0000E+00 ymoment=   0.0000E+00 zmoment=   0.0000E+00
 nd#     600  xforce=   0.0000E+00   yforce=   0.0000E+00  zforce=  -4.8683E+01   energy=   6.2083E-04   setid =     600 xmoment=   0.0000E+00 ymoment=   0.0000E+00 zmoment=   0.0000E+00
 nd#     603  xforce=   0.0000E+00   yforce=   0.0000E+00  zforce=  -2.4565E+01   energy=   3.1068E-04   setid =     603 xmoment=   0.0000E+00 ymoment=   0.0000E+00 zmoment=   0.0000E+00
 nd#     604  xforce=   0.0000E+00   yforce=   0.0000E+00  zforce=  -2.5713E+01   energy=   3.2559E-04   setid =     604 xmoment=   0.0000E+00 ymoment=   0.0000E+00 zmoment=   0.0000E+00
 nd#     638  xforce=   0.0000E+00   yforce=   0.0000E+00  zforce=  -5.0634E+01   energy=   6.5229E-04   setid =     638 xmoment=   0.0000E+00 ymoment=   0.0000E+00 zmoment=   0.0000E+00
 nd#     639  xforce=   0.0000E+00   yforce=   0.0000E+00  zforce=  -5.0543E+01   energy=   6.5498E-04   setid =     639 xmoment=   0.0000E+00 ymoment=   0.0000E+00 zmoment=   0.0000E+00
 nd#     641  xforce=   0.0000E+00   yforce=   0.0000E+00  zforce=  -5.1399E+01   energy=   6.5992E-04   setid =     641 xmoment=   0.0000E+00 ymoment=   0.0000E+00 zmoment=   0.0000E+00
 nd#     642  xforce=   0.0000E+00   yforce=   0.0000E+00  zforce=  -5.1413E+01   energy=   6.6377E-04   setid =     642 xmoment=   0.0000E+00 ymoment=   0.0000E+00 zmoment=   0.0000E+00
 nd#     644  xforce=   0.0000E+00   yforce=   0.0000E+00  zforce=  -5.2675E+01   energy=   6.7314E-04   setid =     644 xmoment=   0.0000E+00 ymoment=   0.0000E+00 zmoment=   0.0000E+00
 nd#     645  xforce=   0.0000E+00   yforce=   0.0000E+00  zforce=  -5.3073E+01   energy=   6.8156E-04   setid =     645 xmoment=   0.0000E+00 ymoment=   0.0000E+00 zmoment=   0.0000E+00
 nd#     647  xforce=   0.0000E+00   yforce=   0.0000E+00  zforce=  -2.7366E+01   energy=   3.4787E-04   setid =     647 xmoment=   0.0000E+00 ymoment=   0.0000E+00 zmoment=   0.0000E+00
 nd#     648  xforce=   0.0000E+00   yforce=   0.0000E+00  zforce=  -2.7503E+01   energy=   3.5136E-04   setid =     648 xmoment=   0.0000E+00 ymoment=   0.0000E+00 zmoment=   0.0000E+00
 nd#     674  xforce=   0.0000E+00   yforce=   0.0000E+00  zforce=  -4.3546E+01   energy=   5.5835E-04   setid =     674 xmoment=   0.0000E+00 ymoment=   0.0000E+00 zmoment=   0.0000E+00
 nd#     676  xforce=   0.0000E+00   yforce=   0.0000E+00  zforce=  -4.2818E+01   energy=   5.4661E-04   setid =     676 xmoment=   0.0000E+00 ymoment=   0.0000E+00 zmoment=   0.0000E+00
 nd#     678  xforce=   0.0000E+00   yforce=   0.0000E+00  zforce=  -4.3408E+01   energy=   5.5300E-04   setid =     678 xmoment=   0.0000E+00 ymoment=   0.0000E+00 zmoment=   0.0000E+00
 nd#     680  xforce=   0.0000E+00   yforce=   0.0000E+00  zforce=  -2.3407E+01   energy=   2.9541E-04   setid =     680 xmoment=   0.0000E+00 ymoment=   0.0000E+00 zmoment=   0.0000E+00
 nd#     821  xforce=   0.0000E+00   yforce=   0.0000E+00  zforce=  -4.9459E+01   energy=   6.3562E-04   setid =     821 xmoment=   0.0000E+00 ymoment=   0.0000E+00 zmoment=   0.0000E+00
 nd#     822  xforce=   0.0000E+00   yforce=   0.0000E+00  zforce=  -4.9892E+01   energy=   6.3905E-04   setid =     822 xmoment=   0.0000E+00 ymoment=   0.0000E+00 zmoment=   0.0000E+00
 nd#     823  xforce=   0.0000E+00   yforce=   0.0000E+00  zforce=  -5.0895E+01   energy=   6.4937E-04   setid =     823 xmoment=   0.0000E+00 ymoment=   0.0000E+00 zmoment=   0.0000E+00
 nd#     824  xforce=   0.0000E+00   yforce=   0.0000E+00  zforce=  -2.6631E+01   energy=   3.3774E-04   setid =     824 xmoment=   0.0000E+00 ymoment=   0.0000E+00 zmoment=   0.0000E+00
 nd#     850  xforce=   0.0000E+00   yforce=   0.0000E+00  zforce=  -6.7947E+00   energy=   9.9960E-05   setid =     850 xmoment=   0.0000E+00 ymoment=   0.0000E+00 zmoment=   0.0000E+00
 nd#     852  xforce=   0.0000E+00   yforce=   0.0000E+00  zforce=  -2.7136E+00   energy=   5.3082E-05   setid =     852 xmoment=   0.0000E+00 ymoment=   0.0000E+00 zmoment=   0.0000E+00
 nd#     854  xforce=   0.0000E+00   yforce=   0.0000E+00  zforce=   1.9423E+00   energy=   1.5921E-06   setid =     854 xmoment=   0.0000E+00 ymoment=   0.0000E+00 zmoment=   0.0000E+00
 nd#     856  xforce=   0.0000E+00   yforce=   0.0000E+00  zforce=   1.7264E+00   energy=  -5.6972E-06   setid =     856 xmoment=   0.0000E+00 ymoment=   0.0000E+00 zmoment=   0.0000E+00
              xtotal=   0.0000E+00   ytotal=   0.0000E+00  ztotal=  -1.9937E+03   etotal=   2.5477E-02

 n o d a l   f o r c e/e n e r g y    o u t p u t  t=   3.47231E+00

 velocity boundary condition forces/rigid body moments 

 nd#     220  xforce=   0.0000E+00   yforce=   0.0000E+00  zforce=   1.3158E+01   energy=   4.2851E-04   setid =     220 xmoment=   0.0000E+00 ymoment=   0.0000E+00 zmoment=   0.0000E+00
 nd#     221  xforce=   0.0000E+00   yforce=   0.0000E+00  zforce=   1.9747E+00   energy=   6.2536E-04   setid =     221 xmoment=   0.0000E+00 ymoment=   0.0000E+00 zmoment=   0.0000E+00
 nd#     222  xforce=   0.0000E+00   yforce=   0.0000E+00  zforce=  -1.1918E+02   energy=   1.5515E-03   setid =     222 xmoment=   0.0000E+00 ymoment=   0.0000E+00 zmoment=   0.0000E+00
 nd#     223  xforce=   0.0000E+00   yforce=   0.0000E+00  zforce=  -4.8010E+01   energy=   8.3121E-04   setid =     223 xmoment=   0.0000E+00 ymoment=   0.0000E+00 zmoment=   0.0000E+00
 nd#     248  xforce=   0.0000E+00   yforce=   0.0000E+00  zforce=  -9.4292E+01   energy=   1.3448E-03   setid =     248 xmoment=   0.0000E+00 ymoment=   0.0000E+00 zmoment=   0.0000E+00
 nd#     249  xforce=   0.0000E+00   yforce=   0.0000E+00  zforce=  -3.9723E+01   energy=   7.2440E-04   setid =     249 xmoment=   0.0000E+00 ymoment=   0.0000E+00 zmoment=   0.0000E+00
 nd#     286  xforce=   0.0000E+00   yforce=   0.0000E+00  zforce=  -1.8613E+02   energy=   1.7764E-03   setid =     286 xmoment=   0.0000E+00 ymoment=   0.0000E+00 zmoment=   0.0000E+00
 nd#     287  xforce=   0.0000E+00   yforce=   0.0000E+00  zforce=  -8.9868E+01   energy=   9.0664E-04   setid =     287 xmoment=   0.0000E+00 ymoment=   0.0000E+00 zmoment=   0.0000E+00
 nd#     288  xforce=   0.0000E+00   yforce=   0.0000E+00  zforce=  -9.9624E+01   energy=   1.3558E-03   setid =     288 xmoment=   0.0000E+00 ymoment=   0.0000E+00 zmoment=   0.0000E+00
 nd#     301  xforce=   0.0000E+00   yforce=   0.0000E+00  zforce=  -1.0265E+02   energy=   1.4640E-03   setid =     301 xmoment=   0.0000E+00 ymoment=   0.0000E+00 zmoment=   0.0000E+00
 nd#     314  xforce=   0.0000E+00   yforce=   0.0000E+00  zforce=  -8.9945E+01   energy=   1.2861E-03   setid =     314 xmoment=   0.0000E+00 ymoment=   0.0000E+00 zmoment=   0.0000E+00
 nd#     363  xforce=   0.0000E+00   yforce=   0.0000E+00  zforce=  -8.6560E+01   energy=   1.3125E-03   setid =     363 xmoment=   0.0000E+00 ymoment=   0.0000E+00 zmoment=   0.0000E+00
 nd#     364  xforce=   0.0000E+00   yforce=   0.0000E+00  zforce=  -9.9091E+01   energy=   1.5993E-03   setid =     364 xmoment=   0.0000E+00 ymoment=   0.0000E+00 zmoment=   0.0000E+00
 nd#     365  xforce=   0.0000E+00   yforce=   0.0000E+00  zforce=  -4.5313E+01   energy=   9.1441E-04   setid =     365 xmoment=   0.0000E+00 ymoment=   0.0000E+00 zmoment=   0.0000E+00
 nd#     366  xforce=   0.0000E+00   yforce=   0.0000E+00  zforce=  -3.3386E+01   energy=   6.6844E-04   setid =     366 xmoment=   0.0000E+00 ymoment=   0.0000E+00 zmoment=   0.0000E+00
 nd#     379  xforce=   0.0000E+00   yforce=   0.0000E+00  zforce=  -7.1336E+01   energy=   9.6496E-04   setid =     379 xmoment=   0.0000E+00 ymoment=   0.0000E+00 zmoment=   0.0000E+00
 nd#     404  xforce=   0.0000E+00   yforce=   0.0000E+00  zforce=  -1.7227E+01   energy=   6.8932E-04   setid =     404 xmoment=   0.0000E+00 ymoment=   0.0000E+00 zmoment=   0.0000E+00
 nd#     405  xforce=   0.0000E+00   yforce=   0.0000E+00  zforce=  -1.2402E+01   energy=   4.7152E-04   setid =     405 xmoment=   0.0000E+00 ymoment=   0.0000E+00 zmoment=   0.0000E+00
 nd#     418  xforce=   0.0000E+00   yforce=   0.0000E+00  zforce=  -1.0016E+02   energy=   1.1666E-03   setid =     418 xmoment=   0.0000E+00 ymoment=   0.0000E+00 zmoment=   0.0000E+00
 nd#     438  xforce=   0.0000E+00   yforce=   0.0000E+00  zforce=   1.2900E+01   energy=   2.2664E-05   setid =     438 xmoment=   0.0000E+00 ymoment=   0.0000E+00 zmoment=   0.0000E+00
 nd#     439  xforce=   0.0000E+00   yforce=   0.0000E+00  zforce=  -2.3021E+01   energy=   5.4901E-04   setid =     439 xmoment=   0.0000E+00 ymoment=   0.0000E+00 zmoment=   0.0000E+00
 nd#     440  xforce=   0.0000E+00   yforce=   0.0000E+00  zforce=  -2.6351E+01   energy=   5.6431E-04   setid =     440 xmoment=   0.0000E+00 ymoment=   0.0000E+00 zmoment=   0.0000E+00
 nd#     441  xforce=   0.0000E+00   yforce=   0.0000E+00  zforce=  -2.0991E+01   energy=   5.3136E-04   setid =     441 xmoment=   0.0000E+00 ymoment=   0.0000E+00 zmoment=   0.0000E+00
 nd#     442  xforce=   0.0000E+00   yforce=   0.0000E+00  zforce=  -1.6340E+01   energy=   5.0053E-04   setid =     442 xmoment=   0.0000E+00 ymoment=   0.0000E+00 zmoment=   0.0000E+00
 nd#     443  xforce=   0.0000E+00   yforce=   0.0000E+00  zforce=  -1.3563E+01   energy=   4.7611E-04   setid =     443 xmoment=   0.0000E+00 ymoment=   0.0000E+00 zmoment=   0.0000E+00
 nd#     444  xforce=   0.0000E+00   yforce=   0.0000E+00  zforce=  -8.6105E+00   energy=   4.3284E-04   setid =     444 xmoment=   0.0000E+00 ymoment=   0.0000E+00 zmoment=   0.0000E+00
 nd#     591  xforce=   0.0000E+00   yforce=   0.0000E+00  zforce=  -3.5949E+01   energy=   9.7033E-04   setid =     591 xmoment=   0.0000E+00 ymoment=   0.0000E+00 zmoment=   0.0000E+00
 nd#     592  xforce=   0.0000E+00   yforce=   0.0000E+00  zforce=  -4.1436E+01   energy=   1.0285E-03   setid =     592 xmoment=   0.0000E+00 ymoment=   0.0000E+00 zmoment=   0.0000E+00
 nd#     595  xforce=   0.0000E+00   yforce=   0.0000E+00  zforce=  -4.2478E+01   energy=   9.8985E-04   setid =     595 xmoment=   0.0000E+00 ymoment=   0.0000E+00 zmoment=   0.0000E+00
 nd#     596  xforce=   0.0000E+00   yforce=   0.0000E+00  zforce=  -4.6204E+01   energy=   1.0482E-03   setid =     596 xmoment=   0.0000E+00 ymoment=   0.0000E+00 zmoment=   0.0000E+00
 nd#     599  xforce=   0.0000E+00   yforce=   0.0000E+00  zforce=  -6.1902E+01   energy=   1.0861E-03   setid =     599 xmoment=   0.0000E+00 ymoment=   0.0000E+00 zmoment=   0.0000E+00
 nd#     600  xforce=   0.0000E+00   yforce=   0.0000E+00  zforce=  -6.8701E+01   energy=   1.1631E-03   setid =     600 xmoment=   0.0000E+00 ymoment=   0.0000E+00 zmoment=   0.0000E+00
 nd#     603  xforce=   0.0000E+00   yforce=   0.0000E+00  zforce=  -3.2499E+01   energy=   5.7430E-04   setid =     603 xmoment=   0.0000E+00 ymoment=   0.0000E+00 zmoment=   0.0000E+00
 nd#     604  xforce=   0.0000E+00   yforce=   0.0000E+00  zforce=  -3.2301E+01   energy=   5.9359E-04   setid =     604 xmoment=   0.0000E+00 ymoment=   0.0000E+00 zmoment=   0.0000E+00
 nd#     638  xforce=   0.0000E+00   yforce=   0.0000E+00  zforce=  -6.0641E+01   energy=   1.1663E-03   setid =     638 xmoment=   0.0000E+00 ymoment=   0.0000E+00 zmoment=   0.0000E+00
 nd#     639  xforce=   0.0000E+00   yforce=   0.0000E+00  zforce=  -4.3526E+01   energy=   1.0895E-03   setid =     639 xmoment=   0.0000E+00 ymoment=   0.0000E+00 zmoment=   0.0000E+00
 nd#     641  xforce=   0.0000E+00   yforce=   0.0000E+00  zforce=  -6.3798E+01   energy=   1.1921E-03   setid =     641 xmoment=   0.0000E+00 ymoment=   0.0000E+00 zmoment=   0.0000E+00
 nd#     642  xforce=   0.0000E+00   yforce=   0.0000E+00  zforce=  -5.5728E+01   energy=   1.1587E-03   setid =     642 xmoment=   0.0000E+00 ymoment=   0.0000E+00 zmoment=   0.0000E+00
 nd#     644  xforce=   0.0000E+00   yforce=   0.0000E+00  zforce=  -7.9869E+01   energy=   1.2854E-03   setid =     644 xmoment=   0.0000E+00 ymoment=   0.0000E+00 zmoment=   0.0000E+00
 nd#     645  xforce=   0.0000E+00   yforce=   0.0000E+00  zforce=  -5.6772E+01   energy=   1.1890E-03   setid =     645 xmoment=   0.0000E+00 ymoment=   0.0000E+00 zmoment=   0.0000E+00
 nd#     647  xforce=   0.0000E+00   yforce=   0.0000E+00  zforce=  -2.0138E+01   energy=   5.6732E-04   setid =     647 xmoment=   0.0000E+00 ymoment=   0.0000E+00 zmoment=   0.0000E+00
 nd#     648  xforce=   0.0000E+00   yforce=   0.0000E+00  zforce=  -6.0049E+00   energy=   5.0615E-04   setid =     648 xmoment=   0.0000E+00 ymoment=   0.0000E+00 zmoment=   0.0000E+00
 nd#     674  xforce=   0.0000E+00   yforce=   0.0000E+00  zforce=  -2.1607E+01   energy=   8.5933E-04   setid =     674 xmoment=   0.0000E+00 ymoment=   0.0000E+00 zmoment=   0.0000E+00
 nd#     676  xforce=   0.0000E+00   yforce=   0.0000E+00  zforce=  -4.6060E+01   energy=   9.5720E-04   setid =     676 xmoment=   0.0000E+00 ymoment=   0.0000E+00 zmoment=   0.0000E+00
 nd#     678  xforce=   0.0000E+00   yforce=   0.0000E+00  zforce=  -6.6764E+01   energy=   1.0620E-03   setid =     678 xmoment=   0.0000E+00 ymoment=   0.0000E+00 zmoment=   0.0000E+00
 nd#     680  xforce=   0.0000E+00   yforce=   0.0000E+00  zforce=  -3.0143E+01   energy=   5.4279E-04   setid =     680 xmoment=   0.0000E+00 ymoment=   0.0000E+00 zmoment=   0.0000E+00
 nd#     821  xforce=   0.0000E+00   yforce=   0.0000E+00  zforce=  -4.8722E+01   energy=   1.0892E-03   setid =     821 xmoment=   0.0000E+00 ymoment=   0.0000E+00 zmoment=   0.0000E+00
 nd#     822  xforce=   0.0000E+00   yforce=   0.0000E+00  zforce=  -5.2218E+01   energy=   1.1108E-03   setid =     822 xmoment=   0.0000E+00 ymoment=   0.0000E+00 zmoment=   0.0000E+00
 nd#     823  xforce=   0.0000E+00   yforce=   0.0000E+00  zforce=  -7.1645E+01   energy=   1.2155E-03   setid =     823 xmoment=   0.0000E+00 ymoment=   0.0000E+00 zmoment=   0.0000E+00
 nd#     824  xforce=   0.0000E+00   yforce=   0.0000E+00  zforce=  -3.1899E+01   energy=   6.0813E-04   setid =     824 xmoment=   0.0000E+00 ymoment=   0.0000E+00 zmoment=   0.0000E+00
 nd#     850  xforce=   0.0000E+00   yforce=   0.0000E+00  zforce=   4.5944E+01   energy=  -8.0896E-05   setid =     850 xmoment=   0.0000E+00 ymoment=   0.0000E+00 zmoment=   0.0000E+00
 nd#     852  xforce=   0.0000E+00   yforce=   0.0000E+00  zforce=   6.4462E+01   energy=  -2.3217E-04   setid =     852 xmoment=   0.0000E+00 ymoment=   0.0000E+00 zmoment=   0.0000E+00
 nd#     854  xforce=   0.0000E+00   yforce=   0.0000E+00  zforce=   8.8517E+01   energy=  -4.1630E-04   setid =     854 xmoment=   0.0000E+00 ymoment=   0.0000E+00 zmoment=   0.0000E+00
 nd#     856  xforce=   0.0000E+00   yforce=   0.0000E+00  zforce=   6.5000E+01   energy=  -3.1395E-04   setid =     856 xmoment=   0.0000E+00 ymoment=   0.0000E+00 zmoment=   0.0000E+00
              xtotal=   0.0000E+00   ytotal=   0.0000E+00  ztotal=  -2.2688E+03   etotal=   4.5169E-02

 n o d a l   f o r c e/e n e r g y    o u t p u t  t=   4.27602E+00

 velocity boundary condition forces/rigid body moments 

 nd#     220  xforce=   0.0000E+00   yforce=   0.0000E+00  zforce=  -7.2598E+01   energy=   7.3446E-04   setid =     220 xmoment=   0.0000E+00 ymoment=   0.0000E+00 zmoment=   0.0000E+00
 nd#     221  xforce=   0.0000E+00   yforce=   0.0000E+00  zforce=  -4.4629E+01   energy=   8.1216E-04   setid =     221 xmoment=   0.0000E+00 ymoment=   0.0000E+00 zmoment=   0.0000E+00
 nd#     222  xforce=   0.0000E+00   yforce=   0.0000E+00  zforce=  -6.9299E+01   energy=   2.1537E-03   setid =     222 xmoment=   0.0000E+00 ymoment=   0.0000E+00 zmoment=   0.0000E+00
 nd#     223  xforce=   0.0000E+00   yforce=   0.0000E+00  zforce=  -5.3466E+01   energy=   1.1755E-03   setid =     223 xmoment=   0.0000E+00 ymoment=   0.0000E+00 zmoment=   0.0000E+00
 nd#     248  xforce=   0.0000E+00   yforce=   0.0000E+00  zforce=  -6.1590E+01   energy=   1.9139E-03   setid =     248 xmoment=   0.0000E+00 ymoment=   0.0000E+00 zmoment=   0.0000E+00
 nd#     249  xforce=   0.0000E+00   yforce=   0.0000E+00  zforce=  -3.9062E+01   energy=   1.0425E-03   setid =     249 xmoment=   0.0000E+00 ymoment=   0.0000E+00 zmoment=   0.0000E+00
 nd#     286  xforce=   0.0000E+00   yforce=   0.0000E+00  zforce=   4.6410E+01   energy=   1.9931E-03   setid =     286 xmoment=   0.0000E+00 ymoment=   0.0000E+00 zmoment=   0.0000E+00
 nd#     287  xforce=   0.0000E+00   yforce=   0.0000E+00  zforce=  -6.2715E+01   energy=   1.4414E-03   setid =     287 xmoment=   0.0000E+00 ymoment=   0.0000E+00 zmoment=   0.0000E+00
 nd#     288  xforce=   0.0000E+00   yforce=   0.0000E+00  zforce=   9.5005E+00   energy=   1.5710E-03   setid =     288 xmoment=   0.0000E+00 ymoment=   0.0000E+00 zmoment=   0.0000E+00
 nd#     301  xforce=   0.0000E+00   yforce=   0.0000E+00  zforce=  -1.3108E+02   energy=   2.4009E-03   setid =     301 xmoment=   0.0000E+00 ymoment=   0.0000E+00 zmoment=   0.0000E+00
 nd#     314  xforce=   0.0000E+00   yforce=   0.0000E+00  zforce=  -6.8195E+01   energy=   1.8168E-03   setid =     314 xmoment=   0.0000E+00 ymoment=   0.0000E+00 zmoment=   0.0000E+00
 nd#     363  xforce=   0.0000E+00   yforce=   0.0000E+00  zforce=  -2.1819E+01   energy=   1.5350E-03   setid =     363 xmoment=   0.0000E+00 ymoment=   0.0000E+00 zmoment=   0.0000E+00
 nd#     364  xforce=   0.0000E+00   yforce=   0.0000E+00  zforce=  -5.5474E+01   energy=   2.1247E-03   setid =     364 xmoment=   0.0000E+00 ymoment=   0.0000E+00 zmoment=   0.0000E+00
 nd#     365  xforce=   0.0000E+00   yforce=   0.0000E+00  zforce=  -1.2155E+02   energy=   1.6874E-03   setid =     365 xmoment=   0.0000E+00 ymoment=   0.0000E+00 zmoment=   0.0000E+00
 nd#     366  xforce=   0.0000E+00   yforce=   0.0000E+00  zforce=  -5.1845E+01   energy=   9.7095E-04   setid =     366 xmoment=   0.0000E+00 ymoment=   0.0000E+00 zmoment=   0.0000E+00
 nd#     379  xforce=   0.0000E+00   yforce=   0.0000E+00  zforce=  -5.0315E+01   energy=   1.4038E-03   setid =     379 xmoment=   0.0000E+00 ymoment=   0.0000E+00 zmoment=   0.0000E+00
 nd#     404  xforce=   0.0000E+00   yforce=   0.0000E+00  zforce=  -1.5239E+02   energy=   1.5326E-03   setid =     404 xmoment=   0.0000E+00 ymoment=   0.0000E+00 zmoment=   0.0000E+00
 nd#     405  xforce=   0.0000E+00   yforce=   0.0000E+00  zforce=  -1.0324E+02   energy=   1.0310E-03   setid =     405 xmoment=   0.0000E+00 ymoment=   0.0000E+00 zmoment=   0.0000E+00
 nd#     418  xforce=   0.0000E+00   yforce=   0.0000E+00  zforce=  -1.1766E+02   energy=   2.0858E-03   setid =     418 xmoment=   0.0000E+00 ymoment=   0.0000E+00 zmoment=   0.0000E+00
 nd#     438  xforce=   0.0000E+00   yforce=   0.0000E+00  zforce=   8.4946E+00   energy=  -6.9319E-05   setid =     438 xmoment=   0.0000E+00 ymoment=   0.0000E+00 zmoment=   0.0000E+00
 nd#     439  xforce=   0.0000E+00   yforce=   0.0000E+00  zforce=  -2.6054E+01   energy=   7.1030E-04   setid =     439 xmoment=   0.0000E+00 ymoment=   0.0000E+00 zmoment=   0.0000E+00
 nd#     440  xforce=   0.0000E+00   yforce=   0.0000E+00  zforce=  -3.0406E+01   energy=   7.6373E-04   setid =     440 xmoment=   0.0000E+00 ymoment=   0.0000E+00 zmoment=   0.0000E+00
 nd#     441  xforce=   0.0000E+00   yforce=   0.0000E+00  zforce=  -3.2860E+01   energy=   7.3629E-04   setid =     441 xmoment=   0.0000E+00 ymoment=   0.0000E+00 zmoment=   0.0000E+00
 nd#     442  xforce=   0.0000E+00   yforce=   0.0000E+00  zforce=  -3.5585E+01   energy=   7.1503E-04   setid =     442 xmoment=   0.0000E+00 ymoment=   0.0000E+00 zmoment=   0.0000E+00
 nd#     443  xforce=   0.0000E+00   yforce=   0.0000E+00  zforce=  -3.6688E+01   energy=   6.9948E-04   setid =     443 xmoment=   0.0000E+00 ymoment=   0.0000E+00 zmoment=   0.0000E+00
 nd#     444  xforce=   0.0000E+00   yforce=   0.0000E+00  zforce=  -3.7253E+01   energy=   6.7717E-04   setid =     444 xmoment=   0.0000E+00 ymoment=   0.0000E+00 zmoment=   0.0000E+00
 nd#     591  xforce=   0.0000E+00   yforce=   0.0000E+00  zforce=  -3.4365E+01   energy=   1.2153E-03   setid =     591 xmoment=   0.0000E+00 ymoment=   0.0000E+00 zmoment=   0.0000E+00
 nd#     592  xforce=   0.0000E+00   yforce=   0.0000E+00  zforce=  -4.0390E+01   energy=   1.3094E-03   setid =     592 xmoment=   0.0000E+00 ymoment=   0.0000E+00 zmoment=   0.0000E+00
 nd#     595  xforce=   0.0000E+00   yforce=   0.0000E+00  zforce=  -6.2564E+01   energy=   1.4119E-03   setid =     595 xmoment=   0.0000E+00 ymoment=   0.0000E+00 zmoment=   0.0000E+00
 nd#     596  xforce=   0.0000E+00   yforce=   0.0000E+00  zforce=  -6.4360E+01   energy=   1.4896E-03   setid =     596 xmoment=   0.0000E+00 ymoment=   0.0000E+00 zmoment=   0.0000E+00
 nd#     599  xforce=   0.0000E+00   yforce=   0.0000E+00  zforce=  -5.9038E+01   energy=   1.5362E-03   setid =     599 xmoment=   0.0000E+00 ymoment=   0.0000E+00 zmoment=   0.0000E+00
 nd#     600  xforce=   0.0000E+00   yforce=   0.0000E+00  zforce=  -6.7378E+01   energy=   1.6767E-03   setid =     600 xmoment=   0.0000E+00 ymoment=   0.0000E+00 zmoment=   0.0000E+00
 nd#     603  xforce=   0.0000E+00   yforce=   0.0000E+00  zforce=  -3.4821E+01   energy=   8.2182E-04   setid =     603 xmoment=   0.0000E+00 ymoment=   0.0000E+00 zmoment=   0.0000E+00
 nd#     604  xforce=   0.0000E+00   yforce=   0.0000E+00  zforce=  -3.8616E+01   energy=   8.6398E-04   setid =     604 xmoment=   0.0000E+00 ymoment=   0.0000E+00 zmoment=   0.0000E+00
 nd#     638  xforce=   0.0000E+00   yforce=   0.0000E+00  zforce=  -4.5860E+01   energy=   1.4971E-03   setid =     638 xmoment=   0.0000E+00 ymoment=   0.0000E+00 zmoment=   0.0000E+00
 nd#     639  xforce=   0.0000E+00   yforce=   0.0000E+00  zforce=  -3.9142E+01   energy=   1.3278E-03   setid =     639 xmoment=   0.0000E+00 ymoment=   0.0000E+00 zmoment=   0.0000E+00
 nd#     641  xforce=   0.0000E+00   yforce=   0.0000E+00  zforce=  -6.0928E+01   energy=   1.6262E-03   setid =     641 xmoment=   0.0000E+00 ymoment=   0.0000E+00 zmoment=   0.0000E+00
 nd#     642  xforce=   0.0000E+00   yforce=   0.0000E+00  zforce=  -6.0791E+01   energy=   1.5611E-03   setid =     642 xmoment=   0.0000E+00 ymoment=   0.0000E+00 zmoment=   0.0000E+00
 nd#     644  xforce=   0.0000E+00   yforce=   0.0000E+00  zforce=  -6.9674E+01   energy=   1.8210E-03   setid =     644 xmoment=   0.0000E+00 ymoment=   0.0000E+00 zmoment=   0.0000E+00
 nd#     645  xforce=   0.0000E+00   yforce=   0.0000E+00  zforce=  -6.4896E+01   energy=   1.6435E-03   setid =     645 xmoment=   0.0000E+00 ymoment=   0.0000E+00 zmoment=   0.0000E+00
 nd#     647  xforce=   0.0000E+00   yforce=   0.0000E+00  zforce=  -2.8228E+01   energy=   7.5048E-04   setid =     647 xmoment=   0.0000E+00 ymoment=   0.0000E+00 zmoment=   0.0000E+00
 nd#     648  xforce=   0.0000E+00   yforce=   0.0000E+00  zforce=  -1.6695E+01   energy=   5.7673E-04   setid =     648 xmoment=   0.0000E+00 ymoment=   0.0000E+00 zmoment=   0.0000E+00
 nd#     674  xforce=   0.0000E+00   yforce=   0.0000E+00  zforce=  -2.9593E+01   energy=   1.0677E-03   setid =     674 xmoment=   0.0000E+00 ymoment=   0.0000E+00 zmoment=   0.0000E+00
 nd#     676  xforce=   0.0000E+00   yforce=   0.0000E+00  zforce=  -6.0101E+01   energy=   1.3483E-03   setid =     676 xmoment=   0.0000E+00 ymoment=   0.0000E+00 zmoment=   0.0000E+00
 nd#     678  xforce=   0.0000E+00   yforce=   0.0000E+00  zforce=  -5.3113E+01   energy=   1.4676E-03   setid =     678 xmoment=   0.0000E+00 ymoment=   0.0000E+00 zmoment=   0.0000E+00
 nd#     680  xforce=   0.0000E+00   yforce=   0.0000E+00  zforce=  -3.7517E+01   energy=   7.7360E-04   setid =     680 xmoment=   0.0000E+00 ymoment=   0.0000E+00 zmoment=   0.0000E+00
 nd#     821  xforce=   0.0000E+00   yforce=   0.0000E+00  zforce=  -4.2210E+01   energy=   1.3849E-03   setid =     821 xmoment=   0.0000E+00 ymoment=   0.0000E+00 zmoment=   0.0000E+00
 nd#     822  xforce=   0.0000E+00   yforce=   0.0000E+00  zforce=  -6.1820E+01   energy=   1.5398E-03   setid =     822 xmoment=   0.0000E+00 ymoment=   0.0000E+00 zmoment=   0.0000E+00
 nd#     823  xforce=   0.0000E+00   yforce=   0.0000E+00  zforce=  -6.9046E+01   energy=   1.7331E-03   setid =     823 xmoment=   0.0000E+00 ymoment=   0.0000E+00 zmoment=   0.0000E+00
 nd#     824  xforce=   0.0000E+00   yforce=   0.0000E+00  zforce=  -3.8044E+01   energy=   8.7337E-04   setid =     824 xmoment=   0.0000E+00 ymoment=   0.0000E+00 zmoment=   0.0000E+00
 nd#     850  xforce=   0.0000E+00   yforce=   0.0000E+00  zforce=   3.6292E+01   energy=  -4.2371E-04   setid =     850 xmoment=   0.0000E+00 ymoment=   0.0000E+00 zmoment=   0.0000E+00
 nd#     852  xforce=   0.0000E+00   yforce=   0.0000E+00  zforce=   4.8909E+01   energy=  -7.0792E-04   setid =     852 xmoment=   0.0000E+00 ymoment=   0.0000E+00 zmoment=   0.0000E+00
 nd#     854  xforce=   0.0000E+00   yforce=   0.0000E+00  zforce=   6.4483E+01   energy=  -1.0125E-03   setid =     854 xmoment=   0.0000E+00 ymoment=   0.0000E+00 zmoment=   0.0000E+00
 nd#     856  xforce=   0.0000E+00   yforce=   0.0000E+00  zforce=   6.0978E+01   energy=  -8.4002E-04   setid =     856 xmoment=   0.0000E+00 ymoment=   0.0000E+00 zmoment=   0.0000E+00
              xtotal=   0.0000E+00   ytotal=   0.0000E+00  ztotal=  -2.3799E+03   etotal=   6.1992E-02

 n o d a l   f o r c e/e n e r g y    o u t p u t  t=   5.67157E+00

 velocity boundary condition forces/rigid body moments 

 nd#     220  xforce=   0.0000E+00   yforce=   0.0000E+00  zforce=  -9.2702E+01   energy=   1.9275E-03   setid =     220 xmoment=   0.0000E+00 ymoment=   0.0000E+00 zmoment=   0.0000E+00
 nd#     221  xforce=   0.0000E+00   yforce=   0.0000E+00  zforce=  -5.2462E+01   energy=   1.4877E-03   setid =     221 xmoment=   0.0000E+00 ymoment=   0.0000E+00 zmoment=   0.0000E+00
 nd#     222  xforce=   0.0000E+00   yforce=   0.0000E+00  zforce=  -7.0804E+01   energy=   3.1285E-03   setid =     222 xmoment=   0.0000E+00 ymoment=   0.0000E+00 zmoment=   0.0000E+00
 nd#     223  xforce=   0.0000E+00   yforce=   0.0000E+00  zforce=  -6.8075E+01   energy=   2.0602E-03   setid =     223 xmoment=   0.0000E+00 ymoment=   0.0000E+00 zmoment=   0.0000E+00
 nd#     248  xforce=   0.0000E+00   yforce=   0.0000E+00  zforce=  -5.8280E+01   energy=   2.7422E-03   setid =     248 xmoment=   0.0000E+00 ymoment=   0.0000E+00 zmoment=   0.0000E+00
 nd#     249  xforce=   0.0000E+00   yforce=   0.0000E+00  zforce=  -3.8993E+01   energy=   1.5885E-03   setid =     249 xmoment=   0.0000E+00 ymoment=   0.0000E+00 zmoment=   0.0000E+00
 nd#     286  xforce=   0.0000E+00   yforce=   0.0000E+00  zforce=   9.3834E+01   energy=   9.6253E-04   setid =     286 xmoment=   0.0000E+00 ymoment=   0.0000E+00 zmoment=   0.0000E+00
 nd#     287  xforce=   0.0000E+00   yforce=   0.0000E+00  zforce=  -6.1642E+01   energy=   2.3076E-03   setid =     287 xmoment=   0.0000E+00 ymoment=   0.0000E+00 zmoment=   0.0000E+00
 nd#     288  xforce=   0.0000E+00   yforce=   0.0000E+00  zforce=   3.3350E+01   energy=   1.2202E-03   setid =     288 xmoment=   0.0000E+00 ymoment=   0.0000E+00 zmoment=   0.0000E+00
 nd#     301  xforce=   0.0000E+00   yforce=   0.0000E+00  zforce=  -1.3986E+02   energy=   4.3028E-03   setid =     301 xmoment=   0.0000E+00 ymoment=   0.0000E+00 zmoment=   0.0000E+00
 nd#     314  xforce=   0.0000E+00   yforce=   0.0000E+00  zforce=  -7.1783E+01   energy=   2.8002E-03   setid =     314 xmoment=   0.0000E+00 ymoment=   0.0000E+00 zmoment=   0.0000E+00
 nd#     363  xforce=   0.0000E+00   yforce=   0.0000E+00  zforce=  -2.0843E+01   energy=   1.8378E-03   setid =     363 xmoment=   0.0000E+00 ymoment=   0.0000E+00 zmoment=   0.0000E+00
 nd#     364  xforce=   0.0000E+00   yforce=   0.0000E+00  zforce=  -5.4330E+01   energy=   2.8859E-03   setid =     364 xmoment=   0.0000E+00 ymoment=   0.0000E+00 zmoment=   0.0000E+00
 nd#     365  xforce=   0.0000E+00   yforce=   0.0000E+00  zforce=  -1.3980E+02   energy=   3.5260E-03   setid =     365 xmoment=   0.0000E+00 ymoment=   0.0000E+00 zmoment=   0.0000E+00
 nd#     366  xforce=   0.0000E+00   yforce=   0.0000E+00  zforce=  -5.9861E+01   energy=   1.7616E-03   setid =     366 xmoment=   0.0000E+00 ymoment=   0.0000E+00 zmoment=   0.0000E+00
 nd#     379  xforce=   0.0000E+00   yforce=   0.0000E+00  zforce=  -5.0243E+01   energy=   2.1096E-03   setid =     379 xmoment=   0.0000E+00 ymoment=   0.0000E+00 zmoment=   0.0000E+00
 nd#     404  xforce=   0.0000E+00   yforce=   0.0000E+00  zforce=  -1.8426E+02   energy=   3.9193E-03   setid =     404 xmoment=   0.0000E+00 ymoment=   0.0000E+00 zmoment=   0.0000E+00
 nd#     405  xforce=   0.0000E+00   yforce=   0.0000E+00  zforce=  -1.3308E+02   energy=   2.7289E-03   setid =     405 xmoment=   0.0000E+00 ymoment=   0.0000E+00 zmoment=   0.0000E+00
 nd#     418  xforce=   0.0000E+00   yforce=   0.0000E+00  zforce=  -1.2207E+02   energy=   3.7610E-03   setid =     418 xmoment=   0.0000E+00 ymoment=   0.0000E+00 zmoment=   0.0000E+00
 nd#     438  xforce=   0.0000E+00   yforce=   0.0000E+00  zforce=   7.7381E+00   energy=  -1.8207E-04   setid =     438 xmoment=   0.0000E+00 ymoment=   0.0000E+00 zmoment=   0.0000E+00
 nd#     439  xforce=   0.0000E+00   yforce=   0.0000E+00  zforce=  -2.8292E+01   energy=   1.0906E-03   setid =     439 xmoment=   0.0000E+00 ymoment=   0.0000E+00 zmoment=   0.0000E+00
 nd#     440  xforce=   0.0000E+00   yforce=   0.0000E+00  zforce=  -3.3373E+01   energy=   1.2117E-03   setid =     440 xmoment=   0.0000E+00 ymoment=   0.0000E+00 zmoment=   0.0000E+00
 nd#     441  xforce=   0.0000E+00   yforce=   0.0000E+00  zforce=  -3.6544E+01   energy=   1.2236E-03   setid =     441 xmoment=   0.0000E+00 ymoment=   0.0000E+00 zmoment=   0.0000E+00
 nd#     442  xforce=   0.0000E+00   yforce=   0.0000E+00  zforce=  -3.9103E+01   energy=   1.2395E-03   setid =     442 xmoment=   0.0000E+00 ymoment=   0.0000E+00 zmoment=   0.0000E+00
 nd#     443  xforce=   0.0000E+00   yforce=   0.0000E+00  zforce=  -4.0907E+01   energy=   1.2437E-03   setid =     443 xmoment=   0.0000E+00 ymoment=   0.0000E+00 zmoment=   0.0000E+00
 nd#     444  xforce=   0.0000E+00   yforce=   0.0000E+00  zforce=  -4.2376E+01   energy=   1.2364E-03   setid =     444 xmoment=   0.0000E+00 ymoment=   0.0000E+00 zmoment=   0.0000E+00
 nd#     591  xforce=   0.0000E+00   yforce=   0.0000E+00  zforce=  -3.7230E+01   energy=   1.7170E-03   setid =     591 xmoment=   0.0000E+00 ymoment=   0.0000E+00 zmoment=   0.0000E+00
 nd#     592  xforce=   0.0000E+00   yforce=   0.0000E+00  zforce=  -4.2769E+01   energy=   1.8939E-03   setid =     592 xmoment=   0.0000E+00 ymoment=   0.0000E+00 zmoment=   0.0000E+00
 nd#     595  xforce=   0.0000E+00   yforce=   0.0000E+00  zforce=  -6.8124E+01   energy=   2.3267E-03   setid =     595 xmoment=   0.0000E+00 ymoment=   0.0000E+00 zmoment=   0.0000E+00
 nd#     596  xforce=   0.0000E+00   yforce=   0.0000E+00  zforce=  -6.8750E+01   energy=   2.4212E-03   setid =     596 xmoment=   0.0000E+00 ymoment=   0.0000E+00 zmoment=   0.0000E+00
 nd#     599  xforce=   0.0000E+00   yforce=   0.0000E+00  zforce=  -6.2783E+01   energy=   2.3892E-03   setid =     599 xmoment=   0.0000E+00 ymoment=   0.0000E+00 zmoment=   0.0000E+00
 nd#     600  xforce=   0.0000E+00   yforce=   0.0000E+00  zforce=  -7.1702E+01   energy=   2.6514E-03   setid =     600 xmoment=   0.0000E+00 ymoment=   0.0000E+00 zmoment=   0.0000E+00
 nd#     603  xforce=   0.0000E+00   yforce=   0.0000E+00  zforce=  -3.9782E+01   energy=   1.3483E-03   setid =     603 xmoment=   0.0000E+00 ymoment=   0.0000E+00 zmoment=   0.0000E+00
 nd#     604  xforce=   0.0000E+00   yforce=   0.0000E+00  zforce=  -4.2454E+01   energy=   1.4343E-03   setid =     604 xmoment=   0.0000E+00 ymoment=   0.0000E+00 zmoment=   0.0000E+00
 nd#     638  xforce=   0.0000E+00   yforce=   0.0000E+00  zforce=  -4.9724E+01   energy=   2.1698E-03   setid =     638 xmoment=   0.0000E+00 ymoment=   0.0000E+00 zmoment=   0.0000E+00
 nd#     639  xforce=   0.0000E+00   yforce=   0.0000E+00  zforce=  -4.1689E+01   energy=   1.8941E-03   setid =     639 xmoment=   0.0000E+00 ymoment=   0.0000E+00 zmoment=   0.0000E+00
 nd#     641  xforce=   0.0000E+00   yforce=   0.0000E+00  zforce=  -6.4600E+01   energy=   2.5038E-03   setid =     641 xmoment=   0.0000E+00 ymoment=   0.0000E+00 zmoment=   0.0000E+00
 nd#     642  xforce=   0.0000E+00   yforce=   0.0000E+00  zforce=  -6.3242E+01   energy=   2.4261E-03   setid =     642 xmoment=   0.0000E+00 ymoment=   0.0000E+00 zmoment=   0.0000E+00
 nd#     644  xforce=   0.0000E+00   yforce=   0.0000E+00  zforce=  -7.4545E+01   energy=   2.8294E-03   setid =     644 xmoment=   0.0000E+00 ymoment=   0.0000E+00 zmoment=   0.0000E+00
 nd#     645  xforce=   0.0000E+00   yforce=   0.0000E+00  zforce=  -7.0336E+01   energy=   2.5921E-03   setid =     645 xmoment=   0.0000E+00 ymoment=   0.0000E+00 zmoment=   0.0000E+00
 nd#     647  xforce=   0.0000E+00   yforce=   0.0000E+00  zforce=  -2.9870E+01   energy=   1.1543E-03   setid =     647 xmoment=   0.0000E+00 ymoment=   0.0000E+00 zmoment=   0.0000E+00
 nd#     648  xforce=   0.0000E+00   yforce=   0.0000E+00  zforce=  -1.9524E+01   energy=   8.3258E-04   setid =     648 xmoment=   0.0000E+00 ymoment=   0.0000E+00 zmoment=   0.0000E+00
 nd#     674  xforce=   0.0000E+00   yforce=   0.0000E+00  zforce=  -3.3354E+01   energy=   1.5125E-03   setid =     674 xmoment=   0.0000E+00 ymoment=   0.0000E+00 zmoment=   0.0000E+00
 nd#     676  xforce=   0.0000E+00   yforce=   0.0000E+00  zforce=  -6.9275E+01   energy=   2.2609E-03   setid =     676 xmoment=   0.0000E+00 ymoment=   0.0000E+00 zmoment=   0.0000E+00
 nd#     678  xforce=   0.0000E+00   yforce=   0.0000E+00  zforce=  -5.5757E+01   energy=   2.2288E-03   setid =     678 xmoment=   0.0000E+00 ymoment=   0.0000E+00 zmoment=   0.0000E+00
 nd#     680  xforce=   0.0000E+00   yforce=   0.0000E+00  zforce=  -4.4758E+01   energy=   1.3575E-03   setid =     680 xmoment=   0.0000E+00 ymoment=   0.0000E+00 zmoment=   0.0000E+00
 nd#     821  xforce=   0.0000E+00   yforce=   0.0000E+00  zforce=  -4.6638E+01   energy=   2.0114E-03   setid =     821 xmoment=   0.0000E+00 ymoment=   0.0000E+00 zmoment=   0.0000E+00
 nd#     822  xforce=   0.0000E+00   yforce=   0.0000E+00  zforce=  -6.6573E+01   energy=   2.4394E-03   setid =     822 xmoment=   0.0000E+00 ymoment=   0.0000E+00 zmoment=   0.0000E+00
 nd#     823  xforce=   0.0000E+00   yforce=   0.0000E+00  zforce=  -7.3691E+01   energy=   2.7332E-03   setid =     823 xmoment=   0.0000E+00 ymoment=   0.0000E+00 zmoment=   0.0000E+00
 nd#     824  xforce=   0.0000E+00   yforce=   0.0000E+00  zforce=  -4.1791E+01   energy=   1.4342E-03   setid =     824 xmoment=   0.0000E+00 ymoment=   0.0000E+00 zmoment=   0.0000E+00
 nd#     850  xforce=   0.0000E+00   yforce=   0.0000E+00  zforce=   3.6296E+01   energy=  -9.3022E-04   setid =     850 xmoment=   0.0000E+00 ymoment=   0.0000E+00 zmoment=   0.0000E+00
 nd#     852  xforce=   0.0000E+00   yforce=   0.0000E+00  zforce=   4.6950E+01   energy=  -1.3735E-03   setid =     852 xmoment=   0.0000E+00 ymoment=   0.0000E+00 zmoment=   0.0000E+00
 nd#     854  xforce=   0.0000E+00   yforce=   0.0000E+00  zforce=   6.7308E+01   energy=  -1.9415E-03   setid =     854 xmoment=   0.0000E+00 ymoment=   0.0000E+00 zmoment=   0.0000E+00
 nd#     856  xforce=   0.0000E+00   yforce=   0.0000E+00  zforce=   5.7521E+01   energy=  -1.6581E-03   setid =     856 xmoment=   0.0000E+00 ymoment=   0.0000E+00 zmoment=   0.0000E+00
              xtotal=   0.0000E+00   ytotal=   0.0000E+00  ztotal=  -2.5756E+03   etotal=   9.6780E-02

 n o d a l   f o r c e/e n e r g y    o u t p u t  t=   7.02771E+00

 velocity boundary condition forces/rigid body moments 

 nd#     220  xforce=   0.0000E+00   yforce=   0.0000E+00  zforce=  -1.0664E+02   energy=   3.2791E-03   setid =     220 xmoment=   0.0000E+00 ymoment=   0.0000E+00 zmoment=   0.0000E+00
 nd#     221  xforce=   0.0000E+00   yforce=   0.0000E+00  zforce=  -5.9164E+01   energy=   2.2446E-03   setid =     221 xmoment=   0.0000E+00 ymoment=   0.0000E+00 zmoment=   0.0000E+00
 nd#     222  xforce=   0.0000E+00   yforce=   0.0000E+00  zforce=  -7.3458E+01   energy=   4.1067E-03   setid =     222 xmoment=   0.0000E+00 ymoment=   0.0000E+00 zmoment=   0.0000E+00
 nd#     223  xforce=   0.0000E+00   yforce=   0.0000E+00  zforce=  -7.4933E+01   energy=   3.0299E-03   setid =     223 xmoment=   0.0000E+00 ymoment=   0.0000E+00 zmoment=   0.0000E+00
 nd#     248  xforce=   0.0000E+00   yforce=   0.0000E+00  zforce=  -5.4971E+01   energy=   3.5101E-03   setid =     248 xmoment=   0.0000E+00 ymoment=   0.0000E+00 zmoment=   0.0000E+00
 nd#     249  xforce=   0.0000E+00   yforce=   0.0000E+00  zforce=  -3.8226E+01   energy=   2.1121E-03   setid =     249 xmoment=   0.0000E+00 ymoment=   0.0000E+00 zmoment=   0.0000E+00
 nd#     286  xforce=   0.0000E+00   yforce=   0.0000E+00  zforce=   1.5785E+02   energy=  -7.4403E-04   setid =     286 xmoment=   0.0000E+00 ymoment=   0.0000E+00 zmoment=   0.0000E+00
 nd#     287  xforce=   0.0000E+00   yforce=   0.0000E+00  zforce=  -6.4807E+01   energy=   3.1650E-03   setid =     287 xmoment=   0.0000E+00 ymoment=   0.0000E+00 zmoment=   0.0000E+00
 nd#     288  xforce=   0.0000E+00   yforce=   0.0000E+00  zforce=   5.3301E+01   energy=   6.3263E-04   setid =     288 xmoment=   0.0000E+00 ymoment=   0.0000E+00 zmoment=   0.0000E+00
 nd#     301  xforce=   0.0000E+00   yforce=   0.0000E+00  zforce=  -1.5704E+02   energy=   6.3160E-03   setid =     301 xmoment=   0.0000E+00 ymoment=   0.0000E+00 zmoment=   0.0000E+00
 nd#     314  xforce=   0.0000E+00   yforce=   0.0000E+00  zforce=  -7.4044E+01   energy=   3.7890E-03   setid =     314 xmoment=   0.0000E+00 ymoment=   0.0000E+00 zmoment=   0.0000E+00
 nd#     363  xforce=   0.0000E+00   yforce=   0.0000E+00  zforce=  -1.7291E+01   energy=   2.0964E-03   setid =     363 xmoment=   0.0000E+00 ymoment=   0.0000E+00 zmoment=   0.0000E+00
 nd#     364  xforce=   0.0000E+00   yforce=   0.0000E+00  zforce=  -5.3069E+01   energy=   3.6141E-03   setid =     364 xmoment=   0.0000E+00 ymoment=   0.0000E+00 zmoment=   0.0000E+00
 nd#     365  xforce=   0.0000E+00   yforce=   0.0000E+00  zforce=  -1.5658E+02   energy=   5.5356E-03   setid =     365 xmoment=   0.0000E+00 ymoment=   0.0000E+00 zmoment=   0.0000E+00
 nd#     366  xforce=   0.0000E+00   yforce=   0.0000E+00  zforce=  -6.5885E+01   energy=   2.6143E-03   setid =     366 xmoment=   0.0000E+00 ymoment=   0.0000E+00 zmoment=   0.0000E+00
 nd#     379  xforce=   0.0000E+00   yforce=   0.0000E+00  zforce=  -4.9019E+01   energy=   2.7827E-03   setid =     379 xmoment=   0.0000E+00 ymoment=   0.0000E+00 zmoment=   0.0000E+00
 nd#     404  xforce=   0.0000E+00   yforce=   0.0000E+00  zforce=  -2.0992E+02   energy=   6.5921E-03   setid =     404 xmoment=   0.0000E+00 ymoment=   0.0000E+00 zmoment=   0.0000E+00
 nd#     405  xforce=   0.0000E+00   yforce=   0.0000E+00  zforce=  -1.4979E+02   energy=   4.6469E-03   setid =     405 xmoment=   0.0000E+00 ymoment=   0.0000E+00 zmoment=   0.0000E+00
 nd#     418  xforce=   0.0000E+00   yforce=   0.0000E+00  zforce=  -1.2919E+02   energy=   5.4647E-03   setid =     418 xmoment=   0.0000E+00 ymoment=   0.0000E+00 zmoment=   0.0000E+00
 nd#     438  xforce=   0.0000E+00   yforce=   0.0000E+00  zforce=   7.8665E+00   energy=  -2.8788E-04   setid =     438 xmoment=   0.0000E+00 ymoment=   0.0000E+00 zmoment=   0.0000E+00
 nd#     439  xforce=   0.0000E+00   yforce=   0.0000E+00  zforce=  -2.9663E+01   energy=   1.4836E-03   setid =     439 xmoment=   0.0000E+00 ymoment=   0.0000E+00 zmoment=   0.0000E+00
 nd#     440  xforce=   0.0000E+00   yforce=   0.0000E+00  zforce=  -3.6062E+01   energy=   1.6825E-03   setid =     440 xmoment=   0.0000E+00 ymoment=   0.0000E+00 zmoment=   0.0000E+00
 nd#     441  xforce=   0.0000E+00   yforce=   0.0000E+00  zforce=  -3.9312E+01   energy=   1.7380E-03   setid =     441 xmoment=   0.0000E+00 ymoment=   0.0000E+00 zmoment=   0.0000E+00
 nd#     442  xforce=   0.0000E+00   yforce=   0.0000E+00  zforce=  -4.2463E+01   energy=   1.7926E-03   setid =     442 xmoment=   0.0000E+00 ymoment=   0.0000E+00 zmoment=   0.0000E+00
 nd#     443  xforce=   0.0000E+00   yforce=   0.0000E+00  zforce=  -4.4907E+01   energy=   1.8256E-03   setid =     443 xmoment=   0.0000E+00 ymoment=   0.0000E+00 zmoment=   0.0000E+00
 nd#     444  xforce=   0.0000E+00   yforce=   0.0000E+00  zforce=  -4.6471E+01   energy=   1.8389E-03   setid =     444 xmoment=   0.0000E+00 ymoment=   0.0000E+00 zmoment=   0.0000E+00
 nd#     591  xforce=   0.0000E+00   yforce=   0.0000E+00  zforce=  -4.0277E+01   energy=   2.2426E-03   setid =     591 xmoment=   0.0000E+00 ymoment=   0.0000E+00 zmoment=   0.0000E+00
 nd#     592  xforce=   0.0000E+00   yforce=   0.0000E+00  zforce=  -4.4381E+01   energy=   2.4849E-03   setid =     592 xmoment=   0.0000E+00 ymoment=   0.0000E+00 zmoment=   0.0000E+00
 nd#     595  xforce=   0.0000E+00   yforce=   0.0000E+00  zforce=  -7.3546E+01   energy=   3.2873E-03   setid =     595 xmoment=   0.0000E+00 ymoment=   0.0000E+00 zmoment=   0.0000E+00
 nd#     596  xforce=   0.0000E+00   yforce=   0.0000E+00  zforce=  -7.2175E+01   energy=   3.3768E-03   setid =     596 xmoment=   0.0000E+00 ymoment=   0.0000E+00 zmoment=   0.0000E+00
 nd#     599  xforce=   0.0000E+00   yforce=   0.0000E+00  zforce=  -6.5164E+01   energy=   3.2568E-03   setid =     599 xmoment=   0.0000E+00 ymoment=   0.0000E+00 zmoment=   0.0000E+00
 nd#     600  xforce=   0.0000E+00   yforce=   0.0000E+00  zforce=  -7.4235E+01   energy=   3.6410E-03   setid =     600 xmoment=   0.0000E+00 ymoment=   0.0000E+00 zmoment=   0.0000E+00
 nd#     603  xforce=   0.0000E+00   yforce=   0.0000E+00  zforce=  -4.3192E+01   energy=   1.9109E-03   setid =     603 xmoment=   0.0000E+00 ymoment=   0.0000E+00 zmoment=   0.0000E+00
 nd#     604  xforce=   0.0000E+00   yforce=   0.0000E+00  zforce=  -4.4496E+01   energy=   2.0239E-03   setid =     604 xmoment=   0.0000E+00 ymoment=   0.0000E+00 zmoment=   0.0000E+00
 nd#     638  xforce=   0.0000E+00   yforce=   0.0000E+00  zforce=  -5.1683E+01   energy=   2.8574E-03   setid =     638 xmoment=   0.0000E+00 ymoment=   0.0000E+00 zmoment=   0.0000E+00
 nd#     639  xforce=   0.0000E+00   yforce=   0.0000E+00  zforce=  -4.1763E+01   energy=   2.4599E-03   setid =     639 xmoment=   0.0000E+00 ymoment=   0.0000E+00 zmoment=   0.0000E+00
 nd#     641  xforce=   0.0000E+00   yforce=   0.0000E+00  zforce=  -6.8020E+01   energy=   3.4031E-03   setid =     641 xmoment=   0.0000E+00 ymoment=   0.0000E+00 zmoment=   0.0000E+00
 nd#     642  xforce=   0.0000E+00   yforce=   0.0000E+00  zforce=  -6.4638E+01   energy=   3.2932E-03   setid =     642 xmoment=   0.0000E+00 ymoment=   0.0000E+00 zmoment=   0.0000E+00
 nd#     644  xforce=   0.0000E+00   yforce=   0.0000E+00  zforce=  -7.8508E+01   energy=   3.8672E-03   setid =     644 xmoment=   0.0000E+00 ymoment=   0.0000E+00 zmoment=   0.0000E+00
 nd#     645  xforce=   0.0000E+00   yforce=   0.0000E+00  zforce=  -7.4529E+01   energy=   3.5744E-03   setid =     645 xmoment=   0.0000E+00 ymoment=   0.0000E+00 zmoment=   0.0000E+00
 nd#     647  xforce=   0.0000E+00   yforce=   0.0000E+00  zforce=  -3.2275E+01   energy=   1.5757E-03   setid =     647 xmoment=   0.0000E+00 ymoment=   0.0000E+00 zmoment=   0.0000E+00
 nd#     648  xforce=   0.0000E+00   yforce=   0.0000E+00  zforce=  -1.9858E+01   energy=   1.0996E-03   setid =     648 xmoment=   0.0000E+00 ymoment=   0.0000E+00 zmoment=   0.0000E+00
 nd#     674  xforce=   0.0000E+00   yforce=   0.0000E+00  zforce=  -3.6011E+01   energy=   1.9829E-03   setid =     674 xmoment=   0.0000E+00 ymoment=   0.0000E+00 zmoment=   0.0000E+00
 nd#     676  xforce=   0.0000E+00   yforce=   0.0000E+00  zforce=  -7.4391E+01   energy=   3.2351E-03   setid =     676 xmoment=   0.0000E+00 ymoment=   0.0000E+00 zmoment=   0.0000E+00
 nd#     678  xforce=   0.0000E+00   yforce=   0.0000E+00  zforce=  -5.6129E+01   energy=   2.9875E-03   setid =     678 xmoment=   0.0000E+00 ymoment=   0.0000E+00 zmoment=   0.0000E+00
 nd#     680  xforce=   0.0000E+00   yforce=   0.0000E+00  zforce=  -4.7432E+01   energy=   1.9826E-03   setid =     680 xmoment=   0.0000E+00 ymoment=   0.0000E+00 zmoment=   0.0000E+00
 nd#     821  xforce=   0.0000E+00   yforce=   0.0000E+00  zforce=  -4.8004E+01   energy=   2.6532E-03   setid =     821 xmoment=   0.0000E+00 ymoment=   0.0000E+00 zmoment=   0.0000E+00
 nd#     822  xforce=   0.0000E+00   yforce=   0.0000E+00  zforce=  -6.9390E+01   energy=   3.3613E-03   setid =     822 xmoment=   0.0000E+00 ymoment=   0.0000E+00 zmoment=   0.0000E+00
 nd#     823  xforce=   0.0000E+00   yforce=   0.0000E+00  zforce=  -7.7168E+01   energy=   3.7561E-03   setid =     823 xmoment=   0.0000E+00 ymoment=   0.0000E+00 zmoment=   0.0000E+00
 nd#     824  xforce=   0.0000E+00   yforce=   0.0000E+00  zforce=  -4.3587E+01   energy=   2.0131E-03   setid =     824 xmoment=   0.0000E+00 ymoment=   0.0000E+00 zmoment=   0.0000E+00
 nd#     850  xforce=   0.0000E+00   yforce=   0.0000E+00  zforce=   3.8580E+01   energy=  -1.4379E-03   setid =     850 xmoment=   0.0000E+00 ymoment=   0.0000E+00 zmoment=   0.0000E+00
 nd#     852  xforce=   0.0000E+00   yforce=   0.0000E+00  zforce=   4.8660E+01   energy=  -2.0218E-03   setid =     852 xmoment=   0.0000E+00 ymoment=   0.0000E+00 zmoment=   0.0000E+00
 nd#     854  xforce=   0.0000E+00   yforce=   0.0000E+00  zforce=   7.3897E+01   energy=  -2.8989E-03   setid =     854 xmoment=   0.0000E+00 ymoment=   0.0000E+00 zmoment=   0.0000E+00
 nd#     856  xforce=   0.0000E+00   yforce=   0.0000E+00  zforce=   5.9596E+01   energy=  -2.4522E-03   setid =     856 xmoment=   0.0000E+00 ymoment=   0.0000E+00 zmoment=   0.0000E+00
              xtotal=   0.0000E+00   ytotal=   0.0000E+00  ztotal=  -2.6740E+03   etotal=   1.3238E-01

 n o d a l   f o r c e/e n e r g y    o u t p u t  t=   9.17704E+00

 velocity boundary condition forces/rigid body moments 

 nd#     220  xforce=   0.0000E+00   yforce=   0.0000E+00  zforce=  -1.3836E+01   energy=   4.5739E-03   setid =     220 xmoment=   0.0000E+00 ymoment=   0.0000E+00 zmoment=   0.0000E+00
 nd#     221  xforce=   0.0000E+00   yforce=   0.0000E+00  zforce=   2.8678E+01   energy=   2.5723E-03   setid =     221 xmoment=   0.0000E+00 ymoment=   0.0000E+00 zmoment=   0.0000E+00
 nd#     222  xforce=   0.0000E+00   yforce=   0.0000E+00  zforce=  -9.8144E+01   energy=   5.9508E-03   setid =     222 xmoment=   0.0000E+00 ymoment=   0.0000E+00 zmoment=   0.0000E+00
 nd#     223  xforce=   0.0000E+00   yforce=   0.0000E+00  zforce=  -5.6795E+01   energy=   4.4456E-03   setid =     223 xmoment=   0.0000E+00 ymoment=   0.0000E+00 zmoment=   0.0000E+00
 nd#     248  xforce=   0.0000E+00   yforce=   0.0000E+00  zforce=  -1.1051E+02   energy=   5.2885E-03   setid =     248 xmoment=   0.0000E+00 ymoment=   0.0000E+00 zmoment=   0.0000E+00
 nd#     249  xforce=   0.0000E+00   yforce=   0.0000E+00  zforce=  -4.1979E+01   energy=   2.9740E-03   setid =     249 xmoment=   0.0000E+00 ymoment=   0.0000E+00 zmoment=   0.0000E+00
 nd#     286  xforce=   0.0000E+00   yforce=   0.0000E+00  zforce=  -1.1104E+02   energy=  -1.2471E-03   setid =     286 xmoment=   0.0000E+00 ymoment=   0.0000E+00 zmoment=   0.0000E+00
 nd#     287  xforce=   0.0000E+00   yforce=   0.0000E+00  zforce=  -5.5622E+01   energy=   4.4592E-03   setid =     287 xmoment=   0.0000E+00 ymoment=   0.0000E+00 zmoment=   0.0000E+00
 nd#     288  xforce=   0.0000E+00   yforce=   0.0000E+00  zforce=  -1.5989E+02   energy=   1.7781E-03   setid =     288 xmoment=   0.0000E+00 ymoment=   0.0000E+00 zmoment=   0.0000E+00
 nd#     301  xforce=   0.0000E+00   yforce=   0.0000E+00  zforce=  -1.2063E+02   energy=   9.3001E-03   setid =     301 xmoment=   0.0000E+00 ymoment=   0.0000E+00 zmoment=   0.0000E+00
 nd#     314  xforce=   0.0000E+00   yforce=   0.0000E+00  zforce=  -1.1034E+02   energy=   5.7704E-03   setid =     314 xmoment=   0.0000E+00 ymoment=   0.0000E+00 zmoment=   0.0000E+00
 nd#     363  xforce=   0.0000E+00   yforce=   0.0000E+00  zforce=  -1.0336E+02   energy=   3.3930E-03   setid =     363 xmoment=   0.0000E+00 ymoment=   0.0000E+00 zmoment=   0.0000E+00
 nd#     364  xforce=   0.0000E+00   yforce=   0.0000E+00  zforce=  -1.3236E+02   energy=   5.6069E-03   setid =     364 xmoment=   0.0000E+00 ymoment=   0.0000E+00 zmoment=   0.0000E+00
 nd#     365  xforce=   0.0000E+00   yforce=   0.0000E+00  zforce=  -2.7276E+01   energy=   7.5114E-03   setid =     365 xmoment=   0.0000E+00 ymoment=   0.0000E+00 zmoment=   0.0000E+00
 nd#     366  xforce=   0.0000E+00   yforce=   0.0000E+00  zforce=  -3.7794E+01   energy=   3.7285E-03   setid =     366 xmoment=   0.0000E+00 ymoment=   0.0000E+00 zmoment=   0.0000E+00
 nd#     379  xforce=   0.0000E+00   yforce=   0.0000E+00  zforce=  -1.4457E+02   energy=   4.8631E-03   setid =     379 xmoment=   0.0000E+00 ymoment=   0.0000E+00 zmoment=   0.0000E+00
 nd#     404  xforce=   0.0000E+00   yforce=   0.0000E+00  zforce=   7.0489E+00   energy=   8.7723E-03   setid =     404 xmoment=   0.0000E+00 ymoment=   0.0000E+00 zmoment=   0.0000E+00
 nd#     405  xforce=   0.0000E+00   yforce=   0.0000E+00  zforce=  -3.7814E+01   energy=   6.6631E-03   setid =     405 xmoment=   0.0000E+00 ymoment=   0.0000E+00 zmoment=   0.0000E+00
 nd#     418  xforce=   0.0000E+00   yforce=   0.0000E+00  zforce=  -1.3752E+01   energy=   7.0008E-03   setid =     418 xmoment=   0.0000E+00 ymoment=   0.0000E+00 zmoment=   0.0000E+00
 nd#     438  xforce=   0.0000E+00   yforce=   0.0000E+00  zforce=   6.6467E+00   energy=  -4.4385E-04   setid =     438 xmoment=   0.0000E+00 ymoment=   0.0000E+00 zmoment=   0.0000E+00
 nd#     439  xforce=   0.0000E+00   yforce=   0.0000E+00  zforce=  -2.6946E+01   energy=   2.0920E-03   setid =     439 xmoment=   0.0000E+00 ymoment=   0.0000E+00 zmoment=   0.0000E+00
 nd#     440  xforce=   0.0000E+00   yforce=   0.0000E+00  zforce=  -3.1432E+01   energy=   2.4078E-03   setid =     440 xmoment=   0.0000E+00 ymoment=   0.0000E+00 zmoment=   0.0000E+00
 nd#     441  xforce=   0.0000E+00   yforce=   0.0000E+00  zforce=  -3.2621E+01   energy=   2.5110E-03   setid =     441 xmoment=   0.0000E+00 ymoment=   0.0000E+00 zmoment=   0.0000E+00
 nd#     442  xforce=   0.0000E+00   yforce=   0.0000E+00  zforce=  -3.1443E+01   energy=   2.5868E-03   setid =     442 xmoment=   0.0000E+00 ymoment=   0.0000E+00 zmoment=   0.0000E+00
 nd#     443  xforce=   0.0000E+00   yforce=   0.0000E+00  zforce=  -2.9637E+01   energy=   2.6267E-03   setid =     443 xmoment=   0.0000E+00 ymoment=   0.0000E+00 zmoment=   0.0000E+00
 nd#     444  xforce=   0.0000E+00   yforce=   0.0000E+00  zforce=  -2.8985E+01   energy=   2.6498E-03   setid =     444 xmoment=   0.0000E+00 ymoment=   0.0000E+00 zmoment=   0.0000E+00
 nd#     591  xforce=   0.0000E+00   yforce=   0.0000E+00  zforce=  -6.0040E+01   energy=   3.3207E-03   setid =     591 xmoment=   0.0000E+00 ymoment=   0.0000E+00 zmoment=   0.0000E+00
 nd#     592  xforce=   0.0000E+00   yforce=   0.0000E+00  zforce=  -6.1347E+01   energy=   3.6211E-03   setid =     592 xmoment=   0.0000E+00 ymoment=   0.0000E+00 zmoment=   0.0000E+00
 nd#     595  xforce=   0.0000E+00   yforce=   0.0000E+00  zforce=  -6.8467E+01   energy=   4.8135E-03   setid =     595 xmoment=   0.0000E+00 ymoment=   0.0000E+00 zmoment=   0.0000E+00
 nd#     596  xforce=   0.0000E+00   yforce=   0.0000E+00  zforce=  -7.3181E+01   energy=   4.9389E-03   setid =     596 xmoment=   0.0000E+00 ymoment=   0.0000E+00 zmoment=   0.0000E+00
 nd#     599  xforce=   0.0000E+00   yforce=   0.0000E+00  zforce=  -7.5818E+01   energy=   4.7718E-03   setid =     599 xmoment=   0.0000E+00 ymoment=   0.0000E+00 zmoment=   0.0000E+00
 nd#     600  xforce=   0.0000E+00   yforce=   0.0000E+00  zforce=  -8.4209E+01   energy=   5.3437E-03   setid =     600 xmoment=   0.0000E+00 ymoment=   0.0000E+00 zmoment=   0.0000E+00
 nd#     603  xforce=   0.0000E+00   yforce=   0.0000E+00  zforce=  -3.8090E+01   energy=   2.7844E-03   setid =     603 xmoment=   0.0000E+00 ymoment=   0.0000E+00 zmoment=   0.0000E+00
 nd#     604  xforce=   0.0000E+00   yforce=   0.0000E+00  zforce=  -3.9496E+01   energy=   2.9266E-03   setid =     604 xmoment=   0.0000E+00 ymoment=   0.0000E+00 zmoment=   0.0000E+00
 nd#     638  xforce=   0.0000E+00   yforce=   0.0000E+00  zforce=  -6.4892E+01   energy=   4.1102E-03   setid =     638 xmoment=   0.0000E+00 ymoment=   0.0000E+00 zmoment=   0.0000E+00
 nd#     639  xforce=   0.0000E+00   yforce=   0.0000E+00  zforce=  -5.3890E+01   energy=   3.4879E-03   setid =     639 xmoment=   0.0000E+00 ymoment=   0.0000E+00 zmoment=   0.0000E+00
 nd#     641  xforce=   0.0000E+00   yforce=   0.0000E+00  zforce=  -7.5732E+01   energy=   4.9479E-03   setid =     641 xmoment=   0.0000E+00 ymoment=   0.0000E+00 zmoment=   0.0000E+00
 nd#     642  xforce=   0.0000E+00   yforce=   0.0000E+00  zforce=  -7.2138E+01   energy=   4.7631E-03   setid =     642 xmoment=   0.0000E+00 ymoment=   0.0000E+00 zmoment=   0.0000E+00
 nd#     644  xforce=   0.0000E+00   yforce=   0.0000E+00  zforce=  -8.9122E+01   energy=   5.6687E-03   setid =     644 xmoment=   0.0000E+00 ymoment=   0.0000E+00 zmoment=   0.0000E+00
[...]
 nd#     223  xforce=   0.0000E+00   yforce=   0.0000E+00  zforce=  -6.5013E+01   energy=   6.0509E-02   setid =     223 xmoment=   0.0000E+00 ymoment=   0.0000E+00 zmoment=   0.0000E+00
 nd#     248  xforce=   0.0000E+00   yforce=   0.0000E+00  zforce=  -7.2645E+01   energy=   6.3058E-02   setid =     248 xmoment=   0.0000E+00 ymoment=   0.0000E+00 zmoment=   0.0000E+00
 nd#     249  xforce=   0.0000E+00   yforce=   0.0000E+00  zforce=  -3.8587E+01   energy=   3.5670E-02   setid =     249 xmoment=   0.0000E+00 ymoment=   0.0000E+00 zmoment=   0.0000E+00
 nd#     286  xforce=   0.0000E+00   yforce=   0.0000E+00  zforce=   1.6044E+02   energy=  -1.5870E-01   setid =     286 xmoment=   0.0000E+00 ymoment=   0.0000E+00 zmoment=   0.0000E+00
 nd#     287  xforce=   0.0000E+00   yforce=   0.0000E+00  zforce=  -4.9811E+01   energy=   6.7819E-02   setid =     287 xmoment=   0.0000E+00 ymoment=   0.0000E+00 zmoment=   0.0000E+00
 nd#     288  xforce=   0.0000E+00   yforce=   0.0000E+00  zforce=  -6.3394E+00   energy=  -1.5260E-02   setid =     288 xmoment=   0.0000E+00 ymoment=   0.0000E+00 zmoment=   0.0000E+00
 nd#     301  xforce=   0.0000E+00   yforce=   0.0000E+00  zforce=  -1.4885E+02   energy=   1.5980E-01   setid =     301 xmoment=   0.0000E+00 ymoment=   0.0000E+00 zmoment=   0.0000E+00
 nd#     314  xforce=   0.0000E+00   yforce=   0.0000E+00  zforce=  -8.3685E+01   energy=   8.1696E-02   setid =     314 xmoment=   0.0000E+00 ymoment=   0.0000E+00 zmoment=   0.0000E+00
 nd#     363  xforce=   0.0000E+00   yforce=   0.0000E+00  zforce=  -4.2247E+01   energy=   2.6983E-02   setid =     363 xmoment=   0.0000E+00 ymoment=   0.0000E+00 zmoment=   0.0000E+00
 nd#     364  xforce=   0.0000E+00   yforce=   0.0000E+00  zforce=  -6.5264E+01   energy=   6.2058E-02   setid =     364 xmoment=   0.0000E+00 ymoment=   0.0000E+00 zmoment=   0.0000E+00
 nd#     365  xforce=   0.0000E+00   yforce=   0.0000E+00  zforce=  -1.2267E+02   energy=   1.1998E-01   setid =     365 xmoment=   0.0000E+00 ymoment=   0.0000E+00 zmoment=   0.0000E+00
 nd#     366  xforce=   0.0000E+00   yforce=   0.0000E+00  zforce=  -5.6254E+01   energy=   4.9792E-02   setid =     366 xmoment=   0.0000E+00 ymoment=   0.0000E+00 zmoment=   0.0000E+00
 nd#     379  xforce=   0.0000E+00   yforce=   0.0000E+00  zforce=  -8.2077E+01   energy=   6.1046E-02   setid =     379 xmoment=   0.0000E+00 ymoment=   0.0000E+00 zmoment=   0.0000E+00
 nd#     404  xforce=   0.0000E+00   yforce=   0.0000E+00  zforce=  -1.7029E+02   energy=   1.6365E-01   setid =     404 xmoment=   0.0000E+00 ymoment=   0.0000E+00 zmoment=   0.0000E+00
 nd#     405  xforce=   0.0000E+00   yforce=   0.0000E+00  zforce=  -1.1775E+02   energy=   1.1257E-01   setid =     405 xmoment=   0.0000E+00 ymoment=   0.0000E+00 zmoment=   0.0000E+00
 nd#     418  xforce=   0.0000E+00   yforce=   0.0000E+00  zforce=  -9.4578E+01   energy=   8.6578E-02   setid =     418 xmoment=   0.0000E+00 ymoment=   0.0000E+00 zmoment=   0.0000E+00
 nd#     438  xforce=   0.0000E+00   yforce=   0.0000E+00  zforce=   7.4867E+00   energy=  -7.3490E-03   setid =     438 xmoment=   0.0000E+00 ymoment=   0.0000E+00 zmoment=   0.0000E+00
 nd#     439  xforce=   0.0000E+00   yforce=   0.0000E+00  zforce=  -2.6462E+01   energy=   2.6053E-02   setid =     439 xmoment=   0.0000E+00 ymoment=   0.0000E+00 zmoment=   0.0000E+00
 nd#     440  xforce=   0.0000E+00   yforce=   0.0000E+00  zforce=  -3.3861E+01   energy=   3.2035E-02   setid =     440 xmoment=   0.0000E+00 ymoment=   0.0000E+00 zmoment=   0.0000E+00
 nd#     441  xforce=   0.0000E+00   yforce=   0.0000E+00  zforce=  -3.5448E+01   energy=   3.3815E-02   setid =     441 xmoment=   0.0000E+00 ymoment=   0.0000E+00 zmoment=   0.0000E+00
 nd#     442  xforce=   0.0000E+00   yforce=   0.0000E+00  zforce=  -3.6583E+01   energy=   3.5125E-02   setid =     442 xmoment=   0.0000E+00 ymoment=   0.0000E+00 zmoment=   0.0000E+00
 nd#     443  xforce=   0.0000E+00   yforce=   0.0000E+00  zforce=  -3.7219E+01   energy=   3.6098E-02   setid =     443 xmoment=   0.0000E+00 ymoment=   0.0000E+00 zmoment=   0.0000E+00
 nd#     444  xforce=   0.0000E+00   yforce=   0.0000E+00  zforce=  -3.8052E+01   energy=   3.6725E-02   setid =     444 xmoment=   0.0000E+00 ymoment=   0.0000E+00 zmoment=   0.0000E+00
 nd#     591  xforce=   0.0000E+00   yforce=   0.0000E+00  zforce=  -4.7247E+01   energy=   4.2550E-02   setid =     591 xmoment=   0.0000E+00 ymoment=   0.0000E+00 zmoment=   0.0000E+00
 nd#     592  xforce=   0.0000E+00   yforce=   0.0000E+00  zforce=  -4.8495E+01   energy=   4.3713E-02   setid =     592 xmoment=   0.0000E+00 ymoment=   0.0000E+00 zmoment=   0.0000E+00
 nd#     595  xforce=   0.0000E+00   yforce=   0.0000E+00  zforce=  -6.9359E+01   energy=   6.9148E-02   setid =     595 xmoment=   0.0000E+00 ymoment=   0.0000E+00 zmoment=   0.0000E+00
 nd#     596  xforce=   0.0000E+00   yforce=   0.0000E+00  zforce=  -6.8155E+01   energy=   6.6326E-02   setid =     596 xmoment=   0.0000E+00 ymoment=   0.0000E+00 zmoment=   0.0000E+00
 nd#     599  xforce=   0.0000E+00   yforce=   0.0000E+00  zforce=  -6.6707E+01   energy=   5.9858E-02   setid =     599 xmoment=   0.0000E+00 ymoment=   0.0000E+00 zmoment=   0.0000E+00
 nd#     600  xforce=   0.0000E+00   yforce=   0.0000E+00  zforce=  -7.2521E+01   energy=   6.5282E-02   setid =     600 xmoment=   0.0000E+00 ymoment=   0.0000E+00 zmoment=   0.0000E+00
 nd#     603  xforce=   0.0000E+00   yforce=   0.0000E+00  zforce=  -4.3423E+01   energy=   3.9088E-02   setid =     603 xmoment=   0.0000E+00 ymoment=   0.0000E+00 zmoment=   0.0000E+00
 nd#     604  xforce=   0.0000E+00   yforce=   0.0000E+00  zforce=  -4.2390E+01   energy=   3.7805E-02   setid =     604 xmoment=   0.0000E+00 ymoment=   0.0000E+00 zmoment=   0.0000E+00
 nd#     638  xforce=   0.0000E+00   yforce=   0.0000E+00  zforce=  -5.4073E+01   energy=   4.9810E-02   setid =     638 xmoment=   0.0000E+00 ymoment=   0.0000E+00 zmoment=   0.0000E+00
 nd#     639  xforce=   0.0000E+00   yforce=   0.0000E+00  zforce=  -3.8809E+01   energy=   3.8486E-02   setid =     639 xmoment=   0.0000E+00 ymoment=   0.0000E+00 zmoment=   0.0000E+00
 nd#     641  xforce=   0.0000E+00   yforce=   0.0000E+00  zforce=  -6.9062E+01   energy=   6.5026E-02   setid =     641 xmoment=   0.0000E+00 ymoment=   0.0000E+00 zmoment=   0.0000E+00
 nd#     642  xforce=   0.0000E+00   yforce=   0.0000E+00  zforce=  -5.6848E+01   energy=   5.8568E-02   setid =     642 xmoment=   0.0000E+00 ymoment=   0.0000E+00 zmoment=   0.0000E+00
 nd#     644  xforce=   0.0000E+00   yforce=   0.0000E+00  zforce=  -8.6606E+01   energy=   7.6033E-02   setid =     644 xmoment=   0.0000E+00 ymoment=   0.0000E+00 zmoment=   0.0000E+00
 nd#     645  xforce=   0.0000E+00   yforce=   0.0000E+00  zforce=  -7.7741E+01   energy=   7.0314E-02   setid =     645 xmoment=   0.0000E+00 ymoment=   0.0000E+00 zmoment=   0.0000E+00
 nd#     647  xforce=   0.0000E+00   yforce=   0.0000E+00  zforce=  -3.2280E+01   energy=   2.7277E-02   setid =     647 xmoment=   0.0000E+00 ymoment=   0.0000E+00 zmoment=   0.0000E+00
 nd#     648  xforce=   0.0000E+00   yforce=   0.0000E+00  zforce=  -1.4398E+01   energy=   1.0241E-02   setid =     648 xmoment=   0.0000E+00 ymoment=   0.0000E+00 zmoment=   0.0000E+00
 nd#     674  xforce=   0.0000E+00   yforce=   0.0000E+00  zforce=  -4.7326E+01   energy=   3.9999E-02   setid =     674 xmoment=   0.0000E+00 ymoment=   0.0000E+00 zmoment=   0.0000E+00
 nd#     676  xforce=   0.0000E+00   yforce=   0.0000E+00  zforce=  -7.3861E+01   energy=   7.2555E-02   setid =     676 xmoment=   0.0000E+00 ymoment=   0.0000E+00 zmoment=   0.0000E+00
 nd#     678  xforce=   0.0000E+00   yforce=   0.0000E+00  zforce=  -6.1831E+01   energy=   5.5549E-02   setid =     678 xmoment=   0.0000E+00 ymoment=   0.0000E+00 zmoment=   0.0000E+00
 nd#     680  xforce=   0.0000E+00   yforce=   0.0000E+00  zforce=  -4.4746E+01   energy=   4.1227E-02   setid =     680 xmoment=   0.0000E+00 ymoment=   0.0000E+00 zmoment=   0.0000E+00
 nd#     821  xforce=   0.0000E+00   yforce=   0.0000E+00  zforce=  -5.1184E+01   energy=   4.7094E-02   setid =     821 xmoment=   0.0000E+00 ymoment=   0.0000E+00 zmoment=   0.0000E+00
 nd#     822  xforce=   0.0000E+00   yforce=   0.0000E+00  zforce=  -6.8134E+01   energy=   6.5741E-02   setid =     822 xmoment=   0.0000E+00 ymoment=   0.0000E+00 zmoment=   0.0000E+00
 nd#     823  xforce=   0.0000E+00   yforce=   0.0000E+00  zforce=  -7.9854E+01   energy=   7.1354E-02   setid =     823 xmoment=   0.0000E+00 ymoment=   0.0000E+00 zmoment=   0.0000E+00
 nd#     824  xforce=   0.0000E+00   yforce=   0.0000E+00  zforce=  -4.0346E+01   energy=   3.5455E-02   setid =     824 xmoment=   0.0000E+00 ymoment=   0.0000E+00 zmoment=   0.0000E+00
 nd#     850  xforce=   0.0000E+00   yforce=   0.0000E+00  zforce=   3.9793E+01   energy=  -3.5583E-02   setid =     850 xmoment=   0.0000E+00 ymoment=   0.0000E+00 zmoment=   0.0000E+00
 nd#     852  xforce=   0.0000E+00   yforce=   0.0000E+00  zforce=   5.0513E+01   energy=  -4.4266E-02   setid =     852 xmoment=   0.0000E+00 ymoment=   0.0000E+00 zmoment=   0.0000E+00
 nd#     854  xforce=   0.0000E+00   yforce=   0.0000E+00  zforce=   9.0421E+01   energy=  -6.8096E-02   setid =     854 xmoment=   0.0000E+00 ymoment=   0.0000E+00 zmoment=   0.0000E+00
 nd#     856  xforce=   0.0000E+00   yforce=   0.0000E+00  zforce=   5.8938E+01   energy=  -5.2652E-02   setid =     856 xmoment=   0.0000E+00 ymoment=   0.0000E+00 zmoment=   0.0000E+00
              xtotal=   0.0000E+00   ytotal=   0.0000E+00  ztotal=  -2.5467E+03   etotal=   2.4052E+00

 n o d a l   f o r c e/e n e r g y    o u t p u t  t=   1.00000E+02

 velocity boundary condition forces/rigid body moments 

 nd#     220  xforce=   0.0000E+00   yforce=   0.0000E+00  zforce=  -7.2892E+01   energy=   7.6053E-02   setid =     220 xmoment=   0.0000E+00 ymoment=   0.0000E+00 zmoment=   0.0000E+00
 nd#     221  xforce=   0.0000E+00   yforce=   0.0000E+00  zforce=  -1.7514E+01   energy=   4.2080E-02   setid =     221 xmoment=   0.0000E+00 ymoment=   0.0000E+00 zmoment=   0.0000E+00
 nd#     222  xforce=   0.0000E+00   yforce=   0.0000E+00  zforce=  -5.9013E+01   energy=   7.0187E-02   setid =     222 xmoment=   0.0000E+00 ymoment=   0.0000E+00 zmoment=   0.0000E+00
 nd#     223  xforce=   0.0000E+00   yforce=   0.0000E+00  zforce=  -5.8201E+01   energy=   6.0788E-02   setid =     223 xmoment=   0.0000E+00 ymoment=   0.0000E+00 zmoment=   0.0000E+00
 nd#     248  xforce=   0.0000E+00   yforce=   0.0000E+00  zforce=  -5.3421E+01   energy=   6.3344E-02   setid =     248 xmoment=   0.0000E+00 ymoment=   0.0000E+00 zmoment=   0.0000E+00
 nd#     249  xforce=   0.0000E+00   yforce=   0.0000E+00  zforce=  -3.2410E+01   energy=   3.5831E-02   setid =     249 xmoment=   0.0000E+00 ymoment=   0.0000E+00 zmoment=   0.0000E+00
 nd#     286  xforce=   0.0000E+00   yforce=   0.0000E+00  zforce=   2.0190E+02   energy=  -1.5952E-01   setid =     286 xmoment=   0.0000E+00 ymoment=   0.0000E+00 zmoment=   0.0000E+00
 nd#     287  xforce=   0.0000E+00   yforce=   0.0000E+00  zforce=  -5.3662E+01   energy=   6.8053E-02   setid =     287 xmoment=   0.0000E+00 ymoment=   0.0000E+00 zmoment=   0.0000E+00
 nd#     288  xforce=   0.0000E+00   yforce=   0.0000E+00  zforce=   2.9814E+01   energy=  -1.5314E-02   setid =     288 xmoment=   0.0000E+00 ymoment=   0.0000E+00 zmoment=   0.0000E+00
 nd#     301  xforce=   0.0000E+00   yforce=   0.0000E+00  zforce=  -1.5150E+02   energy=   1.6048E-01   setid =     301 xmoment=   0.0000E+00 ymoment=   0.0000E+00 zmoment=   0.0000E+00
 nd#     314  xforce=   0.0000E+00   yforce=   0.0000E+00  zforce=  -7.3163E+01   energy=   8.2051E-02   setid =     314 xmoment=   0.0000E+00 ymoment=   0.0000E+00 zmoment=   0.0000E+00
 nd#     363  xforce=   0.0000E+00   yforce=   0.0000E+00  zforce=  -1.7114E+01   energy=   2.7118E-02   setid =     363 xmoment=   0.0000E+00 ymoment=   0.0000E+00 zmoment=   0.0000E+00
 nd#     364  xforce=   0.0000E+00   yforce=   0.0000E+00  zforce=  -4.8710E+01   energy=   6.2316E-02   setid =     364 xmoment=   0.0000E+00 ymoment=   0.0000E+00 zmoment=   0.0000E+00
 nd#     365  xforce=   0.0000E+00   yforce=   0.0000E+00  zforce=  -1.2068E+02   energy=   1.2053E-01   setid =     365 xmoment=   0.0000E+00 ymoment=   0.0000E+00 zmoment=   0.0000E+00
 nd#     366  xforce=   0.0000E+00   yforce=   0.0000E+00  zforce=  -4.5332E+01   energy=   5.0022E-02   setid =     366 xmoment=   0.0000E+00 ymoment=   0.0000E+00 zmoment=   0.0000E+00
 nd#     379  xforce=   0.0000E+00   yforce=   0.0000E+00  zforce=  -6.6640E+01   energy=   6.1383E-02   setid =     379 xmoment=   0.0000E+00 ymoment=   0.0000E+00 zmoment=   0.0000E+00
 nd#     404  xforce=   0.0000E+00   yforce=   0.0000E+00  zforce=  -1.8070E+02   energy=   1.6444E-01   setid =     404 xmoment=   0.0000E+00 ymoment=   0.0000E+00 zmoment=   0.0000E+00
 nd#     405  xforce=   0.0000E+00   yforce=   0.0000E+00  zforce=  -1.1589E+02   energy=   1.1309E-01   setid =     405 xmoment=   0.0000E+00 ymoment=   0.0000E+00 zmoment=   0.0000E+00
 nd#     418  xforce=   0.0000E+00   yforce=   0.0000E+00  zforce=  -9.5113E+01   energy=   8.7008E-02   setid =     418 xmoment=   0.0000E+00 ymoment=   0.0000E+00 zmoment=   0.0000E+00
 nd#     438  xforce=   0.0000E+00   yforce=   0.0000E+00  zforce=   1.6230E+01   energy=  -7.4027E-03   setid =     438 xmoment=   0.0000E+00 ymoment=   0.0000E+00 zmoment=   0.0000E+00
 nd#     439  xforce=   0.0000E+00   yforce=   0.0000E+00  zforce=  -1.3192E+01   energy=   2.6143E-02   setid =     439 xmoment=   0.0000E+00 ymoment=   0.0000E+00 zmoment=   0.0000E+00
 nd#     440  xforce=   0.0000E+00   yforce=   0.0000E+00  zforce=  -2.1806E+01   energy=   3.2161E-02   setid =     440 xmoment=   0.0000E+00 ymoment=   0.0000E+00 zmoment=   0.0000E+00
 nd#     441  xforce=   0.0000E+00   yforce=   0.0000E+00  zforce=  -2.5314E+01   energy=   3.3952E-02   setid =     441 xmoment=   0.0000E+00 ymoment=   0.0000E+00 zmoment=   0.0000E+00
 nd#     442  xforce=   0.0000E+00   yforce=   0.0000E+00  zforce=  -2.8008E+01   energy=   3.5272E-02   setid =     442 xmoment=   0.0000E+00 ymoment=   0.0000E+00 zmoment=   0.0000E+00
 nd#     443  xforce=   0.0000E+00   yforce=   0.0000E+00  zforce=  -3.0668E+01   energy=   3.6252E-02   setid =     443 xmoment=   0.0000E+00 ymoment=   0.0000E+00 zmoment=   0.0000E+00
 nd#     444  xforce=   0.0000E+00   yforce=   0.0000E+00  zforce=  -3.2812E+01   energy=   3.6885E-02   setid =     444 xmoment=   0.0000E+00 ymoment=   0.0000E+00 zmoment=   0.0000E+00
 nd#     591  xforce=   0.0000E+00   yforce=   0.0000E+00  zforce=  -3.1635E+01   energy=   4.2729E-02   setid =     591 xmoment=   0.0000E+00 ymoment=   0.0000E+00 zmoment=   0.0000E+00
 nd#     592  xforce=   0.0000E+00   yforce=   0.0000E+00  zforce=  -2.9560E+01   energy=   4.3890E-02   setid =     592 xmoment=   0.0000E+00 ymoment=   0.0000E+00 zmoment=   0.0000E+00
 nd#     595  xforce=   0.0000E+00   yforce=   0.0000E+00  zforce=  -5.7285E+01   energy=   6.9436E-02   setid =     595 xmoment=   0.0000E+00 ymoment=   0.0000E+00 zmoment=   0.0000E+00
 nd#     596  xforce=   0.0000E+00   yforce=   0.0000E+00  zforce=  -5.2445E+01   energy=   6.6600E-02   setid =     596 xmoment=   0.0000E+00 ymoment=   0.0000E+00 zmoment=   0.0000E+00
 nd#     599  xforce=   0.0000E+00   yforce=   0.0000E+00  zforce=  -5.0122E+01   energy=   6.0122E-02   setid =     599 xmoment=   0.0000E+00 ymoment=   0.0000E+00 zmoment=   0.0000E+00
 nd#     600  xforce=   0.0000E+00   yforce=   0.0000E+00  zforce=  -5.3381E+01   energy=   6.5567E-02   setid =     600 xmoment=   0.0000E+00 ymoment=   0.0000E+00 zmoment=   0.0000E+00
 nd#     603  xforce=   0.0000E+00   yforce=   0.0000E+00  zforce=  -3.5694E+01   energy=   3.9267E-02   setid =     603 xmoment=   0.0000E+00 ymoment=   0.0000E+00 zmoment=   0.0000E+00
 nd#     604  xforce=   0.0000E+00   yforce=   0.0000E+00  zforce=  -3.3222E+01   energy=   3.7977E-02   setid =     604 xmoment=   0.0000E+00 ymoment=   0.0000E+00 zmoment=   0.0000E+00
 nd#     638  xforce=   0.0000E+00   yforce=   0.0000E+00  zforce=  -2.9424E+01   energy=   5.0000E-02   setid =     638 xmoment=   0.0000E+00 ymoment=   0.0000E+00 zmoment=   0.0000E+00
 nd#     639  xforce=   0.0000E+00   yforce=   0.0000E+00  zforce=  -1.2962E+01   energy=   3.8604E-02   setid =     639 xmoment=   0.0000E+00 ymoment=   0.0000E+00 zmoment=   0.0000E+00
 nd#     641  xforce=   0.0000E+00   yforce=   0.0000E+00  zforce=  -4.5541E+01   energy=   6.5285E-02   setid =     641 xmoment=   0.0000E+00 ymoment=   0.0000E+00 zmoment=   0.0000E+00
 nd#     642  xforce=   0.0000E+00   yforce=   0.0000E+00  zforce=  -3.2085E+01   energy=   5.8770E-02   setid =     642 xmoment=   0.0000E+00 ymoment=   0.0000E+00 zmoment=   0.0000E+00
 nd#     644  xforce=   0.0000E+00   yforce=   0.0000E+00  zforce=  -6.0049E+01   energy=   7.6366E-02   setid =     644 xmoment=   0.0000E+00 ymoment=   0.0000E+00 zmoment=   0.0000E+00
 nd#     645  xforce=   0.0000E+00   yforce=   0.0000E+00  zforce=  -5.0043E+01   energy=   7.0604E-02   setid =     645 xmoment=   0.0000E+00 ymoment=   0.0000E+00 zmoment=   0.0000E+00
 nd#     647  xforce=   0.0000E+00   yforce=   0.0000E+00  zforce=  -1.8955E+01   energy=   2.7393E-02   setid =     647 xmoment=   0.0000E+00 ymoment=   0.0000E+00 zmoment=   0.0000E+00
 nd#     648  xforce=   0.0000E+00   yforce=   0.0000E+00  zforce=   1.5284E+00   energy=   1.0270E-02   setid =     648 xmoment=   0.0000E+00 ymoment=   0.0000E+00 zmoment=   0.0000E+00
 nd#     674  xforce=   0.0000E+00   yforce=   0.0000E+00  zforce=  -3.3382E+01   energy=   4.0182E-02   setid =     674 xmoment=   0.0000E+00 ymoment=   0.0000E+00 zmoment=   0.0000E+00
 nd#     676  xforce=   0.0000E+00   yforce=   0.0000E+00  zforce=  -6.4559E+01   energy=   7.2869E-02   setid =     676 xmoment=   0.0000E+00 ymoment=   0.0000E+00 zmoment=   0.0000E+00
 nd#     678  xforce=   0.0000E+00   yforce=   0.0000E+00  zforce=  -4.8543E+01   energy=   5.5799E-02   setid =     678 xmoment=   0.0000E+00 ymoment=   0.0000E+00 zmoment=   0.0000E+00
 nd#     680  xforce=   0.0000E+00   yforce=   0.0000E+00  zforce=  -3.9152E+01   energy=   4.1417E-02   setid =     680 xmoment=   0.0000E+00 ymoment=   0.0000E+00 zmoment=   0.0000E+00
 nd#     821  xforce=   0.0000E+00   yforce=   0.0000E+00  zforce=  -2.9452E+01   energy=   4.7277E-02   setid =     821 xmoment=   0.0000E+00 ymoment=   0.0000E+00 zmoment=   0.0000E+00
 nd#     822  xforce=   0.0000E+00   yforce=   0.0000E+00  zforce=  -4.8655E+01   energy=   6.6006E-02   setid =     822 xmoment=   0.0000E+00 ymoment=   0.0000E+00 zmoment=   0.0000E+00
 nd#     823  xforce=   0.0000E+00   yforce=   0.0000E+00  zforce=  -5.7616E+01   energy=   7.1666E-02   setid =     823 xmoment=   0.0000E+00 ymoment=   0.0000E+00 zmoment=   0.0000E+00
 nd#     824  xforce=   0.0000E+00   yforce=   0.0000E+00  zforce=  -2.9401E+01   energy=   3.5613E-02   setid =     824 xmoment=   0.0000E+00 ymoment=   0.0000E+00 zmoment=   0.0000E+00
 nd#     850  xforce=   0.0000E+00   yforce=   0.0000E+00  zforce=   5.6152E+01   energy=  -3.5800E-02   setid =     850 xmoment=   0.0000E+00 ymoment=   0.0000E+00 zmoment=   0.0000E+00
 nd#     852  xforce=   0.0000E+00   yforce=   0.0000E+00  zforce=   6.6668E+01   energy=  -4.4532E-02   setid =     852 xmoment=   0.0000E+00 ymoment=   0.0000E+00 zmoment=   0.0000E+00
 nd#     854  xforce=   0.0000E+00   yforce=   0.0000E+00  zforce=   1.0163E+02   energy=  -6.8531E-02   setid =     854 xmoment=   0.0000E+00 ymoment=   0.0000E+00 zmoment=   0.0000E+00
 nd#     856  xforce=   0.0000E+00   yforce=   0.0000E+00  zforce=   6.5411E+01   energy=  -5.2934E-02   setid =     856 xmoment=   0.0000E+00 ymoment=   0.0000E+00 zmoment=   0.0000E+00
              xtotal=   0.0000E+00   ytotal=   0.0000E+00  ztotal=  -1.8176E+03   etotal=   2.4151E+00
