 LS-DYNA keyword deck by LS-PrePost                                      
                    ls-dyna smp d R14 R14.1.1s_1_ef50e1 date 06/16/2024

{BEGIN LEGEND}
 Entity #        Title
        1                                                                                     
        2                                                                                     
        3                                                                                     
        4                                                                                     
        5                                                                                     
        6                                                                                     
        7                                                                                     
        8                                                                                     
        9                                                                                     
       10                                                                                     
       11                                                                                     
       12                                                                                     
       13                                                                                     
       14                                                                                     
       15                                                                                     
       16                                                                                     
       17                                                                                     
       18                                                                                     
       19                                                                                     
      220                                                                                     
      221                                                                                     
      222                                                                                     
      223                                                                                     
      248                                                                                     
      249                                                                                     
      286                                                                                     
      287                                                                                     
      288                                                                                     
      301                                                                                     
      314                                                                                     
      363                                                                                     
      364                                                                                     
      365                                                                                     
      366                                                                                     
      379                                                                                     
      404                                                                                     
      405                                                                                     
      418                                                                                     
      438                                                                                     
      439                                                                                     
      440                                                                                     
      441                                                                                     
      442                                                                                     
      443                                                                                     
      444                                                                                     
      591                                                                                     
      592                                                                                     
      595                                                                                     
      596                                                                                     
      599                                                                                     
      600                                                                                     
      603                                                                                     
      604                                                                                     
      638                                                                                     
      639                                                                                     
      641                                                                                     
      642                                                                                     
      644                                                                                     
      645                                                                                     
      647                                                                                     
      648                                                                                     
      674                                                                                     
      676                                                                                     
      678                                                                                     
      680                                                                                     
      821                                                                                     
      822                                                                                     
      823                                                                                     
      824                                                                                     
      850                                                                                     
      852                                                                                     
      854                                                                                     
      856                                                                                     
{END LEGEND}




 n o d a l   p r i n t   o u t   f o r   t i m e  s t e p       1                              ( at time 0.0000000E+00 )

 nodal point  x-disp     y-disp      z-disp      x-vel       y-vel       z-vel      x-accl      y-accl      z-accl      x-coor      y-coor      z-coor
        1  0.00000E+00 0.00000E+00 0.00000E+00 0.00000E+00 0.00000E+00 0.00000E+00 0.00000E+00 0.00000E+00 0.00000E+00 3.17500E-03 0.00000E+00-1.78000E-18
        2  0.00000E+00 0.00000E+00 0.00000E+00 0.00000E+00 0.00000E+00 0.00000E+00 0.00000E+00 0.00000E+00 0.00000E+00 2.38130E-03 0.00000E+00 0.00000E+00
        3  0.00000E+00 0.00000E+00 0.00000E+00 0.00000E+00 0.00000E+00 0.00000E+00 0.00000E+00 0.00000E+00 0.00000E+00 1.58750E-03 0.00000E+00 0.00000E+00
        4  0.00000E+00 0.00000E+00 0.00000E+00 0.00000E+00 0.00000E+00 0.00000E+00 0.00000E+00 0.00000E+00 0.00000E+00 7.93750E-04 0.00000E+00 0.00000E+00
        5  0.00000E+00 0.00000E+00 0.00000E+00 0.00000E+00 0.00000E+00 0.00000E+00 0.00000E+00 0.00000E+00 0.00000E+00 0.00000E+00 0.00000E+00 0.00000E+00
        6  0.00000E+00 0.00000E+00 0.00000E+00 0.00000E+00 0.00000E+00 0.00000E+00 0.00000E+00 0.00000E+00 0.00000E+00 4.86000E-20 7.93750E-04 0.00000E+00
        7  0.00000E+00 0.00000E+00 0.00000E+00 0.00000E+00 0.00000E+00 0.00000E+00 0.00000E+00 0.00000E+00 0.00000E+00 9.72100E-20 1.58750E-03 0.00000E+00
        8  0.00000E+00 0.00000E+00 0.00000E+00 0.00000E+00 0.00000E+00 0.00000E+00 0.00000E+00 0.00000E+00 0.00000E+00 1.45800E-19 2.38130E-03 0.00000E+00
        9  0.00000E+00 0.00000E+00 0.00000E+00 0.00000E+00 0.00000E+00 0.00000E+00 0.00000E+00 0.00000E+00 0.00000E+00 1.94400E-19 3.17500E-03 0.00000E+00
       10  0.00000E+00 0.00000E+00 0.00000E+00 0.00000E+00 0.00000E+00 0.00000E+00 0.00000E+00 0.00000E+00 0.00000E+00 1.21500E-03 2.93330E-03 0.00000E+00
       11  0.00000E+00 0.00000E+00 0.00000E+00 0.00000E+00 0.00000E+00 0.00000E+00 0.00000E+00 0.00000E+00 0.00000E+00 2.24510E-03 2.24510E-03 0.00000E+00
       12  0.00000E+00 0.00000E+00 0.00000E+00 0.00000E+00 0.00000E+00 0.00000E+00 0.00000E+00 0.00000E+00 0.00000E+00 2.93330E-03 1.21500E-03 0.00000E+00
       13  0.00000E+00 0.00000E+00 0.00000E+00 0.00000E+00 0.00000E+00 0.00000E+00 0.00000E+00 0.00000E+00 0.00000E+00 1.30830E-03 1.35190E-03 0.00000E+00
       14  0.00000E+00 0.00000E+00 0.00000E+00 0.00000E+00 0.00000E+00 0.00000E+00 0.00000E+00 0.00000E+00 0.00000E+00 1.48830E-03 7.06977E-04 0.00000E+00
       15  0.00000E+00 0.00000E+00 0.00000E+00 0.00000E+00 0.00000E+00 0.00000E+00 0.00000E+00 0.00000E+00 0.00000E+00 6.69510E-04 1.50700E-03 0.00000E+00
       16  0.00000E+00 0.00000E+00 0.00000E+00 0.00000E+00 0.00000E+00 0.00000E+00 0.00000E+00 0.00000E+00 0.00000E+00 7.53638E-04 7.82337E-04 0.00000E+00
       17  0.00000E+00 0.00000E+00 0.00000E+00 0.00000E+00 0.00000E+00 0.00000E+00 0.00000E+00 0.00000E+00 0.00000E+00 1.73630E-03 1.76750E-03 0.00000E+00
       18  0.00000E+00 0.00000E+00 0.00000E+00 0.00000E+00 0.00000E+00 0.00000E+00 0.00000E+00 0.00000E+00 0.00000E+00 9.20131E-04 2.19110E-03 0.00000E+00
       19  0.00000E+00 0.00000E+00 0.00000E+00 0.00000E+00 0.00000E+00 0.00000E+00 0.00000E+00 0.00000E+00 0.00000E+00 2.16330E-03 9.50859E-04 0.00000E+00
      220  0.00000E+00 0.00000E+00 0.00000E+00 0.00000E+00 0.00000E+00 0.00000E+00 0.00000E+00 0.00000E+00 0.00000E+00 2.13900E-19 3.49250E-03 2.54000E-02
      221  0.00000E+00 0.00000E+00 0.00000E+00 0.00000E+00 0.00000E+00 0.00000E+00 0.00000E+00 0.00000E+00 0.00000E+00 1.47250E-03 3.31440E-03 2.54000E-02
      222  0.00000E+00 0.00000E+00 0.00000E+00 0.00000E+00 0.00000E+00 0.00000E+00 0.00000E+00 0.00000E+00 0.00000E+00 2.02380E-03 4.81920E-03 2.54000E-02
      223  0.00000E+00 0.00000E+00 0.00000E+00 0.00000E+00 0.00000E+00 0.00000E+00 0.00000E+00 0.00000E+00 0.00000E+00 3.20800E-19 5.23880E-03 2.54000E-02
      248  0.00000E+00 0.00000E+00 0.00000E+00 0.00000E+00 0.00000E+00 0.00000E+00 0.00000E+00 0.00000E+00 0.00000E+00 2.67340E-03 6.45320E-03 2.54000E-02
      249  0.00000E+00 0.00000E+00 0.00000E+00 0.00000E+00 0.00000E+00 0.00000E+00 0.00000E+00 0.00000E+00 0.00000E+00 4.27700E-19 6.98500E-03 2.54000E-02
      286  0.00000E+00 0.00000E+00 0.00000E+00 0.00000E+00 0.00000E+00 0.00000E+00 0.00000E+00 0.00000E+00 0.00000E+00 3.27330E-03 1.55480E-03 2.54000E-02
      287  0.00000E+00 0.00000E+00 0.00000E+00 0.00000E+00 0.00000E+00 0.00000E+00 0.00000E+00 0.00000E+00 0.00000E+00 2.87770E-03 2.97340E-03 2.54000E-02
      288  0.00000E+00 0.00000E+00 0.00000E+00 0.00000E+00 0.00000E+00 0.00000E+00 0.00000E+00 0.00000E+00 0.00000E+00 1.65770E-03 1.72080E-03 2.54000E-02
      301  0.00000E+00 0.00000E+00 0.00000E+00 0.00000E+00 0.00000E+00 0.00000E+00 0.00000E+00 0.00000E+00 0.00000E+00 3.81930E-03 3.88770E-03 2.54000E-02
      314  0.00000E+00 0.00000E+00 0.00000E+00 0.00000E+00 0.00000E+00 0.00000E+00 0.00000E+00 0.00000E+00 0.00000E+00 4.93910E-03 4.93910E-03 2.54000E-02
      363  0.00000E+00 0.00000E+00 0.00000E+00 0.00000E+00 0.00000E+00 0.00000E+00 0.00000E+00 0.00000E+00 0.00000E+00 6.45340E-03 2.67290E-03 2.54000E-02
      364  0.00000E+00 0.00000E+00 0.00000E+00 0.00000E+00 0.00000E+00 0.00000E+00 0.00000E+00 0.00000E+00 0.00000E+00 4.75810E-03 2.09120E-03 2.54000E-02
      365  0.00000E+00 0.00000E+00 0.00000E+00 0.00000E+00 0.00000E+00 0.00000E+00 0.00000E+00 0.00000E+00 0.00000E+00 5.23880E-03 0.00000E+00 2.54000E-02
      366  0.00000E+00 0.00000E+00 0.00000E+00 0.00000E+00 0.00000E+00 0.00000E+00 0.00000E+00 0.00000E+00 0.00000E+00 6.98500E-03 0.00000E+00 2.54000E-02
      379  0.00000E+00 0.00000E+00 0.00000E+00 0.00000E+00 0.00000E+00 0.00000E+00 0.00000E+00 0.00000E+00 0.00000E+00 1.06900E-19 1.74630E-03 2.54000E-02
      404  0.00000E+00 0.00000E+00 0.00000E+00 0.00000E+00 0.00000E+00 0.00000E+00 0.00000E+00 0.00000E+00 0.00000E+00 1.74630E-03 0.00000E+00 2.54000E-02
      405  0.00000E+00 0.00000E+00 0.00000E+00 0.00000E+00 0.00000E+00 0.00000E+00 0.00000E+00 0.00000E+00 0.00000E+00 0.00000E+00 0.00000E+00 2.54000E-02
      418  0.00000E+00 0.00000E+00 0.00000E+00 0.00000E+00 0.00000E+00 0.00000E+00 0.00000E+00 0.00000E+00 0.00000E+00 3.49250E-03 0.00000E+00 2.54000E-02
      438  0.00000E+00 0.00000E+00 0.00000E+00 0.00000E+00 0.00000E+00 0.00000E+00 0.00000E+00 0.00000E+00 0.00000E+00 1.27000E-02 0.00000E+00 2.54000E-02
      439  0.00000E+00 0.00000E+00 0.00000E+00 0.00000E+00 0.00000E+00 0.00000E+00 0.00000E+00 0.00000E+00 0.00000E+00 1.18836E-02 0.00000E+00 2.54000E-02
      440  0.00000E+00 0.00000E+00 0.00000E+00 0.00000E+00 0.00000E+00 0.00000E+00 0.00000E+00 0.00000E+00 0.00000E+00 1.10671E-02 0.00000E+00 2.54000E-02
      441  0.00000E+00 0.00000E+00 0.00000E+00 0.00000E+00 0.00000E+00 0.00000E+00 0.00000E+00 0.00000E+00 0.00000E+00 1.02507E-02 0.00000E+00 2.54000E-02
      442  0.00000E+00 0.00000E+00 0.00000E+00 0.00000E+00 0.00000E+00 0.00000E+00 0.00000E+00 0.00000E+00 0.00000E+00 9.43430E-03 0.00000E+00 2.54000E-02
      443  0.00000E+00 0.00000E+00 0.00000E+00 0.00000E+00 0.00000E+00 0.00000E+00 0.00000E+00 0.00000E+00 0.00000E+00 8.61790E-03 0.00000E+00 2.54000E-02
      444  0.00000E+00 0.00000E+00 0.00000E+00 0.00000E+00 0.00000E+00 0.00000E+00 0.00000E+00 0.00000E+00 0.00000E+00 7.80140E-03 0.00000E+00 2.54000E-02
      591  0.00000E+00 0.00000E+00 0.00000E+00 0.00000E+00 0.00000E+00 0.00000E+00 0.00000E+00 0.00000E+00 0.00000E+00 7.97270E-03 3.27150E-03 2.54000E-02
      592  0.00000E+00 0.00000E+00 0.00000E+00 0.00000E+00 0.00000E+00 0.00000E+00 0.00000E+00 0.00000E+00 0.00000E+00 8.73230E-03 3.57080E-03 2.54000E-02
      595  0.00000E+00 0.00000E+00 0.00000E+00 0.00000E+00 0.00000E+00 0.00000E+00 0.00000E+00 0.00000E+00 0.00000E+00 6.09600E-03 6.09150E-03 2.54000E-02
      596  0.00000E+00 0.00000E+00 0.00000E+00 0.00000E+00 0.00000E+00 0.00000E+00 0.00000E+00 0.00000E+00 0.00000E+00 6.67450E-03 6.66760E-03 2.54000E-02
      599  0.00000E+00 0.00000E+00 0.00000E+00 0.00000E+00 0.00000E+00 0.00000E+00 0.00000E+00 0.00000E+00 0.00000E+00 3.27630E-03 7.97070E-03 2.54000E-02
      600  0.00000E+00 0.00000E+00 0.00000E+00 0.00000E+00 0.00000E+00 0.00000E+00 0.00000E+00 0.00000E+00 0.00000E+00 3.57780E-03 8.72950E-03 2.54000E-02
      603  0.00000E+00 0.00000E+00 0.00000E+00 0.00000E+00 0.00000E+00 0.00000E+00 0.00000E+00 0.00000E+00 0.00000E+00 5.27700E-19 8.61790E-03 2.54000E-02
      604  0.00000E+00 0.00000E+00 0.00000E+00 0.00000E+00 0.00000E+00 0.00000E+00 0.00000E+00 0.00000E+00 0.00000E+00 5.77700E-19 9.43430E-03 2.54000E-02
      638  0.00000E+00 0.00000E+00 0.00000E+00 0.00000E+00 0.00000E+00 0.00000E+00 0.00000E+00 0.00000E+00 0.00000E+00 1.02517E-02 4.16940E-03 2.54000E-02
      639  0.00000E+00 0.00000E+00 0.00000E+00 0.00000E+00 0.00000E+00 0.00000E+00 0.00000E+00 0.00000E+00 0.00000E+00 1.10113E-02 4.46870E-03 2.54000E-02
      641  0.00000E+00 0.00000E+00 0.00000E+00 0.00000E+00 0.00000E+00 0.00000E+00 0.00000E+00 0.00000E+00 0.00000E+00 7.83140E-03 7.81990E-03 2.54000E-02
      642  0.00000E+00 0.00000E+00 0.00000E+00 0.00000E+00 0.00000E+00 0.00000E+00 0.00000E+00 0.00000E+00 0.00000E+00 8.40990E-03 8.39600E-03 2.54000E-02
      644  0.00000E+00 0.00000E+00 0.00000E+00 0.00000E+00 0.00000E+00 0.00000E+00 0.00000E+00 0.00000E+00 0.00000E+00 4.18070E-03 1.02471E-02 2.54000E-02
      645  0.00000E+00 0.00000E+00 0.00000E+00 0.00000E+00 0.00000E+00 0.00000E+00 0.00000E+00 0.00000E+00 0.00000E+00 4.48220E-03 1.10058E-02 2.54000E-02
      647  0.00000E+00 0.00000E+00 0.00000E+00 0.00000E+00 0.00000E+00 0.00000E+00 0.00000E+00 0.00000E+00 0.00000E+00 6.77700E-19 1.10671E-02 2.54000E-02
      648  0.00000E+00 0.00000E+00 0.00000E+00 0.00000E+00 0.00000E+00 0.00000E+00 0.00000E+00 0.00000E+00 0.00000E+00 7.27700E-19 1.18836E-02 2.54000E-02
      674  0.00000E+00 0.00000E+00 0.00000E+00 0.00000E+00 0.00000E+00 0.00000E+00 0.00000E+00 0.00000E+00 0.00000E+00 7.21300E-03 2.97220E-03 2.54000E-02
      676  0.00000E+00 0.00000E+00 0.00000E+00 0.00000E+00 0.00000E+00 0.00000E+00 0.00000E+00 0.00000E+00 0.00000E+00 5.51760E-03 5.51530E-03 2.54000E-02
      678  0.00000E+00 0.00000E+00 0.00000E+00 0.00000E+00 0.00000E+00 0.00000E+00 0.00000E+00 0.00000E+00 0.00000E+00 2.97480E-03 7.21200E-03 2.54000E-02
      680  0.00000E+00 0.00000E+00 0.00000E+00 0.00000E+00 0.00000E+00 0.00000E+00 0.00000E+00 0.00000E+00 0.00000E+00 4.77700E-19 7.80140E-03 2.54000E-02
      821  0.00000E+00 0.00000E+00 0.00000E+00 0.00000E+00 0.00000E+00 0.00000E+00 0.00000E+00 0.00000E+00 0.00000E+00 9.49200E-03 3.87010E-03 2.54000E-02
      822  0.00000E+00 0.00000E+00 0.00000E+00 0.00000E+00 0.00000E+00 0.00000E+00 0.00000E+00 0.00000E+00 0.00000E+00 7.25290E-03 7.24380E-03 2.54000E-02
      823  0.00000E+00 0.00000E+00 0.00000E+00 0.00000E+00 0.00000E+00 0.00000E+00 0.00000E+00 0.00000E+00 0.00000E+00 3.87930E-03 9.48830E-03 2.54000E-02
      824  0.00000E+00 0.00000E+00 0.00000E+00 0.00000E+00 0.00000E+00 0.00000E+00 0.00000E+00 0.00000E+00 0.00000E+00 6.27700E-19 1.02507E-02 2.54000E-02
      850  0.00000E+00 0.00000E+00 0.00000E+00 0.00000E+00 0.00000E+00 0.00000E+00 0.00000E+00 0.00000E+00 0.00000E+00 1.17710E-02 4.76810E-03 2.54000E-02
      852  0.00000E+00 0.00000E+00 0.00000E+00 0.00000E+00 0.00000E+00 0.00000E+00 0.00000E+00 0.00000E+00 0.00000E+00 8.98830E-03 8.97220E-03 2.54000E-02
      854  0.00000E+00 0.00000E+00 0.00000E+00 0.00000E+00 0.00000E+00 0.00000E+00 0.00000E+00 0.00000E+00 0.00000E+00 4.78370E-03 1.17646E-02 2.54000E-02
      856  0.00000E+00 0.00000E+00 0.00000E+00 0.00000E+00 0.00000E+00 0.00000E+00 0.00000E+00 0.00000E+00 0.00000E+00 7.77700E-19 1.27000E-02 2.54000E-02



 n o d a l   p r i n t   o u t   f o r   t i m e  s t e p      10                              ( at time 1.2924466E+00 )

 nodal point  x-disp     y-disp      z-disp      x-vel       y-vel       z-vel      x-accl      y-accl      z-accl      x-coor      y-coor      z-coor
        1  1.59199E-06 0.00000E+00 0.00000E+00 0.00000E+00 0.00000E+00 0.00000E+00 0.00000E+00 0.00000E+00 0.00000E+00 3.17659E-03 0.00000E+00-1.78000E-18
        2  1.04492E-06 0.00000E+00 0.00000E+00 0.00000E+00 0.00000E+00 0.00000E+00 0.00000E+00 0.00000E+00 0.00000E+00 2.38234E-03 0.00000E+00 0.00000E+00
        3  6.40703E-07 0.00000E+00 0.00000E+00 0.00000E+00 0.00000E+00 0.00000E+00 0.00000E+00 0.00000E+00 0.00000E+00 1.58814E-03 0.00000E+00 0.00000E+00
        4  3.06230E-07 0.00000E+00 0.00000E+00 0.00000E+00 0.00000E+00 0.00000E+00 0.00000E+00 0.00000E+00 0.00000E+00 7.94056E-04 0.00000E+00 0.00000E+00
        5  0.00000E+00 0.00000E+00 0.00000E+00 0.00000E+00 0.00000E+00 0.00000E+00 0.00000E+00 0.00000E+00 0.00000E+00 0.00000E+00 0.00000E+00 0.00000E+00
        6  0.00000E+00 3.09131E-07 0.00000E+00 0.00000E+00 0.00000E+00 0.00000E+00 0.00000E+00 0.00000E+00 0.00000E+00 4.86000E-20 7.94059E-04 0.00000E+00
        7  0.00000E+00 6.59973E-07 0.00000E+00 0.00000E+00 0.00000E+00 0.00000E+00 0.00000E+00 0.00000E+00 0.00000E+00 9.72100E-20 1.58816E-03 0.00000E+00
        8  0.00000E+00 1.10934E-06 0.00000E+00 0.00000E+00 0.00000E+00 0.00000E+00 0.00000E+00 0.00000E+00 0.00000E+00 1.45800E-19 2.38241E-03 0.00000E+00
        9  0.00000E+00 1.69823E-06 0.00000E+00 0.00000E+00 0.00000E+00 0.00000E+00 0.00000E+00 0.00000E+00 0.00000E+00 1.94400E-19 3.17670E-03 0.00000E+00
       10  5.95009E-07 1.56643E-06 0.00000E+00 0.00000E+00 0.00000E+00 0.00000E+00 0.00000E+00 0.00000E+00 0.00000E+00 1.21560E-03 2.93487E-03 0.00000E+00
       11  1.19066E-06 1.35100E-06 0.00000E+00 0.00000E+00 0.00000E+00 0.00000E+00 0.00000E+00 0.00000E+00 0.00000E+00 2.24629E-03 2.24645E-03 0.00000E+00
       12  1.51890E-06 7.60900E-07 0.00000E+00 0.00000E+00 0.00000E+00 0.00000E+00 0.00000E+00 0.00000E+00 0.00000E+00 2.93482E-03 1.21576E-03 0.00000E+00
       13  6.14046E-07 6.29548E-07 0.00000E+00 0.00000E+00 0.00000E+00 0.00000E+00 0.00000E+00 0.00000E+00 0.00000E+00 1.30891E-03 1.35253E-03 0.00000E+00
       14  6.39783E-07 3.16752E-07 0.00000E+00 0.00000E+00 0.00000E+00 0.00000E+00 0.00000E+00 0.00000E+00 0.00000E+00 1.48894E-03 7.07294E-04 0.00000E+00
       15  2.98150E-07 6.27076E-07 0.00000E+00 0.00000E+00 0.00000E+00 0.00000E+00 0.00000E+00 0.00000E+00 0.00000E+00 6.69808E-04 1.50763E-03 0.00000E+00
       16  3.08816E-07 3.10862E-07 0.00000E+00 0.00000E+00 0.00000E+00 0.00000E+00 0.00000E+00 0.00000E+00 0.00000E+00 7.53946E-04 7.82648E-04 0.00000E+00
       17  9.04199E-07 8.58771E-07 0.00000E+00 0.00000E+00 0.00000E+00 0.00000E+00 0.00000E+00 0.00000E+00 0.00000E+00 1.73720E-03 1.76836E-03 0.00000E+00
       18  4.55561E-07 9.93203E-07 0.00000E+00 0.00000E+00 0.00000E+00 0.00000E+00 0.00000E+00 0.00000E+00 0.00000E+00 9.20586E-04 2.19209E-03 0.00000E+00
       19  1.01793E-06 4.26578E-07 0.00000E+00 0.00000E+00 0.00000E+00 0.00000E+00 0.00000E+00 0.00000E+00 0.00000E+00 2.16432E-03 9.51285E-04 0.00000E+00
      220  0.00000E+00 1.89282E-07-1.29245E-05 0.00000E+00 0.00000E+00 0.00000E+00 0.00000E+00 0.00000E+00 0.00000E+00 2.13900E-19 3.49269E-03 2.53871E-02
      221  5.09638E-08 1.59451E-07-1.29245E-05 0.00000E+00 0.00000E+00 0.00000E+00 0.00000E+00 0.00000E+00 0.00000E+00 1.47255E-03 3.31456E-03 2.53871E-02
      222  9.13738E-08 2.30690E-07-1.29245E-05 0.00000E+00 0.00000E+00 0.00000E+00 0.00000E+00 0.00000E+00 0.00000E+00 2.02389E-03 4.81943E-03 2.53871E-02
      223  0.00000E+00 2.99135E-07-1.29245E-05 0.00000E+00 0.00000E+00 0.00000E+00 0.00000E+00 0.00000E+00 0.00000E+00 3.20800E-19 5.23910E-03 2.53871E-02
      248  1.30032E-07 3.79435E-07-1.29245E-05 0.00000E+00 0.00000E+00 0.00000E+00 0.00000E+00 0.00000E+00 0.00000E+00 2.67353E-03 6.45358E-03 2.53871E-02
      249  0.00000E+00 4.39238E-07-1.29245E-05 0.00000E+00 0.00000E+00 0.00000E+00 0.00000E+00 0.00000E+00 0.00000E+00 4.27700E-19 6.98544E-03 2.53871E-02
      286  1.36661E-07 6.17328E-08-1.29245E-05 0.00000E+00 0.00000E+00 0.00000E+00 0.00000E+00 0.00000E+00 0.00000E+00 3.27344E-03 1.55486E-03 2.53871E-02
      287  1.26289E-07 1.53278E-07-1.29245E-05 0.00000E+00 0.00000E+00 0.00000E+00 0.00000E+00 0.00000E+00 0.00000E+00 2.87783E-03 2.97355E-03 2.53871E-02
      288  8.21469E-08 1.08151E-07-1.29245E-05 0.00000E+00 0.00000E+00 0.00000E+00 0.00000E+00 0.00000E+00 0.00000E+00 1.65778E-03 1.72091E-03 2.53871E-02
      301  1.81260E-07 2.22365E-07-1.29245E-05 0.00000E+00 0.00000E+00 0.00000E+00 0.00000E+00 0.00000E+00 0.00000E+00 3.81948E-03 3.88792E-03 2.53871E-02
      314  2.39806E-07 2.88588E-07-1.29245E-05 0.00000E+00 0.00000E+00 0.00000E+00 0.00000E+00 0.00000E+00 0.00000E+00 4.93934E-03 4.93939E-03 2.53871E-02
      363  3.05900E-07 1.58943E-07-1.29245E-05 0.00000E+00 0.00000E+00 0.00000E+00 0.00000E+00 0.00000E+00 0.00000E+00 6.45371E-03 2.67306E-03 2.53871E-02
      364  1.88725E-07 1.19588E-07-1.29245E-05 0.00000E+00 0.00000E+00 0.00000E+00 0.00000E+00 0.00000E+00 0.00000E+00 4.75829E-03 2.09132E-03 2.53871E-02
      365  2.42074E-07 0.00000E+00-1.29245E-05 0.00000E+00 0.00000E+00 0.00000E+00 0.00000E+00 0.00000E+00 0.00000E+00 5.23904E-03 0.00000E+00 2.53871E-02
      366  3.34193E-07 0.00000E+00-1.29245E-05 0.00000E+00 0.00000E+00 0.00000E+00 0.00000E+00 0.00000E+00 0.00000E+00 6.98533E-03 0.00000E+00 2.53871E-02
      379  0.00000E+00 9.68153E-08-1.29245E-05 0.00000E+00 0.00000E+00 0.00000E+00 0.00000E+00 0.00000E+00 0.00000E+00 1.06900E-19 1.74640E-03 2.53871E-02
      404  7.80099E-08 0.00000E+00-1.29245E-05 0.00000E+00 0.00000E+00 0.00000E+00 0.00000E+00 0.00000E+00 0.00000E+00 1.74638E-03 0.00000E+00 2.53871E-02
      405  0.00000E+00 0.00000E+00-1.29245E-05 0.00000E+00 0.00000E+00 0.00000E+00 0.00000E+00 0.00000E+00 0.00000E+00 0.00000E+00 0.00000E+00 2.53871E-02
      418  1.55123E-07 0.00000E+00-1.29245E-05 0.00000E+00 0.00000E+00 0.00000E+00 0.00000E+00 0.00000E+00 0.00000E+00 3.49266E-03 0.00000E+00 2.53871E-02
      438  4.81605E-07 0.00000E+00-1.29245E-05 0.00000E+00 0.00000E+00 0.00000E+00 0.00000E+00 0.00000E+00 0.00000E+00 1.27005E-02 0.00000E+00 2.53871E-02
      439  4.54797E-07 0.00000E+00-1.29245E-05 0.00000E+00 0.00000E+00 0.00000E+00 0.00000E+00 0.00000E+00 0.00000E+00 1.18841E-02 0.00000E+00 2.53871E-02
      440  4.31818E-07 0.00000E+00-1.29245E-05 0.00000E+00 0.00000E+00 0.00000E+00 0.00000E+00 0.00000E+00 0.00000E+00 1.10675E-02 0.00000E+00 2.53871E-02
      441  4.08515E-07 0.00000E+00-1.29245E-05 0.00000E+00 0.00000E+00 0.00000E+00 0.00000E+00 0.00000E+00 0.00000E+00 1.02511E-02 0.00000E+00 2.53871E-02
      442  3.84429E-07 0.00000E+00-1.29245E-05 0.00000E+00 0.00000E+00 0.00000E+00 0.00000E+00 0.00000E+00 0.00000E+00 9.43468E-03 0.00000E+00 2.53871E-02
      443  3.59659E-07 0.00000E+00-1.29245E-05 0.00000E+00 0.00000E+00 0.00000E+00 0.00000E+00 0.00000E+00 0.00000E+00 8.61826E-03 0.00000E+00 2.53871E-02
      444  3.36343E-07 0.00000E+00-1.29245E-05 0.00000E+00 0.00000E+00 0.00000E+00 0.00000E+00 0.00000E+00 0.00000E+00 7.80174E-03 0.00000E+00 2.53871E-02
      591  3.38598E-07 1.74006E-07-1.29245E-05 0.00000E+00 0.00000E+00 0.00000E+00 0.00000E+00 0.00000E+00 0.00000E+00 7.97304E-03 3.27167E-03 2.53871E-02
      592  3.62512E-07 1.84099E-07-1.29245E-05 0.00000E+00 0.00000E+00 0.00000E+00 0.00000E+00 0.00000E+00 0.00000E+00 8.73266E-03 3.57098E-03 2.53871E-02
      595  2.67748E-07 3.17818E-07-1.29245E-05 0.00000E+00 0.00000E+00 0.00000E+00 0.00000E+00 0.00000E+00 0.00000E+00 6.09627E-03 6.09182E-03 2.53871E-02
      596  2.87381E-07 3.37752E-07-1.29245E-05 0.00000E+00 0.00000E+00 0.00000E+00 0.00000E+00 0.00000E+00 0.00000E+00 6.67479E-03 6.66794E-03 2.53871E-02
      599  1.44862E-07 4.08666E-07-1.29245E-05 0.00000E+00 0.00000E+00 0.00000E+00 0.00000E+00 0.00000E+00 0.00000E+00 3.27644E-03 7.97111E-03 2.53871E-02
      600  1.55954E-07 4.32718E-07-1.29245E-05 0.00000E+00 0.00000E+00 0.00000E+00 0.00000E+00 0.00000E+00 0.00000E+00 3.57796E-03 8.72993E-03 2.53871E-02
      603  0.00000E+00 4.42019E-07-1.29245E-05 0.00000E+00 0.00000E+00 0.00000E+00 0.00000E+00 0.00000E+00 0.00000E+00 5.27700E-19 8.61834E-03 2.53871E-02
      604  0.00000E+00 4.64942E-07-1.29245E-05 0.00000E+00 0.00000E+00 0.00000E+00 0.00000E+00 0.00000E+00 0.00000E+00 5.77700E-19 9.43476E-03 2.53871E-02
      638  4.10346E-07 2.02719E-07-1.29245E-05 0.00000E+00 0.00000E+00 0.00000E+00 0.00000E+00 0.00000E+00 0.00000E+00 1.02521E-02 4.16960E-03 2.53871E-02
      639  4.33624E-07 2.11155E-07-1.29245E-05 0.00000E+00 0.00000E+00 0.00000E+00 0.00000E+00 0.00000E+00 0.00000E+00 1.10117E-02 4.46891E-03 2.53871E-02
      641  3.28032E-07 3.78161E-07-1.29245E-05 0.00000E+00 0.00000E+00 0.00000E+00 0.00000E+00 0.00000E+00 0.00000E+00 7.83173E-03 7.82028E-03 2.53871E-02
      642  3.48245E-07 3.97944E-07-1.29245E-05 0.00000E+00 0.00000E+00 0.00000E+00 0.00000E+00 0.00000E+00 0.00000E+00 8.41025E-03 8.39640E-03 2.53871E-02
      644  1.78764E-07 4.83270E-07-1.29245E-05 0.00000E+00 0.00000E+00 0.00000E+00 0.00000E+00 0.00000E+00 0.00000E+00 4.18088E-03 1.02476E-02 2.53871E-02
      645  1.90232E-07 5.10520E-07-1.29245E-05 0.00000E+00 0.00000E+00 0.00000E+00 0.00000E+00 0.00000E+00 0.00000E+00 4.48239E-03 1.10063E-02 2.53871E-02
      647  0.00000E+00 5.15685E-07-1.29245E-05 0.00000E+00 0.00000E+00 0.00000E+00 0.00000E+00 0.00000E+00 0.00000E+00 6.77700E-19 1.10676E-02 2.53871E-02
      648  0.00000E+00 5.46318E-07-1.29245E-05 0.00000E+00 0.00000E+00 0.00000E+00 0.00000E+00 0.00000E+00 0.00000E+00 7.27700E-19 1.18841E-02 2.53871E-02
      674  3.15920E-07 1.65507E-07-1.29245E-05 0.00000E+00 0.00000E+00 0.00000E+00 0.00000E+00 0.00000E+00 0.00000E+00 7.21332E-03 2.97237E-03 2.53871E-02
      676  2.48624E-07 3.00910E-07-1.29245E-05 0.00000E+00 0.00000E+00 0.00000E+00 0.00000E+00 0.00000E+00 0.00000E+00 5.51785E-03 5.51560E-03 2.53871E-02
      678  1.34204E-07 3.89868E-07-1.29245E-05 0.00000E+00 0.00000E+00 0.00000E+00 0.00000E+00 0.00000E+00 0.00000E+00 2.97493E-03 7.21239E-03 2.53871E-02
      680  0.00000E+00 4.29291E-07-1.29245E-05 0.00000E+00 0.00000E+00 0.00000E+00 0.00000E+00 0.00000E+00 0.00000E+00 4.77700E-19 7.80183E-03 2.53871E-02
      821  3.86458E-07 1.93768E-07-1.29245E-05 0.00000E+00 0.00000E+00 0.00000E+00 0.00000E+00 0.00000E+00 0.00000E+00 9.49239E-03 3.87029E-03 2.53871E-02
      822  3.07507E-07 3.57998E-07-1.29245E-05 0.00000E+00 0.00000E+00 0.00000E+00 0.00000E+00 0.00000E+00 0.00000E+00 7.25321E-03 7.24416E-03 2.53871E-02
      823  1.67372E-07 4.57875E-07-1.29245E-05 0.00000E+00 0.00000E+00 0.00000E+00 0.00000E+00 0.00000E+00 0.00000E+00 3.87947E-03 9.48876E-03 2.53871E-02
      824  0.00000E+00 4.90161E-07-1.29245E-05 0.00000E+00 0.00000E+00 0.00000E+00 0.00000E+00 0.00000E+00 0.00000E+00 6.27700E-19 1.02512E-02 2.53871E-02
      850  4.46527E-07 2.19105E-07-1.29245E-05 0.00000E+00 0.00000E+00 0.00000E+00 0.00000E+00 0.00000E+00 0.00000E+00 1.17714E-02 4.76832E-03 2.53871E-02
      852  3.48188E-07 4.10282E-07-1.29245E-05 0.00000E+00 0.00000E+00 0.00000E+00 0.00000E+00 0.00000E+00 0.00000E+00 8.98865E-03 8.97261E-03 2.53871E-02
      854  1.98273E-07 5.58897E-07-1.29245E-05 0.00000E+00 0.00000E+00 0.00000E+00 0.00000E+00 0.00000E+00 0.00000E+00 4.78390E-03 1.17652E-02 2.53871E-02
      856  0.00000E+00 6.17743E-07-1.29245E-05 0.00000E+00 0.00000E+00 0.00000E+00 0.00000E+00 0.00000E+00 0.00000E+00 7.77700E-19 1.27006E-02 2.53871E-02



 n o d a l   p r i n t   o u t   f o r   t i m e  s t e p      14                              ( at time 2.5483898E+00 )

 nodal point  x-disp     y-disp      z-disp      x-vel       y-vel       z-vel      x-accl      y-accl      z-accl      x-coor      y-coor      z-coor
        1  3.14468E-06 0.00000E+00 0.00000E+00 0.00000E+00 0.00000E+00 0.00000E+00 0.00000E+00 0.00000E+00 0.00000E+00 3.17814E-03 0.00000E+00-1.78000E-18
        2  2.02345E-06 0.00000E+00 0.00000E+00 0.00000E+00 0.00000E+00 0.00000E+00 0.00000E+00 0.00000E+00 0.00000E+00 2.38332E-03 0.00000E+00 0.00000E+00
        3  1.23420E-06 0.00000E+00 0.00000E+00 0.00000E+00 0.00000E+00 0.00000E+00 0.00000E+00 0.00000E+00 0.00000E+00 1.58873E-03 0.00000E+00 0.00000E+00
        4  5.90103E-07 0.00000E+00 0.00000E+00 0.00000E+00 0.00000E+00 0.00000E+00 0.00000E+00 0.00000E+00 0.00000E+00 7.94340E-04 0.00000E+00 0.00000E+00
        5  0.00000E+00 0.00000E+00 0.00000E+00 0.00000E+00 0.00000E+00 0.00000E+00 0.00000E+00 0.00000E+00 0.00000E+00 0.00000E+00 0.00000E+00 0.00000E+00
        6  0.00000E+00 5.97372E-07 0.00000E+00 0.00000E+00 0.00000E+00 0.00000E+00 0.00000E+00 0.00000E+00 0.00000E+00 4.86000E-20 7.94347E-04 0.00000E+00
        7  0.00000E+00 1.28292E-06 0.00000E+00 0.00000E+00 0.00000E+00 0.00000E+00 0.00000E+00 0.00000E+00 0.00000E+00 9.72100E-20 1.58878E-03 0.00000E+00
        8  0.00000E+00 2.18320E-06 0.00000E+00 0.00000E+00 0.00000E+00 0.00000E+00 0.00000E+00 0.00000E+00 0.00000E+00 1.45800E-19 2.38348E-03 0.00000E+00
        9  0.00000E+00 3.40296E-06 0.00000E+00 0.00000E+00 0.00000E+00 0.00000E+00 0.00000E+00 0.00000E+00 0.00000E+00 1.94400E-19 3.17840E-03 0.00000E+00
       10  1.17868E-06 3.13863E-06 0.00000E+00 0.00000E+00 0.00000E+00 0.00000E+00 0.00000E+00 0.00000E+00 0.00000E+00 1.21618E-03 2.93644E-03 0.00000E+00
       11  2.39817E-06 2.75898E-06 0.00000E+00 0.00000E+00 0.00000E+00 0.00000E+00 0.00000E+00 0.00000E+00 0.00000E+00 2.24750E-03 2.24786E-03 0.00000E+00
       12  3.04725E-06 1.55952E-06 0.00000E+00 0.00000E+00 0.00000E+00 0.00000E+00 0.00000E+00 0.00000E+00 0.00000E+00 2.93635E-03 1.21656E-03 0.00000E+00
       13  1.22654E-06 1.25791E-06 0.00000E+00 0.00000E+00 0.00000E+00 0.00000E+00 0.00000E+00 0.00000E+00 0.00000E+00 1.30953E-03 1.35316E-03 0.00000E+00
       14  1.26767E-06 6.32520E-07 0.00000E+00 0.00000E+00 0.00000E+00 0.00000E+00 0.00000E+00 0.00000E+00 0.00000E+00 1.48957E-03 7.07609E-04 0.00000E+00
       15  5.91847E-07 1.22189E-06 0.00000E+00 0.00000E+00 0.00000E+00 0.00000E+00 0.00000E+00 0.00000E+00 0.00000E+00 6.70102E-04 1.50822E-03 0.00000E+00
       16  6.09795E-07 6.04261E-07 0.00000E+00 0.00000E+00 0.00000E+00 0.00000E+00 0.00000E+00 0.00000E+00 0.00000E+00 7.54247E-04 7.82941E-04 0.00000E+00
       17  1.81306E-06 1.71575E-06 0.00000E+00 0.00000E+00 0.00000E+00 0.00000E+00 0.00000E+00 0.00000E+00 0.00000E+00 1.73811E-03 1.76922E-03 0.00000E+00
       18  9.03497E-07 1.95156E-06 0.00000E+00 0.00000E+00 0.00000E+00 0.00000E+00 0.00000E+00 0.00000E+00 0.00000E+00 9.21034E-04 2.19305E-03 0.00000E+00
       19  2.02465E-06 8.50814E-07 0.00000E+00 0.00000E+00 0.00000E+00 0.00000E+00 0.00000E+00 0.00000E+00 0.00000E+00 2.16532E-03 9.51709E-04 0.00000E+00
      220  0.00000E+00 3.87753E-07-2.54839E-05 0.00000E+00 0.00000E+00 0.00000E+00 0.00000E+00 0.00000E+00 0.00000E+00 2.13900E-19 3.49289E-03 2.53745E-02
      221  9.58359E-08 3.18450E-07-2.54839E-05 0.00000E+00 0.00000E+00 0.00000E+00 0.00000E+00 0.00000E+00 0.00000E+00 1.47260E-03 3.31472E-03 2.53745E-02
      222  1.73691E-07 4.61092E-07-2.54839E-05 0.00000E+00 0.00000E+00 0.00000E+00 0.00000E+00 0.00000E+00 0.00000E+00 2.02397E-03 4.81966E-03 2.53745E-02
      223  0.00000E+00 6.09777E-07-2.54839E-05 0.00000E+00 0.00000E+00 0.00000E+00 0.00000E+00 0.00000E+00 0.00000E+00 3.20800E-19 5.23941E-03 2.53745E-02
      248  2.50766E-07 7.65214E-07-2.54839E-05 0.00000E+00 0.00000E+00 0.00000E+00 0.00000E+00 0.00000E+00 0.00000E+00 2.67365E-03 6.45397E-03 2.53745E-02
      249  0.00000E+00 9.01914E-07-2.54839E-05 0.00000E+00 0.00000E+00 0.00000E+00 0.00000E+00 0.00000E+00 0.00000E+00 4.27700E-19 6.98590E-03 2.53745E-02
      286  2.54015E-07 1.31525E-07-2.54839E-05 0.00000E+00 0.00000E+00 0.00000E+00 0.00000E+00 0.00000E+00 0.00000E+00 3.27355E-03 1.55493E-03 2.53745E-02
      287  2.39395E-07 3.12179E-07-2.54839E-05 0.00000E+00 0.00000E+00 0.00000E+00 0.00000E+00 0.00000E+00 0.00000E+00 2.87794E-03 2.97371E-03 2.53745E-02
      288  1.53414E-07 2.21087E-07-2.54839E-05 0.00000E+00 0.00000E+00 0.00000E+00 0.00000E+00 0.00000E+00 0.00000E+00 1.65785E-03 1.72102E-03 2.53745E-02
      301  3.49072E-07 4.56564E-07-2.54839E-05 0.00000E+00 0.00000E+00 0.00000E+00 0.00000E+00 0.00000E+00 0.00000E+00 3.81965E-03 3.88816E-03 2.53745E-02
      314  4.63340E-07 5.89134E-07-2.54839E-05 0.00000E+00 0.00000E+00 0.00000E+00 0.00000E+00 0.00000E+00 0.00000E+00 4.93956E-03 4.93969E-03 2.53745E-02
      363  5.80995E-07 3.30322E-07-2.54839E-05 0.00000E+00 0.00000E+00 0.00000E+00 0.00000E+00 0.00000E+00 0.00000E+00 6.45398E-03 2.67323E-03 2.53745E-02
      364  3.53560E-07 2.50261E-07-2.54839E-05 0.00000E+00 0.00000E+00 0.00000E+00 0.00000E+00 0.00000E+00 0.00000E+00 4.75845E-03 2.09145E-03 2.53745E-02
      365  4.59445E-07 0.00000E+00-2.54839E-05 0.00000E+00 0.00000E+00 0.00000E+00 0.00000E+00 0.00000E+00 0.00000E+00 5.23926E-03 0.00000E+00 2.53745E-02
      366  6.37600E-07 0.00000E+00-2.54839E-05 0.00000E+00 0.00000E+00 0.00000E+00 0.00000E+00 0.00000E+00 0.00000E+00 6.98564E-03 0.00000E+00 2.53745E-02
      379  0.00000E+00 2.02782E-07-2.54839E-05 0.00000E+00 0.00000E+00 0.00000E+00 0.00000E+00 0.00000E+00 0.00000E+00 1.06900E-19 1.74650E-03 2.53745E-02
      404  1.42597E-07 0.00000E+00-2.54839E-05 0.00000E+00 0.00000E+00 0.00000E+00 0.00000E+00 0.00000E+00 0.00000E+00 1.74644E-03 0.00000E+00 2.53745E-02
      405  0.00000E+00 0.00000E+00-2.54839E-05 0.00000E+00 0.00000E+00 0.00000E+00 0.00000E+00 0.00000E+00 0.00000E+00 0.00000E+00 0.00000E+00 2.53745E-02
      418  2.89747E-07 0.00000E+00-2.54839E-05 0.00000E+00 0.00000E+00 0.00000E+00 0.00000E+00 0.00000E+00 0.00000E+00 3.49279E-03 0.00000E+00 2.53745E-02
      438  9.04114E-07 0.00000E+00-2.54839E-05 0.00000E+00 0.00000E+00 0.00000E+00 0.00000E+00 0.00000E+00 0.00000E+00 1.27009E-02 0.00000E+00 2.53745E-02
      439  8.56977E-07 0.00000E+00-2.54839E-05 0.00000E+00 0.00000E+00 0.00000E+00 0.00000E+00 0.00000E+00 0.00000E+00 1.18845E-02 0.00000E+00 2.53745E-02
      440  8.14497E-07 0.00000E+00-2.54839E-05 0.00000E+00 0.00000E+00 0.00000E+00 0.00000E+00 0.00000E+00 0.00000E+00 1.10679E-02 0.00000E+00 2.53745E-02
      441  7.70844E-07 0.00000E+00-2.54839E-05 0.00000E+00 0.00000E+00 0.00000E+00 0.00000E+00 0.00000E+00 0.00000E+00 1.02515E-02 0.00000E+00 2.53745E-02
      442  7.25489E-07 0.00000E+00-2.54839E-05 0.00000E+00 0.00000E+00 0.00000E+00 0.00000E+00 0.00000E+00 0.00000E+00 9.43503E-03 0.00000E+00 2.53745E-02
      443  6.78700E-07 0.00000E+00-2.54839E-05 0.00000E+00 0.00000E+00 0.00000E+00 0.00000E+00 0.00000E+00 0.00000E+00 8.61858E-03 0.00000E+00 2.53745E-02
      444  6.35077E-07 0.00000E+00-2.54839E-05 0.00000E+00 0.00000E+00 0.00000E+00 0.00000E+00 0.00000E+00 0.00000E+00 7.80204E-03 0.00000E+00 2.53745E-02
      591  6.44963E-07 3.63480E-07-2.54839E-05 0.00000E+00 0.00000E+00 0.00000E+00 0.00000E+00 0.00000E+00 0.00000E+00 7.97334E-03 3.27186E-03 2.53745E-02
      592  6.90984E-07 3.83756E-07-2.54839E-05 0.00000E+00 0.00000E+00 0.00000E+00 0.00000E+00 0.00000E+00 0.00000E+00 8.73299E-03 3.57118E-03 2.53745E-02
      595  5.17698E-07 6.45967E-07-2.54839E-05 0.00000E+00 0.00000E+00 0.00000E+00 0.00000E+00 0.00000E+00 0.00000E+00 6.09652E-03 6.09215E-03 2.53745E-02
      596  5.56443E-07 6.83800E-07-2.54839E-05 0.00000E+00 0.00000E+00 0.00000E+00 0.00000E+00 0.00000E+00 0.00000E+00 6.67506E-03 6.66828E-03 2.53745E-02
      599  2.81899E-07 8.22105E-07-2.54839E-05 0.00000E+00 0.00000E+00 0.00000E+00 0.00000E+00 0.00000E+00 0.00000E+00 3.27658E-03 7.97152E-03 2.53745E-02
      600  3.04780E-07 8.67653E-07-2.54839E-05 0.00000E+00 0.00000E+00 0.00000E+00 0.00000E+00 0.00000E+00 0.00000E+00 3.57810E-03 8.73037E-03 2.53745E-02
      603  0.00000E+00 8.91775E-07-2.54839E-05 0.00000E+00 0.00000E+00 0.00000E+00 0.00000E+00 0.00000E+00 0.00000E+00 5.27700E-19 8.61879E-03 2.53745E-02
      604  0.00000E+00 9.31340E-07-2.54839E-05 0.00000E+00 0.00000E+00 0.00000E+00 0.00000E+00 0.00000E+00 0.00000E+00 5.77700E-19 9.43523E-03 2.53745E-02
      638  7.83375E-07 4.19975E-07-2.54839E-05 0.00000E+00 0.00000E+00 0.00000E+00 0.00000E+00 0.00000E+00 0.00000E+00 1.02525E-02 4.16982E-03 2.53745E-02
      639  8.27723E-07 4.34696E-07-2.54839E-05 0.00000E+00 0.00000E+00 0.00000E+00 0.00000E+00 0.00000E+00 0.00000E+00 1.10121E-02 4.46913E-03 2.53745E-02
      641  6.37202E-07 7.61237E-07-2.54839E-05 0.00000E+00 0.00000E+00 0.00000E+00 0.00000E+00 0.00000E+00 0.00000E+00 7.83204E-03 7.82066E-03 2.53745E-02
      642  6.77256E-07 7.99070E-07-2.54839E-05 0.00000E+00 0.00000E+00 0.00000E+00 0.00000E+00 0.00000E+00 0.00000E+00 8.41058E-03 8.39680E-03 2.53745E-02
      644  3.50836E-07 9.64912E-07-2.54839E-05 0.00000E+00 0.00000E+00 0.00000E+00 0.00000E+00 0.00000E+00 0.00000E+00 4.18105E-03 1.02481E-02 2.53745E-02
      645  3.72684E-07 1.01742E-06-2.54839E-05 0.00000E+00 0.00000E+00 0.00000E+00 0.00000E+00 0.00000E+00 0.00000E+00 4.48257E-03 1.10068E-02 2.53745E-02
      647  0.00000E+00 1.02518E-06-2.54839E-05 0.00000E+00 0.00000E+00 0.00000E+00 0.00000E+00 0.00000E+00 0.00000E+00 6.77700E-19 1.10681E-02 2.53745E-02
      648  0.00000E+00 1.08959E-06-2.54839E-05 0.00000E+00 0.00000E+00 0.00000E+00 0.00000E+00 0.00000E+00 0.00000E+00 7.27700E-19 1.18847E-02 2.53745E-02
      674  6.01323E-07 3.45947E-07-2.54839E-05 0.00000E+00 0.00000E+00 0.00000E+00 0.00000E+00 0.00000E+00 0.00000E+00 7.21360E-03 2.97255E-03 2.53745E-02
      676  4.80025E-07 6.13915E-07-2.54839E-05 0.00000E+00 0.00000E+00 0.00000E+00 0.00000E+00 0.00000E+00 0.00000E+00 5.51808E-03 5.51591E-03 2.53745E-02
      678  2.59544E-07 7.86713E-07-2.54839E-05 0.00000E+00 0.00000E+00 0.00000E+00 0.00000E+00 0.00000E+00 0.00000E+00 2.97506E-03 7.21279E-03 2.53745E-02
      680  0.00000E+00 8.75201E-07-2.54839E-05 0.00000E+00 0.00000E+00 0.00000E+00 0.00000E+00 0.00000E+00 0.00000E+00 4.77700E-19 7.80228E-03 2.53745E-02
      821  7.37165E-07 4.02863E-07-2.54839E-05 0.00000E+00 0.00000E+00 0.00000E+00 0.00000E+00 0.00000E+00 0.00000E+00 9.49274E-03 3.87050E-03 2.53745E-02
      822  5.96392E-07 7.22499E-07-2.54839E-05 0.00000E+00 0.00000E+00 0.00000E+00 0.00000E+00 0.00000E+00 0.00000E+00 7.25350E-03 7.24452E-03 2.53745E-02
      823  3.28045E-07 9.15748E-07-2.54839E-05 0.00000E+00 0.00000E+00 0.00000E+00 0.00000E+00 0.00000E+00 0.00000E+00 3.87963E-03 9.48922E-03 2.53745E-02
      824  0.00000E+00 9.77177E-07-2.54839E-05 0.00000E+00 0.00000E+00 0.00000E+00 0.00000E+00 0.00000E+00 0.00000E+00 6.27700E-19 1.02517E-02 2.53745E-02
      850  8.42952E-07 4.45333E-07-2.54839E-05 0.00000E+00 0.00000E+00 0.00000E+00 0.00000E+00 0.00000E+00 0.00000E+00 1.17718E-02 4.76855E-03 2.53745E-02
      852  6.63313E-07 8.16787E-07-2.54839E-05 0.00000E+00 0.00000E+00 0.00000E+00 0.00000E+00 0.00000E+00 0.00000E+00 8.98896E-03 8.97302E-03 2.53745E-02
      854  3.83621E-07 1.12048E-06-2.54839E-05 0.00000E+00 0.00000E+00 0.00000E+00 0.00000E+00 0.00000E+00 0.00000E+00 4.78408E-03 1.17657E-02 2.53745E-02
      856  0.00000E+00 1.25892E-06-2.54839E-05 0.00000E+00 0.00000E+00 0.00000E+00 0.00000E+00 0.00000E+00 0.00000E+00 7.77700E-19 1.27013E-02 2.53745E-02



 n o d a l   p r i n t   o u t   f o r   t i m e  s t e p     310                              ( at time 3.4723147E+00 )

 nodal point  x-disp     y-disp      z-disp      x-vel       y-vel       z-vel      x-accl      y-accl      z-accl      x-coor      y-coor      z-coor
        1  7.41286E-06 0.00000E+00 0.00000E+00 0.00000E+00 0.00000E+00 0.00000E+00 0.00000E+00 0.00000E+00 0.00000E+00 3.18241E-03 0.00000E+00-1.78000E-18
        2  5.22038E-06 0.00000E+00 0.00000E+00 0.00000E+00 0.00000E+00 0.00000E+00 0.00000E+00 0.00000E+00 0.00000E+00 2.38652E-03 0.00000E+00 0.00000E+00
        3  3.29602E-06 0.00000E+00 0.00000E+00 0.00000E+00 0.00000E+00 0.00000E+00 0.00000E+00 0.00000E+00 0.00000E+00 1.59080E-03 0.00000E+00 0.00000E+00
        4  1.57863E-06 0.00000E+00 0.00000E+00 0.00000E+00 0.00000E+00 0.00000E+00 0.00000E+00 0.00000E+00 0.00000E+00 7.95329E-04 0.00000E+00 0.00000E+00
        5  0.00000E+00 0.00000E+00 0.00000E+00 0.00000E+00 0.00000E+00 0.00000E+00 0.00000E+00 0.00000E+00 0.00000E+00 0.00000E+00 0.00000E+00 0.00000E+00
        6  0.00000E+00 1.71999E-06 0.00000E+00 0.00000E+00 0.00000E+00 0.00000E+00 0.00000E+00 0.00000E+00 0.00000E+00 4.86000E-20 7.95470E-04 0.00000E+00
        7  0.00000E+00 3.56360E-06 0.00000E+00 0.00000E+00 0.00000E+00 0.00000E+00 0.00000E+00 0.00000E+00 0.00000E+00 9.72100E-20 1.59106E-03 0.00000E+00
        8  0.00000E+00 5.58523E-06 0.00000E+00 0.00000E+00 0.00000E+00 0.00000E+00 0.00000E+00 0.00000E+00 0.00000E+00 1.45800E-19 2.38689E-03 0.00000E+00
        9  0.00000E+00 8.03553E-06 0.00000E+00 0.00000E+00 0.00000E+00 0.00000E+00 0.00000E+00 0.00000E+00 0.00000E+00 1.94400E-19 3.18304E-03 0.00000E+00
       10  2.48033E-06 7.13926E-06 0.00000E+00 0.00000E+00 0.00000E+00 0.00000E+00 0.00000E+00 0.00000E+00 0.00000E+00 1.21748E-03 2.94044E-03 0.00000E+00
       11  4.91361E-06 5.82072E-06 0.00000E+00 0.00000E+00 0.00000E+00 0.00000E+00 0.00000E+00 0.00000E+00 0.00000E+00 2.25001E-03 2.25092E-03 0.00000E+00
       12  6.55231E-06 3.28208E-06 0.00000E+00 0.00000E+00 0.00000E+00 0.00000E+00 0.00000E+00 0.00000E+00 0.00000E+00 2.93985E-03 1.21828E-03 0.00000E+00
       13  2.70070E-06 2.60113E-06 0.00000E+00 0.00000E+00 0.00000E+00 0.00000E+00 0.00000E+00 0.00000E+00 0.00000E+00 1.31100E-03 1.35450E-03 0.00000E+00
       14  2.91267E-06 1.25512E-06 0.00000E+00 0.00000E+00 0.00000E+00 0.00000E+00 0.00000E+00 0.00000E+00 0.00000E+00 1.49121E-03 7.08232E-04 0.00000E+00
       15  1.37760E-06 3.25448E-06 0.00000E+00 0.00000E+00 0.00000E+00 0.00000E+00 0.00000E+00 0.00000E+00 0.00000E+00 6.70888E-04 1.51025E-03 0.00000E+00
       16  1.33998E-06 1.63887E-06 0.00000E+00 0.00000E+00 0.00000E+00 0.00000E+00 0.00000E+00 0.00000E+00 0.00000E+00 7.54978E-04 7.83976E-04 0.00000E+00
       17  3.85112E-06 3.74939E-06 0.00000E+00 0.00000E+00 0.00000E+00 0.00000E+00 0.00000E+00 0.00000E+00 0.00000E+00 1.74015E-03 1.77125E-03 0.00000E+00
       18  2.04398E-06 4.91880E-06 0.00000E+00 0.00000E+00 0.00000E+00 0.00000E+00 0.00000E+00 0.00000E+00 0.00000E+00 9.22175E-04 2.19602E-03 0.00000E+00
       19  4.64348E-06 1.87501E-06 0.00000E+00 0.00000E+00 0.00000E+00 0.00000E+00 0.00000E+00 0.00000E+00 0.00000E+00 2.16794E-03 9.52734E-04 0.00000E+00
      220  0.00000E+00 1.55622E-06-3.47231E-05 0.00000E+00 0.00000E+00 0.00000E+00 0.00000E+00 0.00000E+00 0.00000E+00 2.13900E-19 3.49406E-03 2.53653E-02
      221  1.25856E-07 1.11559E-06-3.47231E-05 0.00000E+00 0.00000E+00 0.00000E+00 0.00000E+00 0.00000E+00 0.00000E+00 1.47263E-03 3.31552E-03 2.53653E-02
      222  3.04513E-07 1.33279E-06-3.47231E-05 0.00000E+00 0.00000E+00 0.00000E+00 0.00000E+00 0.00000E+00 0.00000E+00 2.02410E-03 4.82053E-03 2.53653E-02
      223  0.00000E+00 1.70309E-06-3.47231E-05 0.00000E+00 0.00000E+00 0.00000E+00 0.00000E+00 0.00000E+00 0.00000E+00 3.20800E-19 5.24050E-03 2.53653E-02
      248  4.68867E-07 1.93346E-06-3.47231E-05 0.00000E+00 0.00000E+00 0.00000E+00 0.00000E+00 0.00000E+00 0.00000E+00 2.67387E-03 6.45513E-03 2.53653E-02
      249  0.00000E+00 2.26450E-06-3.47231E-05 0.00000E+00 0.00000E+00 0.00000E+00 0.00000E+00 0.00000E+00 0.00000E+00 4.27700E-19 6.98726E-03 2.53653E-02
      286  2.45834E-07 5.34490E-07-3.47231E-05 0.00000E+00 0.00000E+00 0.00000E+00 0.00000E+00 0.00000E+00 0.00000E+00 3.27355E-03 1.55533E-03 2.53653E-02
      287  2.51506E-07 1.25053E-06-3.47231E-05 0.00000E+00 0.00000E+00 0.00000E+00 0.00000E+00 0.00000E+00 0.00000E+00 2.87795E-03 2.97465E-03 2.53653E-02
      288  2.45174E-07 5.06176E-07-3.47231E-05 0.00000E+00 0.00000E+00 0.00000E+00 0.00000E+00 0.00000E+00 0.00000E+00 1.65795E-03 1.72131E-03 2.53653E-02
      301  4.80956E-07 1.16649E-06-3.47231E-05 0.00000E+00 0.00000E+00 0.00000E+00 0.00000E+00 0.00000E+00 0.00000E+00 3.81978E-03 3.88887E-03 2.53653E-02
      314  4.03393E-07 1.30558E-06-3.47231E-05 0.00000E+00 0.00000E+00 0.00000E+00 0.00000E+00 0.00000E+00 0.00000E+00 4.93950E-03 4.94041E-03 2.53653E-02
      363  3.98396E-07 1.09252E-06-3.47231E-05 0.00000E+00 0.00000E+00 0.00000E+00 0.00000E+00 0.00000E+00 0.00000E+00 6.45380E-03 2.67399E-03 2.53653E-02
      364  2.32932E-07 8.31503E-07-3.47231E-05 0.00000E+00 0.00000E+00 0.00000E+00 0.00000E+00 0.00000E+00 0.00000E+00 4.75833E-03 2.09203E-03 2.53653E-02
      365 -2.63530E-07 0.00000E+00-3.47231E-05 0.00000E+00 0.00000E+00 0.00000E+00 0.00000E+00 0.00000E+00 0.00000E+00 5.23854E-03 0.00000E+00 2.53653E-02
      366 -1.24630E-07 0.00000E+00-3.47231E-05 0.00000E+00 0.00000E+00 0.00000E+00 0.00000E+00 0.00000E+00 0.00000E+00 6.98488E-03 0.00000E+00 2.53653E-02
      379  0.00000E+00 5.59200E-07-3.47231E-05 0.00000E+00 0.00000E+00 0.00000E+00 0.00000E+00 0.00000E+00 0.00000E+00 1.06900E-19 1.74686E-03 2.53653E-02
      404 -2.61563E-07 0.00000E+00-3.47231E-05 0.00000E+00 0.00000E+00 0.00000E+00 0.00000E+00 0.00000E+00 0.00000E+00 1.74604E-03 0.00000E+00 2.53653E-02
      405  0.00000E+00 0.00000E+00-3.47231E-05 0.00000E+00 0.00000E+00 0.00000E+00 0.00000E+00 0.00000E+00 0.00000E+00 0.00000E+00 0.00000E+00 2.53653E-02
      418 -3.17998E-07 0.00000E+00-3.47231E-05 0.00000E+00 0.00000E+00 0.00000E+00 0.00000E+00 0.00000E+00 0.00000E+00 3.49218E-03 0.00000E+00 2.53653E-02
      438 -1.35546E-07 0.00000E+00-3.47231E-05 0.00000E+00 0.00000E+00 0.00000E+00 0.00000E+00 0.00000E+00 0.00000E+00 1.26999E-02 0.00000E+00 2.53653E-02
      439 -1.61151E-08 0.00000E+00-3.47231E-05 0.00000E+00 0.00000E+00 0.00000E+00 0.00000E+00 0.00000E+00 0.00000E+00 1.18836E-02 0.00000E+00 2.53653E-02
      440  8.48984E-09 0.00000E+00-3.47231E-05 0.00000E+00 0.00000E+00 0.00000E+00 0.00000E+00 0.00000E+00 0.00000E+00 1.10671E-02 0.00000E+00 2.53653E-02
      441  8.65234E-09 0.00000E+00-3.47231E-05 0.00000E+00 0.00000E+00 0.00000E+00 0.00000E+00 0.00000E+00 0.00000E+00 1.02507E-02 0.00000E+00 2.53653E-02
      442 -3.65872E-08 0.00000E+00-3.47231E-05 0.00000E+00 0.00000E+00 0.00000E+00 0.00000E+00 0.00000E+00 0.00000E+00 9.43426E-03 0.00000E+00 2.53653E-02
      443 -7.51868E-08 0.00000E+00-3.47231E-05 0.00000E+00 0.00000E+00 0.00000E+00 0.00000E+00 0.00000E+00 0.00000E+00 8.61782E-03 0.00000E+00 2.53653E-02
      444 -1.12998E-07 0.00000E+00-3.47231E-05 0.00000E+00 0.00000E+00 0.00000E+00 0.00000E+00 0.00000E+00 0.00000E+00 7.80129E-03 0.00000E+00 2.53653E-02
      591  2.86759E-07 9.66758E-07-3.47231E-05 0.00000E+00 0.00000E+00 0.00000E+00 0.00000E+00 0.00000E+00 0.00000E+00 7.97299E-03 3.27247E-03 2.53653E-02
      592  3.68650E-07 9.35357E-07-3.47231E-05 0.00000E+00 0.00000E+00 0.00000E+00 0.00000E+00 0.00000E+00 0.00000E+00 8.73267E-03 3.57174E-03 2.53653E-02
      595  5.05426E-07 1.31516E-06-3.47231E-05 0.00000E+00 0.00000E+00 0.00000E+00 0.00000E+00 0.00000E+00 0.00000E+00 6.09651E-03 6.09282E-03 2.53653E-02
      596  5.34428E-07 1.25856E-06-3.47231E-05 0.00000E+00 0.00000E+00 0.00000E+00 0.00000E+00 0.00000E+00 0.00000E+00 6.67503E-03 6.66886E-03 2.53653E-02
      599  4.61055E-07 1.77523E-06-3.47231E-05 0.00000E+00 0.00000E+00 0.00000E+00 0.00000E+00 0.00000E+00 0.00000E+00 3.27676E-03 7.97248E-03 2.53653E-02
      600  4.94027E-07 1.67260E-06-3.47231E-05 0.00000E+00 0.00000E+00 0.00000E+00 0.00000E+00 0.00000E+00 0.00000E+00 3.57829E-03 8.73117E-03 2.53653E-02
      603  0.00000E+00 2.39415E-06-3.47231E-05 0.00000E+00 0.00000E+00 0.00000E+00 0.00000E+00 0.00000E+00 0.00000E+00 5.27700E-19 8.62029E-03 2.53653E-02
      604  0.00000E+00 2.26979E-06-3.47231E-05 0.00000E+00 0.00000E+00 0.00000E+00 0.00000E+00 0.00000E+00 0.00000E+00 5.77700E-19 9.43657E-03 2.53653E-02
      638  5.07211E-07 8.72922E-07-3.47231E-05 0.00000E+00 0.00000E+00 0.00000E+00 0.00000E+00 0.00000E+00 0.00000E+00 1.02522E-02 4.17027E-03 2.53653E-02
      639  4.81482E-07 8.11233E-07-3.47231E-05 0.00000E+00 0.00000E+00 0.00000E+00 0.00000E+00 0.00000E+00 0.00000E+00 1.10118E-02 4.46951E-03 2.53653E-02
      641  6.53901E-07 1.22168E-06-3.47231E-05 0.00000E+00 0.00000E+00 0.00000E+00 0.00000E+00 0.00000E+00 0.00000E+00 7.83205E-03 7.82112E-03 2.53653E-02
      642  8.28803E-07 1.35066E-06-3.47231E-05 0.00000E+00 0.00000E+00 0.00000E+00 0.00000E+00 0.00000E+00 0.00000E+00 8.41073E-03 8.39735E-03 2.53653E-02
      644  4.91668E-07 1.45852E-06-3.47231E-05 0.00000E+00 0.00000E+00 0.00000E+00 0.00000E+00 0.00000E+00 0.00000E+00 4.18119E-03 1.02486E-02 2.53653E-02
      645  3.49662E-07 1.22767E-06-3.47231E-05 0.00000E+00 0.00000E+00 0.00000E+00 0.00000E+00 0.00000E+00 0.00000E+00 4.48255E-03 1.10070E-02 2.53653E-02
      647  0.00000E+00 2.04277E-06-3.47231E-05 0.00000E+00 0.00000E+00 0.00000E+00 0.00000E+00 0.00000E+00 0.00000E+00 6.77700E-19 1.10691E-02 2.53653E-02
      648  0.00000E+00 2.46407E-06-3.47231E-05 0.00000E+00 0.00000E+00 0.00000E+00 0.00000E+00 0.00000E+00 0.00000E+00 7.27700E-19 1.18861E-02 2.53653E-02
      674  2.27643E-07 1.02680E-06-3.47231E-05 0.00000E+00 0.00000E+00 0.00000E+00 0.00000E+00 0.00000E+00 0.00000E+00 7.21323E-03 2.97323E-03 2.53653E-02
      676  4.77071E-07 1.34313E-06-3.47231E-05 0.00000E+00 0.00000E+00 0.00000E+00 0.00000E+00 0.00000E+00 0.00000E+00 5.51808E-03 5.51664E-03 2.53653E-02
      678  4.37066E-07 1.86640E-06-3.47231E-05 0.00000E+00 0.00000E+00 0.00000E+00 0.00000E+00 0.00000E+00 0.00000E+00 2.97524E-03 7.21387E-03 2.53653E-02
      680  0.00000E+00 2.41344E-06-3.47231E-05 0.00000E+00 0.00000E+00 0.00000E+00 0.00000E+00 0.00000E+00 0.00000E+00 4.77700E-19 7.80381E-03 2.53653E-02
      821  4.34618E-07 9.02272E-07-3.47231E-05 0.00000E+00 0.00000E+00 0.00000E+00 0.00000E+00 0.00000E+00 0.00000E+00 9.49243E-03 3.87100E-03 2.53653E-02
      822  5.76860E-07 1.22366E-06-3.47231E-05 0.00000E+00 0.00000E+00 0.00000E+00 0.00000E+00 0.00000E+00 0.00000E+00 7.25348E-03 7.24502E-03 2.53653E-02
      823  5.05354E-07 1.56117E-06-3.47231E-05 0.00000E+00 0.00000E+00 0.00000E+00 0.00000E+00 0.00000E+00 0.00000E+00 3.87981E-03 9.48986E-03 2.53653E-02
      824  0.00000E+00 2.12904E-06-3.47231E-05 0.00000E+00 0.00000E+00 0.00000E+00 0.00000E+00 0.00000E+00 0.00000E+00 6.27700E-19 1.02528E-02 2.53653E-02
      850  1.87661E-07 7.12265E-07-3.47231E-05 0.00000E+00 0.00000E+00 0.00000E+00 0.00000E+00 0.00000E+00 0.00000E+00 1.17712E-02 4.76881E-03 2.53653E-02
      852  3.33634E-07 1.12007E-06-3.47231E-05 0.00000E+00 0.00000E+00 0.00000E+00 0.00000E+00 0.00000E+00 0.00000E+00 8.98863E-03 8.97332E-03 2.53653E-02
      854  2.86586E-07 1.63772E-06-3.47231E-05 0.00000E+00 0.00000E+00 0.00000E+00 0.00000E+00 0.00000E+00 0.00000E+00 4.78399E-03 1.17662E-02 2.53653E-02
      856  0.00000E+00 3.09100E-06-3.47231E-05 0.00000E+00 0.00000E+00 0.00000E+00 0.00000E+00 0.00000E+00 0.00000E+00 7.77700E-19 1.27031E-02 2.53653E-02



 n o d a l   p r i n t   o u t   f o r   t i m e  s t e p     565                              ( at time 4.2760201E+00 )

 nodal point  x-disp     y-disp      z-disp      x-vel       y-vel       z-vel      x-accl      y-accl      z-accl      x-coor      y-coor      z-coor
        1  1.32013E-05 0.00000E+00 0.00000E+00 0.00000E+00 0.00000E+00 0.00000E+00 0.00000E+00 0.00000E+00 0.00000E+00 3.18820E-03 0.00000E+00-1.78000E-18
        2  9.38408E-06 0.00000E+00 0.00000E+00 0.00000E+00 0.00000E+00 0.00000E+00 0.00000E+00 0.00000E+00 0.00000E+00 2.39068E-03 0.00000E+00 0.00000E+00
        3  6.08221E-06 0.00000E+00 0.00000E+00 0.00000E+00 0.00000E+00 0.00000E+00 0.00000E+00 0.00000E+00 0.00000E+00 1.59358E-03 0.00000E+00 0.00000E+00
        4  2.99329E-06 0.00000E+00 0.00000E+00 0.00000E+00 0.00000E+00 0.00000E+00 0.00000E+00 0.00000E+00 0.00000E+00 7.96743E-04 0.00000E+00 0.00000E+00
        5  0.00000E+00 0.00000E+00 0.00000E+00 0.00000E+00 0.00000E+00 0.00000E+00 0.00000E+00 0.00000E+00 0.00000E+00 0.00000E+00 0.00000E+00 0.00000E+00
        6  0.00000E+00 3.02532E-06 0.00000E+00 0.00000E+00 0.00000E+00 0.00000E+00 0.00000E+00 0.00000E+00 0.00000E+00 4.86000E-20 7.96775E-04 0.00000E+00
        7  0.00000E+00 6.35764E-06 0.00000E+00 0.00000E+00 0.00000E+00 0.00000E+00 0.00000E+00 0.00000E+00 0.00000E+00 9.72100E-20 1.59386E-03 0.00000E+00
        8  0.00000E+00 1.01912E-05 0.00000E+00 0.00000E+00 0.00000E+00 0.00000E+00 0.00000E+00 0.00000E+00 0.00000E+00 1.45800E-19 2.39149E-03 0.00000E+00
        9  0.00000E+00 1.43378E-05 0.00000E+00 0.00000E+00 0.00000E+00 0.00000E+00 0.00000E+00 0.00000E+00 0.00000E+00 1.94400E-19 3.18934E-03 0.00000E+00
       10  5.28986E-06 1.31656E-05 0.00000E+00 0.00000E+00 0.00000E+00 0.00000E+00 0.00000E+00 0.00000E+00 0.00000E+00 1.22029E-03 2.94647E-03 0.00000E+00
       11  1.04975E-05 1.14104E-05 0.00000E+00 0.00000E+00 0.00000E+00 0.00000E+00 0.00000E+00 0.00000E+00 0.00000E+00 2.25560E-03 2.25651E-03 0.00000E+00
       12  1.33562E-05 6.39452E-06 0.00000E+00 0.00000E+00 0.00000E+00 0.00000E+00 0.00000E+00 0.00000E+00 0.00000E+00 2.94666E-03 1.22139E-03 0.00000E+00
       13  6.08043E-06 6.14497E-06 0.00000E+00 0.00000E+00 0.00000E+00 0.00000E+00 0.00000E+00 0.00000E+00 0.00000E+00 1.31438E-03 1.35804E-03 0.00000E+00
       14  6.62939E-06 3.24661E-06 0.00000E+00 0.00000E+00 0.00000E+00 0.00000E+00 0.00000E+00 0.00000E+00 0.00000E+00 1.49493E-03 7.10224E-04 0.00000E+00
       15  3.01258E-06 6.15701E-06 0.00000E+00 0.00000E+00 0.00000E+00 0.00000E+00 0.00000E+00 0.00000E+00 0.00000E+00 6.72523E-04 1.51316E-03 0.00000E+00
       16  3.24117E-06 3.13395E-06 0.00000E+00 0.00000E+00 0.00000E+00 0.00000E+00 0.00000E+00 0.00000E+00 0.00000E+00 7.56879E-04 7.85471E-04 0.00000E+00
       17  8.58553E-06 8.11677E-06 0.00000E+00 0.00000E+00 0.00000E+00 0.00000E+00 0.00000E+00 0.00000E+00 0.00000E+00 1.74489E-03 1.77562E-03 0.00000E+00
       18  4.33287E-06 9.30284E-06 0.00000E+00 0.00000E+00 0.00000E+00 0.00000E+00 0.00000E+00 0.00000E+00 0.00000E+00 9.24464E-04 2.20040E-03 0.00000E+00
       19  9.99607E-06 4.21604E-06 0.00000E+00 0.00000E+00 0.00000E+00 0.00000E+00 0.00000E+00 0.00000E+00 0.00000E+00 2.17330E-03 9.55075E-04 0.00000E+00
      220  0.00000E+00 1.29791E-06-4.27602E-05 0.00000E+00 0.00000E+00 0.00000E+00 0.00000E+00 0.00000E+00 0.00000E+00 2.13900E-19 3.49380E-03 2.53572E-02
      221  8.99992E-08 9.46749E-07-4.27602E-05 0.00000E+00 0.00000E+00 0.00000E+00 0.00000E+00 0.00000E+00 0.00000E+00 1.47259E-03 3.31535E-03 2.53572E-02
      222  1.75410E-07 1.18295E-06-4.27602E-05 0.00000E+00 0.00000E+00 0.00000E+00 0.00000E+00 0.00000E+00 0.00000E+00 2.02398E-03 4.82038E-03 2.53572E-02
      223  0.00000E+00 1.81412E-06-4.27602E-05 0.00000E+00 0.00000E+00 0.00000E+00 0.00000E+00 0.00000E+00 0.00000E+00 3.20800E-19 5.24061E-03 2.53572E-02
      248  3.85412E-07 1.67981E-06-4.27602E-05 0.00000E+00 0.00000E+00 0.00000E+00 0.00000E+00 0.00000E+00 0.00000E+00 2.67379E-03 6.45488E-03 2.53572E-02
      249  0.00000E+00 2.36398E-06-4.27602E-05 0.00000E+00 0.00000E+00 0.00000E+00 0.00000E+00 0.00000E+00 0.00000E+00 4.27700E-19 6.98736E-03 2.53572E-02
      286  2.37520E-08 7.28346E-07-4.27602E-05 0.00000E+00 0.00000E+00 0.00000E+00 0.00000E+00 0.00000E+00 0.00000E+00 3.27332E-03 1.55553E-03 2.53572E-02
      287  2.23275E-07 1.06500E-06-4.27602E-05 0.00000E+00 0.00000E+00 0.00000E+00 0.00000E+00 0.00000E+00 0.00000E+00 2.87792E-03 2.97447E-03 2.53572E-02
      288  5.81179E-08 8.59151E-07-4.27602E-05 0.00000E+00 0.00000E+00 0.00000E+00 0.00000E+00 0.00000E+00 0.00000E+00 1.65776E-03 1.72166E-03 2.53572E-02
      301  3.27254E-07 1.23640E-06-4.27602E-05 0.00000E+00 0.00000E+00 0.00000E+00 0.00000E+00 0.00000E+00 0.00000E+00 3.81963E-03 3.88894E-03 2.53572E-02
      314  5.38720E-07 1.38601E-06-4.27602E-05 0.00000E+00 0.00000E+00 0.00000E+00 0.00000E+00 0.00000E+00 0.00000E+00 4.93964E-03 4.94049E-03 2.53572E-02
      363  3.04714E-07 1.11074E-06-4.27602E-05 0.00000E+00 0.00000E+00 0.00000E+00 0.00000E+00 0.00000E+00 0.00000E+00 6.45370E-03 2.67401E-03 2.53572E-02
      364  1.09024E-07 1.07980E-06-4.27602E-05 0.00000E+00 0.00000E+00 0.00000E+00 0.00000E+00 0.00000E+00 0.00000E+00 4.75821E-03 2.09228E-03 2.53572E-02
      365  2.79781E-07 0.00000E+00-4.27602E-05 0.00000E+00 0.00000E+00 0.00000E+00 0.00000E+00 0.00000E+00 0.00000E+00 5.23908E-03 0.00000E+00 2.53572E-02
      366  3.73912E-07 0.00000E+00-4.27602E-05 0.00000E+00 0.00000E+00 0.00000E+00 0.00000E+00 0.00000E+00 0.00000E+00 6.98537E-03 0.00000E+00 2.53572E-02
      379  0.00000E+00 9.77168E-07-4.27602E-05 0.00000E+00 0.00000E+00 0.00000E+00 0.00000E+00 0.00000E+00 0.00000E+00 1.06900E-19 1.74728E-03 2.53572E-02
      404 -6.83683E-10 0.00000E+00-4.27602E-05 0.00000E+00 0.00000E+00 0.00000E+00 0.00000E+00 0.00000E+00 0.00000E+00 1.74630E-03 0.00000E+00 2.53572E-02
      405  0.00000E+00 0.00000E+00-4.27602E-05 0.00000E+00 0.00000E+00 0.00000E+00 0.00000E+00 0.00000E+00 0.00000E+00 0.00000E+00 0.00000E+00 2.53572E-02
      418  1.19652E-07 0.00000E+00-4.27602E-05 0.00000E+00 0.00000E+00 0.00000E+00 0.00000E+00 0.00000E+00 0.00000E+00 3.49262E-03 0.00000E+00 2.53572E-02
      438  9.45540E-08 0.00000E+00-4.27602E-05 0.00000E+00 0.00000E+00 0.00000E+00 0.00000E+00 0.00000E+00 0.00000E+00 1.27001E-02 0.00000E+00 2.53572E-02
      439  2.24748E-07 0.00000E+00-4.27602E-05 0.00000E+00 0.00000E+00 0.00000E+00 0.00000E+00 0.00000E+00 0.00000E+00 1.18838E-02 0.00000E+00 2.53572E-02
      440  2.39999E-07 0.00000E+00-4.27602E-05 0.00000E+00 0.00000E+00 0.00000E+00 0.00000E+00 0.00000E+00 0.00000E+00 1.10673E-02 0.00000E+00 2.53572E-02
      441  2.47395E-07 0.00000E+00-4.27602E-05 0.00000E+00 0.00000E+00 0.00000E+00 0.00000E+00 0.00000E+00 0.00000E+00 1.02509E-02 0.00000E+00 2.53572E-02
      442  2.30729E-07 0.00000E+00-4.27602E-05 0.00000E+00 0.00000E+00 0.00000E+00 0.00000E+00 0.00000E+00 0.00000E+00 9.43453E-03 0.00000E+00 2.53572E-02
      443  2.05659E-07 0.00000E+00-4.27602E-05 0.00000E+00 0.00000E+00 0.00000E+00 0.00000E+00 0.00000E+00 0.00000E+00 8.61811E-03 0.00000E+00 2.53572E-02
      444  1.78411E-07 0.00000E+00-4.27602E-05 0.00000E+00 0.00000E+00 0.00000E+00 0.00000E+00 0.00000E+00 0.00000E+00 7.80158E-03 0.00000E+00 2.53572E-02
      591  4.60736E-07 1.22990E-06-4.27602E-05 0.00000E+00 0.00000E+00 0.00000E+00 0.00000E+00 0.00000E+00 0.00000E+00 7.97316E-03 3.27273E-03 2.53572E-02
      592  5.13614E-07 1.25408E-06-4.27602E-05 0.00000E+00 0.00000E+00 0.00000E+00 0.00000E+00 0.00000E+00 0.00000E+00 8.73281E-03 3.57205E-03 2.53572E-02
      595  5.43726E-07 1.29140E-06-4.27602E-05 0.00000E+00 0.00000E+00 0.00000E+00 0.00000E+00 0.00000E+00 0.00000E+00 6.09654E-03 6.09279E-03 2.53572E-02
      596  5.96142E-07 1.24926E-06-4.27602E-05 0.00000E+00 0.00000E+00 0.00000E+00 0.00000E+00 0.00000E+00 0.00000E+00 6.67510E-03 6.66885E-03 2.53572E-02
      599  4.16147E-07 1.58251E-06-4.27602E-05 0.00000E+00 0.00000E+00 0.00000E+00 0.00000E+00 0.00000E+00 0.00000E+00 3.27672E-03 7.97228E-03 2.53572E-02
      600  4.78750E-07 1.56388E-06-4.27602E-05 0.00000E+00 0.00000E+00 0.00000E+00 0.00000E+00 0.00000E+00 0.00000E+00 3.57828E-03 8.73106E-03 2.53572E-02
      603  0.00000E+00 2.15523E-06-4.27602E-05 0.00000E+00 0.00000E+00 0.00000E+00 0.00000E+00 0.00000E+00 0.00000E+00 5.27700E-19 8.62006E-03 2.53572E-02
      604  0.00000E+00 1.96727E-06-4.27602E-05 0.00000E+00 0.00000E+00 0.00000E+00 0.00000E+00 0.00000E+00 0.00000E+00 5.77700E-19 9.43627E-03 2.53572E-02
      638  6.33912E-07 1.27218E-06-4.27602E-05 0.00000E+00 0.00000E+00 0.00000E+00 0.00000E+00 0.00000E+00 0.00000E+00 1.02523E-02 4.17067E-03 2.53572E-02
      639  6.36493E-07 1.21493E-06-4.27602E-05 0.00000E+00 0.00000E+00 0.00000E+00 0.00000E+00 0.00000E+00 0.00000E+00 1.10119E-02 4.46991E-03 2.53572E-02
      641  7.09984E-07 1.19582E-06-4.27602E-05 0.00000E+00 0.00000E+00 0.00000E+00 0.00000E+00 0.00000E+00 0.00000E+00 7.83211E-03 7.82110E-03 2.53572E-02
      642  8.74949E-07 1.28350E-06-4.27602E-05 0.00000E+00 0.00000E+00 0.00000E+00 0.00000E+00 0.00000E+00 0.00000E+00 8.41077E-03 8.39728E-03 2.53572E-02
      644  4.99192E-07 1.49955E-06-4.27602E-05 0.00000E+00 0.00000E+00 0.00000E+00 0.00000E+00 0.00000E+00 0.00000E+00 4.18120E-03 1.02486E-02 2.53572E-02
      645  3.45633E-07 1.27151E-06-4.27602E-05 0.00000E+00 0.00000E+00 0.00000E+00 0.00000E+00 0.00000E+00 0.00000E+00 4.48255E-03 1.10071E-02 2.53572E-02
      647  0.00000E+00 1.89330E-06-4.27602E-05 0.00000E+00 0.00000E+00 0.00000E+00 0.00000E+00 0.00000E+00 0.00000E+00 6.77700E-19 1.10690E-02 2.53572E-02
      648  0.00000E+00 2.33955E-06-4.27602E-05 0.00000E+00 0.00000E+00 0.00000E+00 0.00000E+00 0.00000E+00 0.00000E+00 7.27700E-19 1.18859E-02 2.53572E-02
      674  4.10601E-07 1.20277E-06-4.27602E-05 0.00000E+00 0.00000E+00 0.00000E+00 0.00000E+00 0.00000E+00 0.00000E+00 7.21341E-03 2.97340E-03 2.53572E-02
      676  4.90979E-07 1.32026E-06-4.27602E-05 0.00000E+00 0.00000E+00 0.00000E+00 0.00000E+00 0.00000E+00 0.00000E+00 5.51809E-03 5.51662E-03 2.53572E-02
      678  3.72752E-07 1.66551E-06-4.27602E-05 0.00000E+00 0.00000E+00 0.00000E+00 0.00000E+00 0.00000E+00 0.00000E+00 2.97517E-03 7.21367E-03 2.53572E-02
      680  0.00000E+00 2.25261E-06-4.27602E-05 0.00000E+00 0.00000E+00 0.00000E+00 0.00000E+00 0.00000E+00 0.00000E+00 4.77700E-19 7.80365E-03 2.53572E-02
      821  5.64028E-07 1.27103E-06-4.27602E-05 0.00000E+00 0.00000E+00 0.00000E+00 0.00000E+00 0.00000E+00 0.00000E+00 9.49256E-03 3.87137E-03 2.53572E-02
      822  6.60026E-07 1.22872E-06-4.27602E-05 0.00000E+00 0.00000E+00 0.00000E+00 0.00000E+00 0.00000E+00 0.00000E+00 7.25356E-03 7.24503E-03 2.53572E-02
      823  5.04804E-07 1.52337E-06-4.27602E-05 0.00000E+00 0.00000E+00 0.00000E+00 0.00000E+00 0.00000E+00 0.00000E+00 3.87980E-03 9.48982E-03 2.53572E-02
      824  0.00000E+00 1.85944E-06-4.27602E-05 0.00000E+00 0.00000E+00 0.00000E+00 0.00000E+00 0.00000E+00 0.00000E+00 6.27700E-19 1.02526E-02 2.53572E-02
      850  3.68813E-07 1.06545E-06-4.27602E-05 0.00000E+00 0.00000E+00 0.00000E+00 0.00000E+00 0.00000E+00 0.00000E+00 1.17714E-02 4.76917E-03 2.53572E-02
      852  5.62900E-07 1.21105E-06-4.27602E-05 0.00000E+00 0.00000E+00 0.00000E+00 0.00000E+00 0.00000E+00 0.00000E+00 8.98886E-03 8.97341E-03 2.53572E-02
      854  1.58684E-07 1.46955E-06-4.27602E-05 0.00000E+00 0.00000E+00 0.00000E+00 0.00000E+00 0.00000E+00 0.00000E+00 4.78386E-03 1.17661E-02 2.53572E-02
      856  0.00000E+00 3.38850E-06-4.27602E-05 0.00000E+00 0.00000E+00 0.00000E+00 0.00000E+00 0.00000E+00 0.00000E+00 7.77700E-19 1.27034E-02 2.53572E-02



 n o d a l   p r i n t   o u t   f o r   t i m e  s t e p     575                              ( at time 5.6715718E+00 )

 nodal point  x-disp     y-disp      z-disp      x-vel       y-vel       z-vel      x-accl      y-accl      z-accl      x-coor      y-coor      z-coor
        1  2.16948E-05 0.00000E+00 0.00000E+00 0.00000E+00 0.00000E+00 0.00000E+00 0.00000E+00 0.00000E+00 0.00000E+00 3.19669E-03 0.00000E+00-1.78000E-18
        2  1.56389E-05 0.00000E+00 0.00000E+00 0.00000E+00 0.00000E+00 0.00000E+00 0.00000E+00 0.00000E+00 0.00000E+00 2.39694E-03 0.00000E+00 0.00000E+00
        3  1.04015E-05 0.00000E+00 0.00000E+00 0.00000E+00 0.00000E+00 0.00000E+00 0.00000E+00 0.00000E+00 0.00000E+00 1.59790E-03 0.00000E+00 0.00000E+00
        4  5.25198E-06 0.00000E+00 0.00000E+00 0.00000E+00 0.00000E+00 0.00000E+00 0.00000E+00 0.00000E+00 0.00000E+00 7.99002E-04 0.00000E+00 0.00000E+00
        5  0.00000E+00 0.00000E+00 0.00000E+00 0.00000E+00 0.00000E+00 0.00000E+00 0.00000E+00 0.00000E+00 0.00000E+00 0.00000E+00 0.00000E+00 0.00000E+00
        6  0.00000E+00 5.07711E-06 0.00000E+00 0.00000E+00 0.00000E+00 0.00000E+00 0.00000E+00 0.00000E+00 0.00000E+00 4.86000E-20 7.98827E-04 0.00000E+00
        7  0.00000E+00 1.05320E-05 0.00000E+00 0.00000E+00 0.00000E+00 0.00000E+00 0.00000E+00 0.00000E+00 0.00000E+00 9.72100E-20 1.59803E-03 0.00000E+00
        8  0.00000E+00 1.66571E-05 0.00000E+00 0.00000E+00 0.00000E+00 0.00000E+00 0.00000E+00 0.00000E+00 0.00000E+00 1.45800E-19 2.39796E-03 0.00000E+00
        9  0.00000E+00 2.31317E-05 0.00000E+00 0.00000E+00 0.00000E+00 0.00000E+00 0.00000E+00 0.00000E+00 0.00000E+00 1.94400E-19 3.19813E-03 0.00000E+00
       10  9.10927E-06 2.17568E-05 0.00000E+00 0.00000E+00 0.00000E+00 0.00000E+00 0.00000E+00 0.00000E+00 0.00000E+00 1.22411E-03 2.95506E-03 0.00000E+00
       11  1.78213E-05 1.86892E-05 0.00000E+00 0.00000E+00 0.00000E+00 0.00000E+00 0.00000E+00 0.00000E+00 0.00000E+00 2.26292E-03 2.26379E-03 0.00000E+00
       12  2.23777E-05 1.04223E-05 0.00000E+00 0.00000E+00 0.00000E+00 0.00000E+00 0.00000E+00 0.00000E+00 0.00000E+00 2.95568E-03 1.22542E-03 0.00000E+00
       13  1.07673E-05 1.07638E-05 0.00000E+00 0.00000E+00 0.00000E+00 0.00000E+00 0.00000E+00 0.00000E+00 0.00000E+00 1.31907E-03 1.36266E-03 0.00000E+00
       14  1.16493E-05 5.77050E-06 0.00000E+00 0.00000E+00 0.00000E+00 0.00000E+00 0.00000E+00 0.00000E+00 0.00000E+00 1.49995E-03 7.12747E-04 0.00000E+00
       15  5.35773E-06 1.04304E-05 0.00000E+00 0.00000E+00 0.00000E+00 0.00000E+00 0.00000E+00 0.00000E+00 0.00000E+00 6.74868E-04 1.51743E-03 0.00000E+00
       16  5.77382E-06 5.31345E-06 0.00000E+00 0.00000E+00 0.00000E+00 0.00000E+00 0.00000E+00 0.00000E+00 0.00000E+00 7.59411E-04 7.87651E-04 0.00000E+00
       17  1.47691E-05 1.38723E-05 0.00000E+00 0.00000E+00 0.00000E+00 0.00000E+00 0.00000E+00 0.00000E+00 0.00000E+00 1.75107E-03 1.78137E-03 0.00000E+00
       18  7.46040E-06 1.56010E-05 0.00000E+00 0.00000E+00 0.00000E+00 0.00000E+00 0.00000E+00 0.00000E+00 0.00000E+00 9.27591E-04 2.20670E-03 0.00000E+00
       19  1.71011E-05 7.27001E-06 0.00000E+00 0.00000E+00 0.00000E+00 0.00000E+00 0.00000E+00 0.00000E+00 0.00000E+00 2.18040E-03 9.58129E-04 0.00000E+00
      220  0.00000E+00 1.62043E-06-5.67157E-05 0.00000E+00 0.00000E+00 0.00000E+00 0.00000E+00 0.00000E+00 0.00000E+00 2.13900E-19 3.49412E-03 2.53433E-02
      221  8.17574E-08 9.96849E-07-5.67157E-05 0.00000E+00 0.00000E+00 0.00000E+00 0.00000E+00 0.00000E+00 0.00000E+00 1.47258E-03 3.31540E-03 2.53433E-02
      222  1.38934E-07 1.19017E-06-5.67157E-05 0.00000E+00 0.00000E+00 0.00000E+00 0.00000E+00 0.00000E+00 0.00000E+00 2.02394E-03 4.82039E-03 2.53433E-02
      223  0.00000E+00 2.24138E-06-5.67157E-05 0.00000E+00 0.00000E+00 0.00000E+00 0.00000E+00 0.00000E+00 0.00000E+00 3.20800E-19 5.24104E-03 2.53433E-02
      248  3.21581E-07 1.63095E-06-5.67157E-05 0.00000E+00 0.00000E+00 0.00000E+00 0.00000E+00 0.00000E+00 0.00000E+00 2.67372E-03 6.45483E-03 2.53433E-02
      249  0.00000E+00 2.75839E-06-5.67157E-05 0.00000E+00 0.00000E+00 0.00000E+00 0.00000E+00 0.00000E+00 0.00000E+00 4.27700E-19 6.98776E-03 2.53433E-02
      286 -7.14254E-08 7.64448E-07-5.67157E-05 0.00000E+00 0.00000E+00 0.00000E+00 0.00000E+00 0.00000E+00 0.00000E+00 3.27323E-03 1.55556E-03 2.53433E-02
      287  2.21955E-07 1.04417E-06-5.67157E-05 0.00000E+00 0.00000E+00 0.00000E+00 0.00000E+00 0.00000E+00 0.00000E+00 2.87792E-03 2.97444E-03 2.53433E-02
      288 -5.90927E-08 9.74144E-07-5.67157E-05 0.00000E+00 0.00000E+00 0.00000E+00 0.00000E+00 0.00000E+00 0.00000E+00 1.65764E-03 1.72177E-03 2.53433E-02
      301  3.13396E-07 1.28373E-06-5.67157E-05 0.00000E+00 0.00000E+00 0.00000E+00 0.00000E+00 0.00000E+00 0.00000E+00 3.81961E-03 3.88898E-03 2.53433E-02
      314  5.58624E-07 1.46265E-06-5.67157E-05 0.00000E+00 0.00000E+00 0.00000E+00 0.00000E+00 0.00000E+00 0.00000E+00 4.93966E-03 4.94056E-03 2.53433E-02
      363  2.92018E-07 1.19868E-06-5.67157E-05 0.00000E+00 0.00000E+00 0.00000E+00 0.00000E+00 0.00000E+00 0.00000E+00 6.45369E-03 2.67410E-03 2.53433E-02
      364  6.37968E-08 1.19048E-06-5.67157E-05 0.00000E+00 0.00000E+00 0.00000E+00 0.00000E+00 0.00000E+00 0.00000E+00 4.75816E-03 2.09239E-03 2.53433E-02
      365  4.47875E-07 0.00000E+00-5.67157E-05 0.00000E+00 0.00000E+00 0.00000E+00 0.00000E+00 0.00000E+00 0.00000E+00 5.23925E-03 0.00000E+00 2.53433E-02
      366  5.33699E-07 0.00000E+00-5.67157E-05 0.00000E+00 0.00000E+00 0.00000E+00 0.00000E+00 0.00000E+00 0.00000E+00 6.98553E-03 0.00000E+00 2.53433E-02
      379  0.00000E+00 1.20567E-06-5.67157E-05 0.00000E+00 0.00000E+00 0.00000E+00 0.00000E+00 0.00000E+00 0.00000E+00 1.06900E-19 1.74751E-03 2.53433E-02
      404  2.04080E-07 0.00000E+00-5.67157E-05 0.00000E+00 0.00000E+00 0.00000E+00 0.00000E+00 0.00000E+00 0.00000E+00 1.74650E-03 0.00000E+00 2.53433E-02
      405  0.00000E+00 0.00000E+00-5.67157E-05 0.00000E+00 0.00000E+00 0.00000E+00 0.00000E+00 0.00000E+00 0.00000E+00 0.00000E+00 0.00000E+00 2.53433E-02
      418  2.99749E-07 0.00000E+00-5.67157E-05 0.00000E+00 0.00000E+00 0.00000E+00 0.00000E+00 0.00000E+00 0.00000E+00 3.49280E-03 0.00000E+00 2.53433E-02
      438  1.13240E-07 0.00000E+00-5.67157E-05 0.00000E+00 0.00000E+00 0.00000E+00 0.00000E+00 0.00000E+00 0.00000E+00 1.27001E-02 0.00000E+00 2.53433E-02
      439  2.54476E-07 0.00000E+00-5.67157E-05 0.00000E+00 0.00000E+00 0.00000E+00 0.00000E+00 0.00000E+00 0.00000E+00 1.18839E-02 0.00000E+00 2.53433E-02
      440  2.69938E-07 0.00000E+00-5.67157E-05 0.00000E+00 0.00000E+00 0.00000E+00 0.00000E+00 0.00000E+00 0.00000E+00 1.10674E-02 0.00000E+00 2.53433E-02
      441  2.79798E-07 0.00000E+00-5.67157E-05 0.00000E+00 0.00000E+00 0.00000E+00 0.00000E+00 0.00000E+00 0.00000E+00 1.02510E-02 0.00000E+00 2.53433E-02
      442  2.71503E-07 0.00000E+00-5.67157E-05 0.00000E+00 0.00000E+00 0.00000E+00 0.00000E+00 0.00000E+00 0.00000E+00 9.43457E-03 0.00000E+00 2.53433E-02
      443  2.64339E-07 0.00000E+00-5.67157E-05 0.00000E+00 0.00000E+00 0.00000E+00 0.00000E+00 0.00000E+00 0.00000E+00 8.61816E-03 0.00000E+00 2.53433E-02
      444  2.83147E-07 0.00000E+00-5.67157E-05 0.00000E+00 0.00000E+00 0.00000E+00 0.00000E+00 0.00000E+00 0.00000E+00 7.80168E-03 0.00000E+00 2.53433E-02
      591  4.75811E-07 1.33400E-06-5.67157E-05 0.00000E+00 0.00000E+00 0.00000E+00 0.00000E+00 0.00000E+00 0.00000E+00 7.97318E-03 3.27283E-03 2.53433E-02
      592  5.29620E-07 1.35918E-06-5.67157E-05 0.00000E+00 0.00000E+00 0.00000E+00 0.00000E+00 0.00000E+00 0.00000E+00 8.73283E-03 3.57216E-03 2.53433E-02
      595  5.75225E-07 1.35376E-06-5.67157E-05 0.00000E+00 0.00000E+00 0.00000E+00 0.00000E+00 0.00000E+00 0.00000E+00 6.09658E-03 6.09285E-03 2.53433E-02
      596  6.31729E-07 1.31845E-06-5.67157E-05 0.00000E+00 0.00000E+00 0.00000E+00 0.00000E+00 0.00000E+00 0.00000E+00 6.67513E-03 6.66892E-03 2.53433E-02
      599  4.23026E-07 1.64350E-06-5.67157E-05 0.00000E+00 0.00000E+00 0.00000E+00 0.00000E+00 0.00000E+00 0.00000E+00 3.27672E-03 7.97234E-03 2.53433E-02
      600  4.91932E-07 1.63753E-06-5.67157E-05 0.00000E+00 0.00000E+00 0.00000E+00 0.00000E+00 0.00000E+00 0.00000E+00 3.57829E-03 8.73114E-03 2.53433E-02
      603  0.00000E+00 2.30991E-06-5.67157E-05 0.00000E+00 0.00000E+00 0.00000E+00 0.00000E+00 0.00000E+00 0.00000E+00 5.27700E-19 8.62021E-03 2.53433E-02
      604  0.00000E+00 2.09454E-06-5.67157E-05 0.00000E+00 0.00000E+00 0.00000E+00 0.00000E+00 0.00000E+00 0.00000E+00 5.77700E-19 9.43639E-03 2.53433E-02
      638  6.52409E-07 1.37527E-06-5.67157E-05 0.00000E+00 0.00000E+00 0.00000E+00 0.00000E+00 0.00000E+00 0.00000E+00 1.02524E-02 4.17078E-03 2.53433E-02
      639  6.51547E-07 1.31768E-06-5.67157E-05 0.00000E+00 0.00000E+00 0.00000E+00 0.00000E+00 0.00000E+00 0.00000E+00 1.10120E-02 4.47002E-03 2.53433E-02
      641  7.47118E-07 1.27274E-06-5.67157E-05 0.00000E+00 0.00000E+00 0.00000E+00 0.00000E+00 0.00000E+00 0.00000E+00 7.83215E-03 7.82117E-03 2.53433E-02
      642  9.14239E-07 1.36130E-06-5.67157E-05 0.00000E+00 0.00000E+00 0.00000E+00 0.00000E+00 0.00000E+00 0.00000E+00 8.41081E-03 8.39736E-03 2.53433E-02
      644  5.19249E-07 1.56800E-06-5.67157E-05 0.00000E+00 0.00000E+00 0.00000E+00 0.00000E+00 0.00000E+00 0.00000E+00 4.18122E-03 1.02487E-02 2.53433E-02
      645  3.71419E-07 1.35475E-06-5.67157E-05 0.00000E+00 0.00000E+00 0.00000E+00 0.00000E+00 0.00000E+00 0.00000E+00 4.48257E-03 1.10072E-02 2.53433E-02
      647  0.00000E+00 2.00062E-06-5.67157E-05 0.00000E+00 0.00000E+00 0.00000E+00 0.00000E+00 0.00000E+00 0.00000E+00 6.77700E-19 1.10691E-02 2.53433E-02
      648  0.00000E+00 2.40436E-06-5.67157E-05 0.00000E+00 0.00000E+00 0.00000E+00 0.00000E+00 0.00000E+00 0.00000E+00 7.27700E-19 1.18860E-02 2.53433E-02
      674  4.17170E-07 1.30241E-06-5.67157E-05 0.00000E+00 0.00000E+00 0.00000E+00 0.00000E+00 0.00000E+00 0.00000E+00 7.21342E-03 2.97350E-03 2.53433E-02
      676  5.23628E-07 1.38484E-06-5.67157E-05 0.00000E+00 0.00000E+00 0.00000E+00 0.00000E+00 0.00000E+00 0.00000E+00 5.51812E-03 5.51668E-03 2.53433E-02
      678  3.52923E-07 1.67980E-06-5.67157E-05 0.00000E+00 0.00000E+00 0.00000E+00 0.00000E+00 0.00000E+00 0.00000E+00 2.97515E-03 7.21368E-03 2.53433E-02
      680  0.00000E+00 2.48633E-06-5.67157E-05 0.00000E+00 0.00000E+00 0.00000E+00 0.00000E+00 0.00000E+00 0.00000E+00 4.77700E-19 7.80389E-03 2.53433E-02
      821  5.86100E-07 1.37696E-06-5.67157E-05 0.00000E+00 0.00000E+00 0.00000E+00 0.00000E+00 0.00000E+00 0.00000E+00 9.49259E-03 3.87148E-03 2.53433E-02
      822  6.89442E-07 1.29295E-06-5.67157E-05 0.00000E+00 0.00000E+00 0.00000E+00 0.00000E+00 0.00000E+00 0.00000E+00 7.25359E-03 7.24509E-03 2.53433E-02
      823  5.31351E-07 1.61619E-06-5.67157E-05 0.00000E+00 0.00000E+00 0.00000E+00 0.00000E+00 0.00000E+00 0.00000E+00 3.87983E-03 9.48992E-03 2.53433E-02
      824  0.00000E+00 1.94433E-06-5.67157E-05 0.00000E+00 0.00000E+00 0.00000E+00 0.00000E+00 0.00000E+00 0.00000E+00 6.27700E-19 1.02526E-02 2.53433E-02
      850  3.94834E-07 1.16816E-06-5.67157E-05 0.00000E+00 0.00000E+00 0.00000E+00 0.00000E+00 0.00000E+00 0.00000E+00 1.17714E-02 4.76927E-03 2.53433E-02
      852  5.69002E-07 1.26070E-06-5.67157E-05 0.00000E+00 0.00000E+00 0.00000E+00 0.00000E+00 0.00000E+00 0.00000E+00 8.98887E-03 8.97346E-03 2.53433E-02
      854  2.10689E-07 1.62100E-06-5.67157E-05 0.00000E+00 0.00000E+00 0.00000E+00 0.00000E+00 0.00000E+00 0.00000E+00 4.78391E-03 1.17662E-02 2.53433E-02
      856  0.00000E+00 3.39213E-06-5.67157E-05 0.00000E+00 0.00000E+00 0.00000E+00 0.00000E+00 0.00000E+00 0.00000E+00 7.77700E-19 1.27034E-02 2.53433E-02



 n o d a l   p r i n t   o u t   f o r   t i m e  s t e p     581                              ( at time 7.0277081E+00 )

 nodal point  x-disp     y-disp      z-disp      x-vel       y-vel       z-vel      x-accl      y-accl      z-accl      x-coor      y-coor      z-coor
        1  3.02619E-05 0.00000E+00 0.00000E+00 0.00000E+00 0.00000E+00 0.00000E+00 0.00000E+00 0.00000E+00 0.00000E+00 3.20526E-03 0.00000E+00-1.78000E-18
        2  2.17360E-05 0.00000E+00 0.00000E+00 0.00000E+00 0.00000E+00 0.00000E+00 0.00000E+00 0.00000E+00 0.00000E+00 2.40304E-03 0.00000E+00 0.00000E+00
        3  1.45092E-05 0.00000E+00 0.00000E+00 0.00000E+00 0.00000E+00 0.00000E+00 0.00000E+00 0.00000E+00 0.00000E+00 1.60201E-03 0.00000E+00 0.00000E+00
        4  7.39385E-06 0.00000E+00 0.00000E+00 0.00000E+00 0.00000E+00 0.00000E+00 0.00000E+00 0.00000E+00 0.00000E+00 8.01144E-04 0.00000E+00 0.00000E+00
        5  0.00000E+00 0.00000E+00 0.00000E+00 0.00000E+00 0.00000E+00 0.00000E+00 0.00000E+00 0.00000E+00 0.00000E+00 0.00000E+00 0.00000E+00 0.00000E+00
        6  0.00000E+00 7.05796E-06 0.00000E+00 0.00000E+00 0.00000E+00 0.00000E+00 0.00000E+00 0.00000E+00 0.00000E+00 4.86000E-20 8.00808E-04 0.00000E+00
        7  0.00000E+00 1.45451E-05 0.00000E+00 0.00000E+00 0.00000E+00 0.00000E+00 0.00000E+00 0.00000E+00 0.00000E+00 9.72100E-20 1.60205E-03 0.00000E+00
        8  0.00000E+00 2.30333E-05 0.00000E+00 0.00000E+00 0.00000E+00 0.00000E+00 0.00000E+00 0.00000E+00 0.00000E+00 1.45800E-19 2.40433E-03 0.00000E+00
        9  0.00000E+00 3.18734E-05 0.00000E+00 0.00000E+00 0.00000E+00 0.00000E+00 0.00000E+00 0.00000E+00 0.00000E+00 1.94400E-19 3.20687E-03 0.00000E+00
       10  1.31077E-05 3.02001E-05 0.00000E+00 0.00000E+00 0.00000E+00 0.00000E+00 0.00000E+00 0.00000E+00 0.00000E+00 1.22811E-03 2.96350E-03 0.00000E+00
       11  2.48890E-05 2.57564E-05 0.00000E+00 0.00000E+00 0.00000E+00 0.00000E+00 0.00000E+00 0.00000E+00 0.00000E+00 2.26999E-03 2.27086E-03 0.00000E+00
       12  3.12373E-05 1.42113E-05 0.00000E+00 0.00000E+00 0.00000E+00 0.00000E+00 0.00000E+00 0.00000E+00 0.00000E+00 2.96454E-03 1.22921E-03 0.00000E+00
       13  1.52406E-05 1.51946E-05 0.00000E+00 0.00000E+00 0.00000E+00 0.00000E+00 0.00000E+00 0.00000E+00 0.00000E+00 1.32354E-03 1.36709E-03 0.00000E+00
       14  1.64194E-05 8.15090E-06 0.00000E+00 0.00000E+00 0.00000E+00 0.00000E+00 0.00000E+00 0.00000E+00 0.00000E+00 1.50472E-03 7.15128E-04 0.00000E+00
       15  7.62161E-06 1.46220E-05 0.00000E+00 0.00000E+00 0.00000E+00 0.00000E+00 0.00000E+00 0.00000E+00 0.00000E+00 6.77132E-04 1.52162E-03 0.00000E+00
       16  8.15950E-06 7.44008E-06 0.00000E+00 0.00000E+00 0.00000E+00 0.00000E+00 0.00000E+00 0.00000E+00 0.00000E+00 7.61797E-04 7.89777E-04 0.00000E+00
       17  2.07287E-05 1.94904E-05 0.00000E+00 0.00000E+00 0.00000E+00 0.00000E+00 0.00000E+00 0.00000E+00 0.00000E+00 1.75703E-03 1.78699E-03 0.00000E+00
       18  1.05972E-05 2.18574E-05 0.00000E+00 0.00000E+00 0.00000E+00 0.00000E+00 0.00000E+00 0.00000E+00 0.00000E+00 9.30728E-04 2.21296E-03 0.00000E+00
       19  2.39359E-05 1.02625E-05 0.00000E+00 0.00000E+00 0.00000E+00 0.00000E+00 0.00000E+00 0.00000E+00 0.00000E+00 2.18724E-03 9.61121E-04 0.00000E+00
[...]
      220  0.00000E+00 2.04015E-06-9.95465E-04 0.00000E+00 0.00000E+00 0.00000E+00 0.00000E+00 0.00000E+00 0.00000E+00 2.13900E-19 3.49454E-03 2.44045E-02
      221  1.01402E-07 1.01904E-06-9.95465E-04 0.00000E+00 0.00000E+00 0.00000E+00 0.00000E+00 0.00000E+00 0.00000E+00 1.47260E-03 3.31542E-03 2.44045E-02
      222  1.20098E-07 1.18721E-06-9.95465E-04 0.00000E+00 0.00000E+00 0.00000E+00 0.00000E+00 0.00000E+00 0.00000E+00 2.02392E-03 4.82039E-03 2.44045E-02
      223  0.00000E+00 2.72071E-06-9.95465E-04 0.00000E+00 0.00000E+00 0.00000E+00 0.00000E+00 0.00000E+00 0.00000E+00 3.20800E-19 5.24152E-03 2.44045E-02
      248  2.71639E-07 1.58263E-06-9.95465E-04 0.00000E+00 0.00000E+00 0.00000E+00 0.00000E+00 0.00000E+00 0.00000E+00 2.67367E-03 6.45478E-03 2.44045E-02
      249  0.00000E+00 3.30437E-06-9.95465E-04 0.00000E+00 0.00000E+00 0.00000E+00 0.00000E+00 0.00000E+00 0.00000E+00 4.27700E-19 6.98830E-03 2.44045E-02
      286 -1.41122E-07 6.03542E-07-9.95465E-04 0.00000E+00 0.00000E+00 0.00000E+00 0.00000E+00 0.00000E+00 0.00000E+00 3.27316E-03 1.55540E-03 2.44045E-02
      287  2.18475E-07 7.73052E-07-9.95465E-04 0.00000E+00 0.00000E+00 0.00000E+00 0.00000E+00 0.00000E+00 0.00000E+00 2.87792E-03 2.97417E-03 2.44045E-02
      288 -2.11764E-08 4.94128E-07-9.95465E-04 0.00000E+00 0.00000E+00 0.00000E+00 0.00000E+00 0.00000E+00 0.00000E+00 1.65768E-03 1.72129E-03 2.44045E-02
      301  2.91294E-07 1.44084E-06-9.95465E-04 0.00000E+00 0.00000E+00 0.00000E+00 0.00000E+00 0.00000E+00 0.00000E+00 3.81959E-03 3.88914E-03 2.44045E-02
      314  5.42966E-07 1.60473E-06-9.95465E-04 0.00000E+00 0.00000E+00 0.00000E+00 0.00000E+00 0.00000E+00 0.00000E+00 4.93964E-03 4.94070E-03 2.44045E-02
      363  1.62437E-07 1.33982E-06-9.95465E-04 0.00000E+00 0.00000E+00 0.00000E+00 0.00000E+00 0.00000E+00 0.00000E+00 6.45356E-03 2.67424E-03 2.44045E-02
      364 -2.55498E-07 1.22686E-06-9.95465E-04 0.00000E+00 0.00000E+00 0.00000E+00 0.00000E+00 0.00000E+00 0.00000E+00 4.75784E-03 2.09243E-03 2.44045E-02
      365  1.00287E-06 0.00000E+00-9.95465E-04 0.00000E+00 0.00000E+00 0.00000E+00 0.00000E+00 0.00000E+00 0.00000E+00 5.23980E-03 0.00000E+00 2.44045E-02
      366  6.38486E-07 0.00000E+00-9.95465E-04 0.00000E+00 0.00000E+00 0.00000E+00 0.00000E+00 0.00000E+00 0.00000E+00 6.98564E-03 0.00000E+00 2.44045E-02
      379  0.00000E+00 1.21433E-06-9.95465E-04 0.00000E+00 0.00000E+00 0.00000E+00 0.00000E+00 0.00000E+00 0.00000E+00 1.06900E-19 1.74751E-03 2.44045E-02
      404  1.11332E-06 0.00000E+00-9.95465E-04 0.00000E+00 0.00000E+00 0.00000E+00 0.00000E+00 0.00000E+00 0.00000E+00 1.74741E-03 0.00000E+00 2.44045E-02
      405  0.00000E+00 0.00000E+00-9.95465E-04 0.00000E+00 0.00000E+00 0.00000E+00 0.00000E+00 0.00000E+00 0.00000E+00 0.00000E+00 0.00000E+00 2.44045E-02
      418  1.35675E-06 0.00000E+00-9.95465E-04 0.00000E+00 0.00000E+00 0.00000E+00 0.00000E+00 0.00000E+00 0.00000E+00 3.49386E-03 0.00000E+00 2.44045E-02
      438 -2.12264E-07 0.00000E+00-9.95465E-04 0.00000E+00 0.00000E+00 0.00000E+00 0.00000E+00 0.00000E+00 0.00000E+00 1.26998E-02 0.00000E+00 2.44045E-02
      439 -9.90264E-09 0.00000E+00-9.95465E-04 0.00000E+00 0.00000E+00 0.00000E+00 0.00000E+00 0.00000E+00 0.00000E+00 1.18836E-02 0.00000E+00 2.44045E-02
      440  2.31511E-08 0.00000E+00-9.95465E-04 0.00000E+00 0.00000E+00 0.00000E+00 0.00000E+00 0.00000E+00 0.00000E+00 1.10671E-02 0.00000E+00 2.44045E-02
      441  5.48482E-08 0.00000E+00-9.95465E-04 0.00000E+00 0.00000E+00 0.00000E+00 0.00000E+00 0.00000E+00 0.00000E+00 1.02508E-02 0.00000E+00 2.44045E-02
      442  8.78550E-08 0.00000E+00-9.95465E-04 0.00000E+00 0.00000E+00 0.00000E+00 0.00000E+00 0.00000E+00 0.00000E+00 9.43439E-03 0.00000E+00 2.44045E-02
      443  1.23475E-07 0.00000E+00-9.95465E-04 0.00000E+00 0.00000E+00 0.00000E+00 0.00000E+00 0.00000E+00 0.00000E+00 8.61802E-03 0.00000E+00 2.44045E-02
      444  2.31112E-07 0.00000E+00-9.95465E-04 0.00000E+00 0.00000E+00 0.00000E+00 0.00000E+00 0.00000E+00 0.00000E+00 7.80163E-03 0.00000E+00 2.44045E-02
      591  3.40510E-07 1.46166E-06-9.95465E-04 0.00000E+00 0.00000E+00 0.00000E+00 0.00000E+00 0.00000E+00 0.00000E+00 7.97304E-03 3.27296E-03 2.44045E-02
      592  3.62125E-07 1.43215E-06-9.95465E-04 0.00000E+00 0.00000E+00 0.00000E+00 0.00000E+00 0.00000E+00 0.00000E+00 8.73266E-03 3.57223E-03 2.44045E-02
      595  5.09733E-07 1.45830E-06-9.95465E-04 0.00000E+00 0.00000E+00 0.00000E+00 0.00000E+00 0.00000E+00 0.00000E+00 6.09651E-03 6.09296E-03 2.44045E-02
      596  5.73699E-07 1.39931E-06-9.95465E-04 0.00000E+00 0.00000E+00 0.00000E+00 0.00000E+00 0.00000E+00 0.00000E+00 6.67507E-03 6.66900E-03 2.44045E-02
      599  3.77001E-07 1.66153E-06-9.95465E-04 0.00000E+00 0.00000E+00 0.00000E+00 0.00000E+00 0.00000E+00 0.00000E+00 3.27668E-03 7.97236E-03 2.44045E-02
      600  4.36647E-07 1.60834E-06-9.95465E-04 0.00000E+00 0.00000E+00 0.00000E+00 0.00000E+00 0.00000E+00 0.00000E+00 3.57824E-03 8.73111E-03 2.44045E-02
      603  0.00000E+00 2.63770E-06-9.95465E-04 0.00000E+00 0.00000E+00 0.00000E+00 0.00000E+00 0.00000E+00 0.00000E+00 5.27700E-19 8.62054E-03 2.44045E-02
      604  0.00000E+00 2.38093E-06-9.95465E-04 0.00000E+00 0.00000E+00 0.00000E+00 0.00000E+00 0.00000E+00 0.00000E+00 5.77700E-19 9.43668E-03 2.44045E-02
      638  4.65773E-07 1.36960E-06-9.95465E-04 0.00000E+00 0.00000E+00 0.00000E+00 0.00000E+00 0.00000E+00 0.00000E+00 1.02522E-02 4.17077E-03 2.44045E-02
      639  4.30322E-07 1.27779E-06-9.95465E-04 0.00000E+00 0.00000E+00 0.00000E+00 0.00000E+00 0.00000E+00 0.00000E+00 1.10117E-02 4.46998E-03 2.44045E-02
      641  7.02615E-07 1.31785E-06-9.95465E-04 0.00000E+00 0.00000E+00 0.00000E+00 0.00000E+00 0.00000E+00 0.00000E+00 7.83210E-03 7.82122E-03 2.44045E-02
      642  8.56144E-07 1.38835E-06-9.95465E-04 0.00000E+00 0.00000E+00 0.00000E+00 0.00000E+00 0.00000E+00 0.00000E+00 8.41076E-03 8.39739E-03 2.44045E-02
      644  4.62681E-07 1.49405E-06-9.95465E-04 0.00000E+00 0.00000E+00 0.00000E+00 0.00000E+00 0.00000E+00 0.00000E+00 4.18116E-03 1.02486E-02 2.44045E-02
      645  3.04085E-07 1.31224E-06-9.95465E-04 0.00000E+00 0.00000E+00 0.00000E+00 0.00000E+00 0.00000E+00 0.00000E+00 4.48250E-03 1.10071E-02 2.44045E-02
      647  0.00000E+00 2.19619E-06-9.95465E-04 0.00000E+00 0.00000E+00 0.00000E+00 0.00000E+00 0.00000E+00 0.00000E+00 6.77700E-19 1.10693E-02 2.44045E-02
      648  0.00000E+00 2.65458E-06-9.95465E-04 0.00000E+00 0.00000E+00 0.00000E+00 0.00000E+00 0.00000E+00 0.00000E+00 7.27700E-19 1.18863E-02 2.44045E-02
      674  3.05934E-07 1.45990E-06-9.95465E-04 0.00000E+00 0.00000E+00 0.00000E+00 0.00000E+00 0.00000E+00 0.00000E+00 7.21331E-03 2.97366E-03 2.44045E-02
      676  4.49072E-07 1.51341E-06-9.95465E-04 0.00000E+00 0.00000E+00 0.00000E+00 0.00000E+00 0.00000E+00 0.00000E+00 5.51805E-03 5.51681E-03 2.44045E-02
      678  3.19323E-07 1.71220E-06-9.95465E-04 0.00000E+00 0.00000E+00 0.00000E+00 0.00000E+00 0.00000E+00 0.00000E+00 2.97512E-03 7.21371E-03 2.44045E-02
      680  0.00000E+00 2.97265E-06-9.95465E-04 0.00000E+00 0.00000E+00 0.00000E+00 0.00000E+00 0.00000E+00 0.00000E+00 4.77700E-19 7.80437E-03 2.44045E-02
      821  4.12049E-07 1.40329E-06-9.95465E-04 0.00000E+00 0.00000E+00 0.00000E+00 0.00000E+00 0.00000E+00 0.00000E+00 9.49241E-03 3.87150E-03 2.44045E-02
      822  6.30583E-07 1.34070E-06-9.95465E-04 0.00000E+00 0.00000E+00 0.00000E+00 0.00000E+00 0.00000E+00 0.00000E+00 7.25353E-03 7.24514E-03 2.44045E-02
      823  4.79152E-07 1.56401E-06-9.95465E-04 0.00000E+00 0.00000E+00 0.00000E+00 0.00000E+00 0.00000E+00 0.00000E+00 3.87978E-03 9.48986E-03 2.44045E-02
      824  0.00000E+00 2.20429E-06-9.95465E-04 0.00000E+00 0.00000E+00 0.00000E+00 0.00000E+00 0.00000E+00 0.00000E+00 6.27700E-19 1.02529E-02 2.44045E-02
      850  1.57938E-07 1.10545E-06-9.95465E-04 0.00000E+00 0.00000E+00 0.00000E+00 0.00000E+00 0.00000E+00 0.00000E+00 1.17712E-02 4.76921E-03 2.44045E-02
      852  3.27079E-07 1.17302E-06-9.95465E-04 0.00000E+00 0.00000E+00 0.00000E+00 0.00000E+00 0.00000E+00 0.00000E+00 8.98863E-03 8.97337E-03 2.44045E-02
      854  2.62207E-07 1.74755E-06-9.95465E-04 0.00000E+00 0.00000E+00 0.00000E+00 0.00000E+00 0.00000E+00 0.00000E+00 4.78396E-03 1.17663E-02 2.44045E-02
      856  0.00000E+00 3.51485E-06-9.95465E-04 0.00000E+00 0.00000E+00 0.00000E+00 0.00000E+00 0.00000E+00 0.00000E+00 7.77700E-19 1.27035E-02 2.44045E-02



 n o d a l   p r i n t   o u t   f o r   t i m e  s t e p     885                              ( at time 1.0000000E+02 )

 nodal point  x-disp     y-disp      z-disp      x-vel       y-vel       z-vel      x-accl      y-accl      z-accl      x-coor      y-coor      z-coor
        1  8.03176E-04 0.00000E+00 0.00000E+00 0.00000E+00 0.00000E+00 0.00000E+00 0.00000E+00 0.00000E+00 0.00000E+00 3.97818E-03 0.00000E+00-1.78000E-18
        2  5.77682E-04 0.00000E+00 0.00000E+00 0.00000E+00 0.00000E+00 0.00000E+00 0.00000E+00 0.00000E+00 0.00000E+00 2.95898E-03 0.00000E+00 0.00000E+00
        3  3.66603E-04 0.00000E+00 0.00000E+00 0.00000E+00 0.00000E+00 0.00000E+00 0.00000E+00 0.00000E+00 0.00000E+00 1.95410E-03 0.00000E+00 0.00000E+00
        4  1.67474E-04 0.00000E+00 0.00000E+00 0.00000E+00 0.00000E+00 0.00000E+00 0.00000E+00 0.00000E+00 0.00000E+00 9.61224E-04 0.00000E+00 0.00000E+00
        5  0.00000E+00 0.00000E+00 0.00000E+00 0.00000E+00 0.00000E+00 0.00000E+00 0.00000E+00 0.00000E+00 0.00000E+00 0.00000E+00 0.00000E+00 0.00000E+00
        6  0.00000E+00 1.78664E-04 0.00000E+00 0.00000E+00 0.00000E+00 0.00000E+00 0.00000E+00 0.00000E+00 0.00000E+00 4.86000E-20 9.72414E-04 0.00000E+00
        7  0.00000E+00 3.68923E-04 0.00000E+00 0.00000E+00 0.00000E+00 0.00000E+00 0.00000E+00 0.00000E+00 0.00000E+00 9.72100E-20 1.95642E-03 0.00000E+00
        8  0.00000E+00 5.35076E-04 0.00000E+00 0.00000E+00 0.00000E+00 0.00000E+00 0.00000E+00 0.00000E+00 0.00000E+00 1.45800E-19 2.91638E-03 0.00000E+00
        9  0.00000E+00 6.89163E-04 0.00000E+00 0.00000E+00 0.00000E+00 0.00000E+00 0.00000E+00 0.00000E+00 0.00000E+00 1.94400E-19 3.86416E-03 0.00000E+00
       10  2.81998E-04 6.53838E-04 0.00000E+00 0.00000E+00 0.00000E+00 0.00000E+00 0.00000E+00 0.00000E+00 0.00000E+00 1.49700E-03 3.58714E-03 0.00000E+00
       11  5.13870E-04 5.25960E-04 0.00000E+00 0.00000E+00 0.00000E+00 0.00000E+00 0.00000E+00 0.00000E+00 0.00000E+00 2.75897E-03 2.77106E-03 0.00000E+00
       12  7.31374E-04 3.52815E-04 0.00000E+00 0.00000E+00 0.00000E+00 0.00000E+00 0.00000E+00 0.00000E+00 0.00000E+00 3.66467E-03 1.56781E-03 0.00000E+00
       13  3.72617E-04 3.51460E-04 0.00000E+00 0.00000E+00 0.00000E+00 0.00000E+00 0.00000E+00 0.00000E+00 0.00000E+00 1.68092E-03 1.70336E-03 0.00000E+00
       14  4.02093E-04 2.02317E-04 0.00000E+00 0.00000E+00 0.00000E+00 0.00000E+00 0.00000E+00 0.00000E+00 0.00000E+00 1.89039E-03 9.09294E-04 0.00000E+00
       15  1.96388E-04 3.82275E-04 0.00000E+00 0.00000E+00 0.00000E+00 0.00000E+00 0.00000E+00 0.00000E+00 0.00000E+00 8.65899E-04 1.88927E-03 0.00000E+00
       16  2.15844E-04 2.06533E-04 0.00000E+00 0.00000E+00 0.00000E+00 0.00000E+00 0.00000E+00 0.00000E+00 0.00000E+00 9.69482E-04 9.88871E-04 0.00000E+00
       17  4.50327E-04 4.33964E-04 0.00000E+00 0.00000E+00 0.00000E+00 0.00000E+00 0.00000E+00 0.00000E+00 0.00000E+00 2.18663E-03 2.20146E-03 0.00000E+00
       18  2.37300E-04 5.23420E-04 0.00000E+00 0.00000E+00 0.00000E+00 0.00000E+00 0.00000E+00 0.00000E+00 0.00000E+00 1.15743E-03 2.71452E-03 0.00000E+00
       19  5.71614E-04 2.36726E-04 0.00000E+00 0.00000E+00 0.00000E+00 0.00000E+00 0.00000E+00 0.00000E+00 0.00000E+00 2.73491E-03 1.18758E-03 0.00000E+00
      220  0.00000E+00 2.06210E-06-1.00000E-03 0.00000E+00 0.00000E+00 0.00000E+00 0.00000E+00 0.00000E+00 0.00000E+00 2.13900E-19 3.49456E-03 2.44000E-02
      221  1.46701E-07 1.05143E-06-1.00000E-03 0.00000E+00 0.00000E+00 0.00000E+00 0.00000E+00 0.00000E+00 0.00000E+00 1.47265E-03 3.31545E-03 2.44000E-02
      222  1.55394E-07 1.24492E-06-1.00000E-03 0.00000E+00 0.00000E+00 0.00000E+00 0.00000E+00 0.00000E+00 0.00000E+00 2.02396E-03 4.82044E-03 2.44000E-02
      223  0.00000E+00 2.79535E-06-1.00000E-03 0.00000E+00 0.00000E+00 0.00000E+00 0.00000E+00 0.00000E+00 0.00000E+00 3.20800E-19 5.24160E-03 2.44000E-02
      248  3.40212E-07 1.72196E-06-1.00000E-03 0.00000E+00 0.00000E+00 0.00000E+00 0.00000E+00 0.00000E+00 0.00000E+00 2.67374E-03 6.45492E-03 2.44000E-02
      249  0.00000E+00 3.41259E-06-1.00000E-03 0.00000E+00 0.00000E+00 0.00000E+00 0.00000E+00 0.00000E+00 0.00000E+00 4.27700E-19 6.98841E-03 2.44000E-02
      286 -3.95269E-08 5.27480E-07-1.00000E-03 0.00000E+00 0.00000E+00 0.00000E+00 0.00000E+00 0.00000E+00 0.00000E+00 3.27326E-03 1.55533E-03 2.44000E-02
      287  3.37109E-07 7.45685E-07-1.00000E-03 0.00000E+00 0.00000E+00 0.00000E+00 0.00000E+00 0.00000E+00 0.00000E+00 2.87804E-03 2.97415E-03 2.44000E-02
      288  7.48269E-08 4.70599E-07-1.00000E-03 0.00000E+00 0.00000E+00 0.00000E+00 0.00000E+00 0.00000E+00 0.00000E+00 1.65777E-03 1.72127E-03 2.44000E-02
      301  3.72645E-07 1.47792E-06-1.00000E-03 0.00000E+00 0.00000E+00 0.00000E+00 0.00000E+00 0.00000E+00 0.00000E+00 3.81967E-03 3.88918E-03 2.44000E-02
      314  6.64765E-07 1.69420E-06-1.00000E-03 0.00000E+00 0.00000E+00 0.00000E+00 0.00000E+00 0.00000E+00 0.00000E+00 4.93976E-03 4.94079E-03 2.44000E-02
      363  3.46172E-07 1.44233E-06-1.00000E-03 0.00000E+00 0.00000E+00 0.00000E+00 0.00000E+00 0.00000E+00 0.00000E+00 6.45375E-03 2.67434E-03 2.44000E-02
      364 -1.17320E-07 1.32890E-06-1.00000E-03 0.00000E+00 0.00000E+00 0.00000E+00 0.00000E+00 0.00000E+00 0.00000E+00 4.75798E-03 2.09253E-03 2.44000E-02
      365  1.28532E-06 0.00000E+00-1.00000E-03 0.00000E+00 0.00000E+00 0.00000E+00 0.00000E+00 0.00000E+00 0.00000E+00 5.24009E-03 0.00000E+00 2.44000E-02
      366  8.94410E-07 0.00000E+00-1.00000E-03 0.00000E+00 0.00000E+00 0.00000E+00 0.00000E+00 0.00000E+00 0.00000E+00 6.98589E-03 0.00000E+00 2.44000E-02
      379  0.00000E+00 1.20491E-06-1.00000E-03 0.00000E+00 0.00000E+00 0.00000E+00 0.00000E+00 0.00000E+00 0.00000E+00 1.06900E-19 1.74750E-03 2.44000E-02
      404  1.20125E-06 0.00000E+00-1.00000E-03 0.00000E+00 0.00000E+00 0.00000E+00 0.00000E+00 0.00000E+00 0.00000E+00 1.74750E-03 0.00000E+00 2.44000E-02
      405  0.00000E+00 0.00000E+00-1.00000E-03 0.00000E+00 0.00000E+00 0.00000E+00 0.00000E+00 0.00000E+00 0.00000E+00 0.00000E+00 0.00000E+00 2.44000E-02
      418  1.73588E-06 0.00000E+00-1.00000E-03 0.00000E+00 0.00000E+00 0.00000E+00 0.00000E+00 0.00000E+00 0.00000E+00 3.49424E-03 0.00000E+00 2.44000E-02
      438  9.06122E-08 0.00000E+00-1.00000E-03 0.00000E+00 0.00000E+00 0.00000E+00 0.00000E+00 0.00000E+00 0.00000E+00 1.27001E-02 0.00000E+00 2.44000E-02
      439  2.75338E-07 0.00000E+00-1.00000E-03 0.00000E+00 0.00000E+00 0.00000E+00 0.00000E+00 0.00000E+00 0.00000E+00 1.18839E-02 0.00000E+00 2.44000E-02
      440  3.05859E-07 0.00000E+00-1.00000E-03 0.00000E+00 0.00000E+00 0.00000E+00 0.00000E+00 0.00000E+00 0.00000E+00 1.10674E-02 0.00000E+00 2.44000E-02
      441  3.31427E-07 0.00000E+00-1.00000E-03 0.00000E+00 0.00000E+00 0.00000E+00 0.00000E+00 0.00000E+00 0.00000E+00 1.02510E-02 0.00000E+00 2.44000E-02
      442  3.54014E-07 0.00000E+00-1.00000E-03 0.00000E+00 0.00000E+00 0.00000E+00 0.00000E+00 0.00000E+00 0.00000E+00 9.43465E-03 0.00000E+00 2.44000E-02
      443  3.80983E-07 0.00000E+00-1.00000E-03 0.00000E+00 0.00000E+00 0.00000E+00 0.00000E+00 0.00000E+00 0.00000E+00 8.61828E-03 0.00000E+00 2.44000E-02
      444  4.73626E-07 0.00000E+00-1.00000E-03 0.00000E+00 0.00000E+00 0.00000E+00 0.00000E+00 0.00000E+00 0.00000E+00 7.80187E-03 0.00000E+00 2.44000E-02
      591  5.59950E-07 1.56368E-06-1.00000E-03 0.00000E+00 0.00000E+00 0.00000E+00 0.00000E+00 0.00000E+00 0.00000E+00 7.97326E-03 3.27306E-03 2.44000E-02
      592  5.98391E-07 1.54308E-06-1.00000E-03 0.00000E+00 0.00000E+00 0.00000E+00 0.00000E+00 0.00000E+00 0.00000E+00 8.73290E-03 3.57234E-03 2.44000E-02
      595  6.38794E-07 1.55298E-06-1.00000E-03 0.00000E+00 0.00000E+00 0.00000E+00 0.00000E+00 0.00000E+00 0.00000E+00 6.09664E-03 6.09305E-03 2.44000E-02
      596  7.13447E-07 1.50236E-06-1.00000E-03 0.00000E+00 0.00000E+00 0.00000E+00 0.00000E+00 0.00000E+00 0.00000E+00 6.67521E-03 6.66910E-03 2.44000E-02
      599  4.48334E-07 1.81012E-06-1.00000E-03 0.00000E+00 0.00000E+00 0.00000E+00 0.00000E+00 0.00000E+00 0.00000E+00 3.27675E-03 7.97251E-03 2.44000E-02
      600  5.07093E-07 1.77866E-06-1.00000E-03 0.00000E+00 0.00000E+00 0.00000E+00 0.00000E+00 0.00000E+00 0.00000E+00 3.57831E-03 8.73128E-03 2.44000E-02
      603  0.00000E+00 2.81001E-06-1.00000E-03 0.00000E+00 0.00000E+00 0.00000E+00 0.00000E+00 0.00000E+00 0.00000E+00 5.27700E-19 8.62071E-03 2.44000E-02
      604  0.00000E+00 2.58503E-06-1.00000E-03 0.00000E+00 0.00000E+00 0.00000E+00 0.00000E+00 0.00000E+00 0.00000E+00 5.77700E-19 9.43689E-03 2.44000E-02
      638  7.16189E-07 1.50631E-06-1.00000E-03 0.00000E+00 0.00000E+00 0.00000E+00 0.00000E+00 0.00000E+00 0.00000E+00 1.02524E-02 4.17091E-03 2.44000E-02
      639  7.00875E-07 1.42796E-06-1.00000E-03 0.00000E+00 0.00000E+00 0.00000E+00 0.00000E+00 0.00000E+00 0.00000E+00 1.10120E-02 4.47013E-03 2.44000E-02
      641  8.58669E-07 1.44648E-06-1.00000E-03 0.00000E+00 0.00000E+00 0.00000E+00 0.00000E+00 0.00000E+00 0.00000E+00 7.83226E-03 7.82135E-03 2.44000E-02
      642  1.02328E-06 1.52811E-06-1.00000E-03 0.00000E+00 0.00000E+00 0.00000E+00 0.00000E+00 0.00000E+00 0.00000E+00 8.41092E-03 8.39753E-03 2.44000E-02
      644  5.37340E-07 1.68168E-06-1.00000E-03 0.00000E+00 0.00000E+00 0.00000E+00 0.00000E+00 0.00000E+00 0.00000E+00 4.18124E-03 1.02488E-02 2.44000E-02
      645  3.65946E-07 1.49681E-06-1.00000E-03 0.00000E+00 0.00000E+00 0.00000E+00 0.00000E+00 0.00000E+00 0.00000E+00 4.48257E-03 1.10073E-02 2.44000E-02
      647  0.00000E+00 2.44918E-06-1.00000E-03 0.00000E+00 0.00000E+00 0.00000E+00 0.00000E+00 0.00000E+00 0.00000E+00 6.77700E-19 1.10695E-02 2.44000E-02
      648  0.00000E+00 2.89683E-06-1.00000E-03 0.00000E+00 0.00000E+00 0.00000E+00 0.00000E+00 0.00000E+00 0.00000E+00 7.27700E-19 1.18865E-02 2.44000E-02
      674  5.09164E-07 1.55805E-06-1.00000E-03 0.00000E+00 0.00000E+00 0.00000E+00 0.00000E+00 0.00000E+00 0.00000E+00 7.21351E-03 2.97376E-03 2.44000E-02
      676  5.68930E-07 1.60401E-06-1.00000E-03 0.00000E+00 0.00000E+00 0.00000E+00 0.00000E+00 0.00000E+00 0.00000E+00 5.51817E-03 5.51690E-03 2.44000E-02
      678  3.89421E-07 1.83452E-06-1.00000E-03 0.00000E+00 0.00000E+00 0.00000E+00 0.00000E+00 0.00000E+00 0.00000E+00 2.97519E-03 7.21383E-03 2.44000E-02
      680  0.00000E+00 3.08823E-06-1.00000E-03 0.00000E+00 0.00000E+00 0.00000E+00 0.00000E+00 0.00000E+00 0.00000E+00 4.77700E-19 7.80449E-03 2.44000E-02
      821  6.53278E-07 1.52629E-06-1.00000E-03 0.00000E+00 0.00000E+00 0.00000E+00 0.00000E+00 0.00000E+00 0.00000E+00 9.49265E-03 3.87163E-03 2.44000E-02
      822  7.82361E-07 1.45988E-06-1.00000E-03 0.00000E+00 0.00000E+00 0.00000E+00 0.00000E+00 0.00000E+00 0.00000E+00 7.25368E-03 7.24526E-03 2.44000E-02
      823  5.48147E-07 1.74051E-06-1.00000E-03 0.00000E+00 0.00000E+00 0.00000E+00 0.00000E+00 0.00000E+00 0.00000E+00 3.87985E-03 9.49004E-03 2.44000E-02
      824  0.00000E+00 2.44127E-06-1.00000E-03 0.00000E+00 0.00000E+00 0.00000E+00 0.00000E+00 0.00000E+00 0.00000E+00 6.27700E-19 1.02531E-02 2.44000E-02
      850  4.49588E-07 1.26339E-06-1.00000E-03 0.00000E+00 0.00000E+00 0.00000E+00 0.00000E+00 0.00000E+00 0.00000E+00 1.17714E-02 4.76936E-03 2.44000E-02
      852  5.52480E-07 1.35294E-06-1.00000E-03 0.00000E+00 0.00000E+00 0.00000E+00 0.00000E+00 0.00000E+00 0.00000E+00 8.98885E-03 8.97355E-03 2.44000E-02
      854  3.08372E-07 1.93227E-06-1.00000E-03 0.00000E+00 0.00000E+00 0.00000E+00 0.00000E+00 0.00000E+00 0.00000E+00 4.78401E-03 1.17665E-02 2.44000E-02
      856  0.00000E+00 3.70881E-06-1.00000E-03 0.00000E+00 0.00000E+00 0.00000E+00 0.00000E+00 0.00000E+00 0.00000E+00 7.77700E-19 1.27037E-02 2.44000E-02
