 LS-DYNA keyword deck by LS-PrePost                                      
                    ls-dyna smp d R14 R14.1.1s_1_ef50e1 date 06/16/2024

 n o d a l   f o r c e/e n e r g y    o u t p u t  t=   0.00000E+00

 velocity boundary condition forces/rigid body moments 

 nd#     354  xforce=   0.0000E+00   yforce=   0.0000E+00  zforce=   0.0000E+00   energy=   0.0000E+00   setid =     354 xmoment=   0.0000E+00 ymoment=   0.0000E+00 zmoment=   0.0000E+00
 nd#     355  xforce=   0.0000E+00   yforce=   0.0000E+00  zforce=   0.0000E+00   energy=   0.0000E+00   setid =     355 xmoment=   0.0000E+00 ymoment=   0.0000E+00 zmoment=   0.0000E+00
 nd#     356  xforce=   0.0000E+00   yforce=   0.0000E+00  zforce=   0.0000E+00   energy=   0.0000E+00   setid =     356 xmoment=   0.0000E+00 ymoment=   0.0000E+00 zmoment=   0.0000E+00
 nd#     357  xforce=   0.0000E+00   yforce=   0.0000E+00  zforce=   0.0000E+00   energy=   0.0000E+00   setid =     357 xmoment=   0.0000E+00 ymoment=   0.0000E+00 zmoment=   0.0000E+00
 nd#     403  xforce=   0.0000E+00   yforce=   0.0000E+00  zforce=   0.0000E+00   energy=   0.0000E+00   setid =     403 xmoment=   0.0000E+00 ymoment=   0.0000E+00 zmoment=   0.0000E+00
 nd#     404  xforce=   0.0000E+00   yforce=   0.0000E+00  zforce=   0.0000E+00   energy=   0.0000E+00   setid =     404 xmoment=   0.0000E+00 ymoment=   0.0000E+00 zmoment=   0.0000E+00
 nd#     405  xforce=   0.0000E+00   yforce=   0.0000E+00  zforce=   0.0000E+00   energy=   0.0000E+00   setid =     405 xmoment=   0.0000E+00 ymoment=   0.0000E+00 zmoment=   0.0000E+00
 nd#     466  xforce=   0.0000E+00   yforce=   0.0000E+00  zforce=   0.0000E+00   energy=   0.0000E+00   setid =     466 xmoment=   0.0000E+00 ymoment=   0.0000E+00 zmoment=   0.0000E+00
 nd#     467  xforce=   0.0000E+00   yforce=   0.0000E+00  zforce=   0.0000E+00   energy=   0.0000E+00   setid =     467 xmoment=   0.0000E+00 ymoment=   0.0000E+00 zmoment=   0.0000E+00
 nd#     468  xforce=   0.0000E+00   yforce=   0.0000E+00  zforce=   0.0000E+00   energy=   0.0000E+00   setid =     468 xmoment=   0.0000E+00 ymoment=   0.0000E+00 zmoment=   0.0000E+00
 nd#     469  xforce=   0.0000E+00   yforce=   0.0000E+00  zforce=   0.0000E+00   energy=   0.0000E+00   setid =     469 xmoment=   0.0000E+00 ymoment=   0.0000E+00 zmoment=   0.0000E+00
 nd#     530  xforce=   0.0000E+00   yforce=   0.0000E+00  zforce=   0.0000E+00   energy=   0.0000E+00   setid =     530 xmoment=   0.0000E+00 ymoment=   0.0000E+00 zmoment=   0.0000E+00
 nd#     531  xforce=   0.0000E+00   yforce=   0.0000E+00  zforce=   0.0000E+00   energy=   0.0000E+00   setid =     531 xmoment=   0.0000E+00 ymoment=   0.0000E+00 zmoment=   0.0000E+00
 nd#     532  xforce=   0.0000E+00   yforce=   0.0000E+00  zforce=   0.0000E+00   energy=   0.0000E+00   setid =     532 xmoment=   0.0000E+00 ymoment=   0.0000E+00 zmoment=   0.0000E+00
 nd#     533  xforce=   0.0000E+00   yforce=   0.0000E+00  zforce=   0.0000E+00   energy=   0.0000E+00   setid =     533 xmoment=   0.0000E+00 ymoment=   0.0000E+00 zmoment=   0.0000E+00
 nd#     549  xforce=   0.0000E+00   yforce=   0.0000E+00  zforce=   0.0000E+00   energy=   0.0000E+00   setid =     549 xmoment=   0.0000E+00 ymoment=   0.0000E+00 zmoment=   0.0000E+00
 nd#     610  xforce=   0.0000E+00   yforce=   0.0000E+00  zforce=   0.0000E+00   energy=   0.0000E+00   setid =     610 xmoment=   0.0000E+00 ymoment=   0.0000E+00 zmoment=   0.0000E+00
 nd#     611  xforce=   0.0000E+00   yforce=   0.0000E+00  zforce=   0.0000E+00   energy=   0.0000E+00   setid =     611 xmoment=   0.0000E+00 ymoment=   0.0000E+00 zmoment=   0.0000E+00
 nd#     612  xforce=   0.0000E+00   yforce=   0.0000E+00  zforce=   0.0000E+00   energy=   0.0000E+00   setid =     612 xmoment=   0.0000E+00 ymoment=   0.0000E+00 zmoment=   0.0000E+00
 nd#     613  xforce=   0.0000E+00   yforce=   0.0000E+00  zforce=   0.0000E+00   energy=   0.0000E+00   setid =     613 xmoment=   0.0000E+00 ymoment=   0.0000E+00 zmoment=   0.0000E+00
 nd#     629  xforce=   0.0000E+00   yforce=   0.0000E+00  zforce=   0.0000E+00   energy=   0.0000E+00   setid =     629 xmoment=   0.0000E+00 ymoment=   0.0000E+00 zmoment=   0.0000E+00
 nd#     660  xforce=   0.0000E+00   yforce=   0.0000E+00  zforce=   0.0000E+00   energy=   0.0000E+00   setid =     660 xmoment=   0.0000E+00 ymoment=   0.0000E+00 zmoment=   0.0000E+00
 nd#     661  xforce=   0.0000E+00   yforce=   0.0000E+00  zforce=   0.0000E+00   energy=   0.0000E+00   setid =     661 xmoment=   0.0000E+00 ymoment=   0.0000E+00 zmoment=   0.0000E+00
 nd#     692  xforce=   0.0000E+00   yforce=   0.0000E+00  zforce=   0.0000E+00   energy=   0.0000E+00   setid =     692 xmoment=   0.0000E+00 ymoment=   0.0000E+00 zmoment=   0.0000E+00
 nd#     693  xforce=   0.0000E+00   yforce=   0.0000E+00  zforce=   0.0000E+00   energy=   0.0000E+00   setid =     693 xmoment=   0.0000E+00 ymoment=   0.0000E+00 zmoment=   0.0000E+00
 nd#     724  xforce=   0.0000E+00   yforce=   0.0000E+00  zforce=   0.0000E+00   energy=   0.0000E+00   setid =     724 xmoment=   0.0000E+00 ymoment=   0.0000E+00 zmoment=   0.0000E+00
 nd#     725  xforce=   0.0000E+00   yforce=   0.0000E+00  zforce=   0.0000E+00   energy=   0.0000E+00   setid =     725 xmoment=   0.0000E+00 ymoment=   0.0000E+00 zmoment=   0.0000E+00
 nd#     771  xforce=   0.0000E+00   yforce=   0.0000E+00  zforce=   0.0000E+00   energy=   0.0000E+00   setid =     771 xmoment=   0.0000E+00 ymoment=   0.0000E+00 zmoment=   0.0000E+00
 nd#     772  xforce=   0.0000E+00   yforce=   0.0000E+00  zforce=   0.0000E+00   energy=   0.0000E+00   setid =     772 xmoment=   0.0000E+00 ymoment=   0.0000E+00 zmoment=   0.0000E+00
 nd#     773  xforce=   0.0000E+00   yforce=   0.0000E+00  zforce=   0.0000E+00   energy=   0.0000E+00   setid =     773 xmoment=   0.0000E+00 ymoment=   0.0000E+00 zmoment=   0.0000E+00
 nd#     804  xforce=   0.0000E+00   yforce=   0.0000E+00  zforce=   0.0000E+00   energy=   0.0000E+00   setid =     804 xmoment=   0.0000E+00 ymoment=   0.0000E+00 zmoment=   0.0000E+00
 nd#     805  xforce=   0.0000E+00   yforce=   0.0000E+00  zforce=   0.0000E+00   energy=   0.0000E+00   setid =     805 xmoment=   0.0000E+00 ymoment=   0.0000E+00 zmoment=   0.0000E+00
 nd#     821  xforce=   0.0000E+00   yforce=   0.0000E+00  zforce=   0.0000E+00   energy=   0.0000E+00   setid =     821 xmoment=   0.0000E+00 ymoment=   0.0000E+00 zmoment=   0.0000E+00
 nd#     852  xforce=   0.0000E+00   yforce=   0.0000E+00  zforce=   0.0000E+00   energy=   0.0000E+00   setid =     852 xmoment=   0.0000E+00 ymoment=   0.0000E+00 zmoment=   0.0000E+00
 nd#     853  xforce=   0.0000E+00   yforce=   0.0000E+00  zforce=   0.0000E+00   energy=   0.0000E+00   setid =     853 xmoment=   0.0000E+00 ymoment=   0.0000E+00 zmoment=   0.0000E+00
 nd#     869  xforce=   0.0000E+00   yforce=   0.0000E+00  zforce=   0.0000E+00   energy=   0.0000E+00   setid =     869 xmoment=   0.0000E+00 ymoment=   0.0000E+00 zmoment=   0.0000E+00
 nd#     885  xforce=   0.0000E+00   yforce=   0.0000E+00  zforce=   0.0000E+00   energy=   0.0000E+00   setid =     885 xmoment=   0.0000E+00 ymoment=   0.0000E+00 zmoment=   0.0000E+00
 nd#    1082  xforce=   0.0000E+00   yforce=   0.0000E+00  zforce=   0.0000E+00   energy=   0.0000E+00   setid =    1082 xmoment=   0.0000E+00 ymoment=   0.0000E+00 zmoment=   0.0000E+00
 nd#    1083  xforce=   0.0000E+00   yforce=   0.0000E+00  zforce=   0.0000E+00   energy=   0.0000E+00   setid =    1083 xmoment=   0.0000E+00 ymoment=   0.0000E+00 zmoment=   0.0000E+00
 nd#    1084  xforce=   0.0000E+00   yforce=   0.0000E+00  zforce=   0.0000E+00   energy=   0.0000E+00   setid =    1084 xmoment=   0.0000E+00 ymoment=   0.0000E+00 zmoment=   0.0000E+00
 nd#    1085  xforce=   0.0000E+00   yforce=   0.0000E+00  zforce=   0.0000E+00   energy=   0.0000E+00   setid =    1085 xmoment=   0.0000E+00 ymoment=   0.0000E+00 zmoment=   0.0000E+00
 nd#    1086  xforce=   0.0000E+00   yforce=   0.0000E+00  zforce=   0.0000E+00   energy=   0.0000E+00   setid =    1086 xmoment=   0.0000E+00 ymoment=   0.0000E+00 zmoment=   0.0000E+00
 nd#    1087  xforce=   0.0000E+00   yforce=   0.0000E+00  zforce=   0.0000E+00   energy=   0.0000E+00   setid =    1087 xmoment=   0.0000E+00 ymoment=   0.0000E+00 zmoment=   0.0000E+00
 nd#    1649  xforce=   0.0000E+00   yforce=   0.0000E+00  zforce=   0.0000E+00   energy=   0.0000E+00   setid =    1649 xmoment=   0.0000E+00 ymoment=   0.0000E+00 zmoment=   0.0000E+00
 nd#    1651  xforce=   0.0000E+00   yforce=   0.0000E+00  zforce=   0.0000E+00   energy=   0.0000E+00   setid =    1651 xmoment=   0.0000E+00 ymoment=   0.0000E+00 zmoment=   0.0000E+00
 nd#    1653  xforce=   0.0000E+00   yforce=   0.0000E+00  zforce=   0.0000E+00   energy=   0.0000E+00   setid =    1653 xmoment=   0.0000E+00 ymoment=   0.0000E+00 zmoment=   0.0000E+00
 nd#    1655  xforce=   0.0000E+00   yforce=   0.0000E+00  zforce=   0.0000E+00   energy=   0.0000E+00   setid =    1655 xmoment=   0.0000E+00 ymoment=   0.0000E+00 zmoment=   0.0000E+00
 nd#    1657  xforce=   0.0000E+00   yforce=   0.0000E+00  zforce=   0.0000E+00   energy=   0.0000E+00   setid =    1657 xmoment=   0.0000E+00 ymoment=   0.0000E+00 zmoment=   0.0000E+00
 nd#    1659  xforce=   0.0000E+00   yforce=   0.0000E+00  zforce=   0.0000E+00   energy=   0.0000E+00   setid =    1659 xmoment=   0.0000E+00 ymoment=   0.0000E+00 zmoment=   0.0000E+00
 nd#    1733  xforce=   0.0000E+00   yforce=   0.0000E+00  zforce=   0.0000E+00   energy=   0.0000E+00   setid =    1733 xmoment=   0.0000E+00 ymoment=   0.0000E+00 zmoment=   0.0000E+00
 nd#    1734  xforce=   0.0000E+00   yforce=   0.0000E+00  zforce=   0.0000E+00   energy=   0.0000E+00   setid =    1734 xmoment=   0.0000E+00 ymoment=   0.0000E+00 zmoment=   0.0000E+00
 nd#    1735  xforce=   0.0000E+00   yforce=   0.0000E+00  zforce=   0.0000E+00   energy=   0.0000E+00   setid =    1735 xmoment=   0.0000E+00 ymoment=   0.0000E+00 zmoment=   0.0000E+00
 nd#    1736  xforce=   0.0000E+00   yforce=   0.0000E+00  zforce=   0.0000E+00   energy=   0.0000E+00   setid =    1736 xmoment=   0.0000E+00 ymoment=   0.0000E+00 zmoment=   0.0000E+00
 nd#    1737  xforce=   0.0000E+00   yforce=   0.0000E+00  zforce=   0.0000E+00   energy=   0.0000E+00   setid =    1737 xmoment=   0.0000E+00 ymoment=   0.0000E+00 zmoment=   0.0000E+00
 nd#    1738  xforce=   0.0000E+00   yforce=   0.0000E+00  zforce=   0.0000E+00   energy=   0.0000E+00   setid =    1738 xmoment=   0.0000E+00 ymoment=   0.0000E+00 zmoment=   0.0000E+00
 nd#    1739  xforce=   0.0000E+00   yforce=   0.0000E+00  zforce=   0.0000E+00   energy=   0.0000E+00   setid =    1739 xmoment=   0.0000E+00 ymoment=   0.0000E+00 zmoment=   0.0000E+00
 nd#    1740  xforce=   0.0000E+00   yforce=   0.0000E+00  zforce=   0.0000E+00   energy=   0.0000E+00   setid =    1740 xmoment=   0.0000E+00 ymoment=   0.0000E+00 zmoment=   0.0000E+00
 nd#    1741  xforce=   0.0000E+00   yforce=   0.0000E+00  zforce=   0.0000E+00   energy=   0.0000E+00   setid =    1741 xmoment=   0.0000E+00 ymoment=   0.0000E+00 zmoment=   0.0000E+00
 nd#    1742  xforce=   0.0000E+00   yforce=   0.0000E+00  zforce=   0.0000E+00   energy=   0.0000E+00   setid =    1742 xmoment=   0.0000E+00 ymoment=   0.0000E+00 zmoment=   0.0000E+00
 nd#    1743  xforce=   0.0000E+00   yforce=   0.0000E+00  zforce=   0.0000E+00   energy=   0.0000E+00   setid =    1743 xmoment=   0.0000E+00 ymoment=   0.0000E+00 zmoment=   0.0000E+00
 nd#    1744  xforce=   0.0000E+00   yforce=   0.0000E+00  zforce=   0.0000E+00   energy=   0.0000E+00   setid =    1744 xmoment=   0.0000E+00 ymoment=   0.0000E+00 zmoment=   0.0000E+00
 nd#    1751  xforce=   0.0000E+00   yforce=   0.0000E+00  zforce=   0.0000E+00   energy=   0.0000E+00   setid =    1751 xmoment=   0.0000E+00 ymoment=   0.0000E+00 zmoment=   0.0000E+00
 nd#    1752  xforce=   0.0000E+00   yforce=   0.0000E+00  zforce=   0.0000E+00   energy=   0.0000E+00   setid =    1752 xmoment=   0.0000E+00 ymoment=   0.0000E+00 zmoment=   0.0000E+00
 nd#    1753  xforce=   0.0000E+00   yforce=   0.0000E+00  zforce=   0.0000E+00   energy=   0.0000E+00   setid =    1753 xmoment=   0.0000E+00 ymoment=   0.0000E+00 zmoment=   0.0000E+00
 nd#    1754  xforce=   0.0000E+00   yforce=   0.0000E+00  zforce=   0.0000E+00   energy=   0.0000E+00   setid =    1754 xmoment=   0.0000E+00 ymoment=   0.0000E+00 zmoment=   0.0000E+00
 nd#    1755  xforce=   0.0000E+00   yforce=   0.0000E+00  zforce=   0.0000E+00   energy=   0.0000E+00   setid =    1755 xmoment=   0.0000E+00 ymoment=   0.0000E+00 zmoment=   0.0000E+00
 nd#    1756  xforce=   0.0000E+00   yforce=   0.0000E+00  zforce=   0.0000E+00   energy=   0.0000E+00   setid =    1756 xmoment=   0.0000E+00 ymoment=   0.0000E+00 zmoment=   0.0000E+00
 nd#    1757  xforce=   0.0000E+00   yforce=   0.0000E+00  zforce=   0.0000E+00   energy=   0.0000E+00   setid =    1757 xmoment=   0.0000E+00 ymoment=   0.0000E+00 zmoment=   0.0000E+00
 nd#    1758  xforce=   0.0000E+00   yforce=   0.0000E+00  zforce=   0.0000E+00   energy=   0.0000E+00   setid =    1758 xmoment=   0.0000E+00 ymoment=   0.0000E+00 zmoment=   0.0000E+00
 nd#    1759  xforce=   0.0000E+00   yforce=   0.0000E+00  zforce=   0.0000E+00   energy=   0.0000E+00   setid =    1759 xmoment=   0.0000E+00 ymoment=   0.0000E+00 zmoment=   0.0000E+00
 nd#    1760  xforce=   0.0000E+00   yforce=   0.0000E+00  zforce=   0.0000E+00   energy=   0.0000E+00   setid =    1760 xmoment=   0.0000E+00 ymoment=   0.0000E+00 zmoment=   0.0000E+00
 nd#    1761  xforce=   0.0000E+00   yforce=   0.0000E+00  zforce=   0.0000E+00   energy=   0.0000E+00   setid =    1761 xmoment=   0.0000E+00 ymoment=   0.0000E+00 zmoment=   0.0000E+00
 nd#    1762  xforce=   0.0000E+00   yforce=   0.0000E+00  zforce=   0.0000E+00   energy=   0.0000E+00   setid =    1762 xmoment=   0.0000E+00 ymoment=   0.0000E+00 zmoment=   0.0000E+00
 nd#    1769  xforce=   0.0000E+00   yforce=   0.0000E+00  zforce=   0.0000E+00   energy=   0.0000E+00   setid =    1769 xmoment=   0.0000E+00 ymoment=   0.0000E+00 zmoment=   0.0000E+00
 nd#    1770  xforce=   0.0000E+00   yforce=   0.0000E+00  zforce=   0.0000E+00   energy=   0.0000E+00   setid =    1770 xmoment=   0.0000E+00 ymoment=   0.0000E+00 zmoment=   0.0000E+00
 nd#    1771  xforce=   0.0000E+00   yforce=   0.0000E+00  zforce=   0.0000E+00   energy=   0.0000E+00   setid =    1771 xmoment=   0.0000E+00 ymoment=   0.0000E+00 zmoment=   0.0000E+00
 nd#    1772  xforce=   0.0000E+00   yforce=   0.0000E+00  zforce=   0.0000E+00   energy=   0.0000E+00   setid =    1772 xmoment=   0.0000E+00 ymoment=   0.0000E+00 zmoment=   0.0000E+00
 nd#    1773  xforce=   0.0000E+00   yforce=   0.0000E+00  zforce=   0.0000E+00   energy=   0.0000E+00   setid =    1773 xmoment=   0.0000E+00 ymoment=   0.0000E+00 zmoment=   0.0000E+00
 nd#    1774  xforce=   0.0000E+00   yforce=   0.0000E+00  zforce=   0.0000E+00   energy=   0.0000E+00   setid =    1774 xmoment=   0.0000E+00 ymoment=   0.0000E+00 zmoment=   0.0000E+00
              xtotal=   0.0000E+00   ytotal=   0.0000E+00  ztotal=   0.0000E+00   etotal=   0.0000E+00

 n o d a l   f o r c e/e n e r g y    o u t p u t  t=   2.50000E+00

 velocity boundary condition forces/rigid body moments 

 nd#     354  xforce=   0.0000E+00   yforce=   0.0000E+00  zforce=  -1.4226E+01   energy=   8.8911E-05   setid =     354 xmoment=   0.0000E+00 ymoment=   0.0000E+00 zmoment=   0.0000E+00
 nd#     355  xforce=   0.0000E+00   yforce=   0.0000E+00  zforce=  -2.1145E+01   energy=   1.3215E-04   setid =     355 xmoment=   0.0000E+00 ymoment=   0.0000E+00 zmoment=   0.0000E+00
 nd#     356  xforce=   0.0000E+00   yforce=   0.0000E+00  zforce=  -1.0937E+01   energy=   6.8356E-05   setid =     356 xmoment=   0.0000E+00 ymoment=   0.0000E+00 zmoment=   0.0000E+00
 nd#     357  xforce=   0.0000E+00   yforce=   0.0000E+00  zforce=  -7.6686E+00   energy=   4.7929E-05   setid =     357 xmoment=   0.0000E+00 ymoment=   0.0000E+00 zmoment=   0.0000E+00
 nd#     403  xforce=   0.0000E+00   yforce=   0.0000E+00  zforce=  -9.3419E+00   energy=   5.8387E-05   setid =     403 xmoment=   0.0000E+00 ymoment=   0.0000E+00 zmoment=   0.0000E+00
 nd#     404  xforce=   0.0000E+00   yforce=   0.0000E+00  zforce=  -1.2438E+01   energy=   7.7738E-05   setid =     404 xmoment=   0.0000E+00 ymoment=   0.0000E+00 zmoment=   0.0000E+00
 nd#     405  xforce=   0.0000E+00   yforce=   0.0000E+00  zforce=  -1.1464E+01   energy=   7.1649E-05   setid =     405 xmoment=   0.0000E+00 ymoment=   0.0000E+00 zmoment=   0.0000E+00
 nd#     466  xforce=   0.0000E+00   yforce=   0.0000E+00  zforce=  -4.9448E+00   energy=   3.0905E-05   setid =     466 xmoment=   0.0000E+00 ymoment=   0.0000E+00 zmoment=   0.0000E+00
 nd#     467  xforce=   0.0000E+00   yforce=   0.0000E+00  zforce=  -7.3292E+00   energy=   4.5807E-05   setid =     467 xmoment=   0.0000E+00 ymoment=   0.0000E+00 zmoment=   0.0000E+00
 nd#     468  xforce=   0.0000E+00   yforce=   0.0000E+00  zforce=  -9.3958E+00   energy=   5.8724E-05   setid =     468 xmoment=   0.0000E+00 ymoment=   0.0000E+00 zmoment=   0.0000E+00
 nd#     469  xforce=   0.0000E+00   yforce=   0.0000E+00  zforce=  -7.8913E+00   energy=   4.9320E-05   setid =     469 xmoment=   0.0000E+00 ymoment=   0.0000E+00 zmoment=   0.0000E+00
 nd#     530  xforce=   0.0000E+00   yforce=   0.0000E+00  zforce=  -7.9950E+00   energy=   4.9969E-05   setid =     530 xmoment=   0.0000E+00 ymoment=   0.0000E+00 zmoment=   0.0000E+00
 nd#     531  xforce=   0.0000E+00   yforce=   0.0000E+00  zforce=  -1.0170E+01   energy=   6.3563E-05   setid =     531 xmoment=   0.0000E+00 ymoment=   0.0000E+00 zmoment=   0.0000E+00
 nd#     532  xforce=   0.0000E+00   yforce=   0.0000E+00  zforce=  -1.1163E+01   energy=   6.9767E-05   setid =     532 xmoment=   0.0000E+00 ymoment=   0.0000E+00 zmoment=   0.0000E+00
 nd#     533  xforce=   0.0000E+00   yforce=   0.0000E+00  zforce=  -9.0337E+00   energy=   5.6461E-05   setid =     533 xmoment=   0.0000E+00 ymoment=   0.0000E+00 zmoment=   0.0000E+00
 nd#     549  xforce=   0.0000E+00   yforce=   0.0000E+00  zforce=  -6.2098E+00   energy=   3.8811E-05   setid =     549 xmoment=   0.0000E+00 ymoment=   0.0000E+00 zmoment=   0.0000E+00
 nd#     610  xforce=   0.0000E+00   yforce=   0.0000E+00  zforce=  -1.2497E+01   energy=   7.8103E-05   setid =     610 xmoment=   0.0000E+00 ymoment=   0.0000E+00 zmoment=   0.0000E+00
 nd#     611  xforce=   0.0000E+00   yforce=   0.0000E+00  zforce=  -1.3964E+01   energy=   8.7272E-05   setid =     611 xmoment=   0.0000E+00 ymoment=   0.0000E+00 zmoment=   0.0000E+00
 nd#     612  xforce=   0.0000E+00   yforce=   0.0000E+00  zforce=  -2.2944E+01   energy=   1.4340E-04   setid =     612 xmoment=   0.0000E+00 ymoment=   0.0000E+00 zmoment=   0.0000E+00
 nd#     613  xforce=   0.0000E+00   yforce=   0.0000E+00  zforce=  -2.1987E+01   energy=   1.3742E-04   setid =     613 xmoment=   0.0000E+00 ymoment=   0.0000E+00 zmoment=   0.0000E+00
 nd#     629  xforce=   0.0000E+00   yforce=   0.0000E+00  zforce=  -1.1164E+01   energy=   6.9776E-05   setid =     629 xmoment=   0.0000E+00 ymoment=   0.0000E+00 zmoment=   0.0000E+00
 nd#     660  xforce=   0.0000E+00   yforce=   0.0000E+00  zforce=  -5.9232E+00   energy=   3.7020E-05   setid =     660 xmoment=   0.0000E+00 ymoment=   0.0000E+00 zmoment=   0.0000E+00
 nd#     661  xforce=   0.0000E+00   yforce=   0.0000E+00  zforce=  -6.3140E+00   energy=   3.9462E-05   setid =     661 xmoment=   0.0000E+00 ymoment=   0.0000E+00 zmoment=   0.0000E+00
 nd#     692  xforce=   0.0000E+00   yforce=   0.0000E+00  zforce=  -2.0709E+01   energy=   1.2943E-04   setid =     692 xmoment=   0.0000E+00 ymoment=   0.0000E+00 zmoment=   0.0000E+00
 nd#     693  xforce=   0.0000E+00   yforce=   0.0000E+00  zforce=  -2.0586E+01   energy=   1.2866E-04   setid =     693 xmoment=   0.0000E+00 ymoment=   0.0000E+00 zmoment=   0.0000E+00
 nd#     724  xforce=   0.0000E+00   yforce=   0.0000E+00  zforce=  -3.2659E+00   energy=   2.0412E-05   setid =     724 xmoment=   0.0000E+00 ymoment=   0.0000E+00 zmoment=   0.0000E+00
 nd#     725  xforce=   0.0000E+00   yforce=   0.0000E+00  zforce=  -5.8009E+00   energy=   3.6255E-05   setid =     725 xmoment=   0.0000E+00 ymoment=   0.0000E+00 zmoment=   0.0000E+00
 nd#     771  xforce=   0.0000E+00   yforce=   0.0000E+00  zforce=  -8.4302E+00   energy=   5.2689E-05   setid =     771 xmoment=   0.0000E+00 ymoment=   0.0000E+00 zmoment=   0.0000E+00
 nd#     772  xforce=   0.0000E+00   yforce=   0.0000E+00  zforce=  -6.4559E+00   energy=   4.0350E-05   setid =     772 xmoment=   0.0000E+00 ymoment=   0.0000E+00 zmoment=   0.0000E+00
 nd#     773  xforce=   0.0000E+00   yforce=   0.0000E+00  zforce=  -5.2830E+00   energy=   3.3019E-05   setid =     773 xmoment=   0.0000E+00 ymoment=   0.0000E+00 zmoment=   0.0000E+00
 nd#     804  xforce=   0.0000E+00   yforce=   0.0000E+00  zforce=  -7.1444E+00   energy=   4.4652E-05   setid =     804 xmoment=   0.0000E+00 ymoment=   0.0000E+00 zmoment=   0.0000E+00
 nd#     805  xforce=   0.0000E+00   yforce=   0.0000E+00  zforce=  -1.1530E+01   energy=   7.2063E-05   setid =     805 xmoment=   0.0000E+00 ymoment=   0.0000E+00 zmoment=   0.0000E+00
 nd#     821  xforce=   0.0000E+00   yforce=   0.0000E+00  zforce=  -4.7002E+00   energy=   2.9376E-05   setid =     821 xmoment=   0.0000E+00 ymoment=   0.0000E+00 zmoment=   0.0000E+00
 nd#     852  xforce=   0.0000E+00   yforce=   0.0000E+00  zforce=  -9.9825E+00   energy=   6.2391E-05   setid =     852 xmoment=   0.0000E+00 ymoment=   0.0000E+00 zmoment=   0.0000E+00
 nd#     853  xforce=   0.0000E+00   yforce=   0.0000E+00  zforce=  -1.0925E+01   energy=   6.8284E-05   setid =     853 xmoment=   0.0000E+00 ymoment=   0.0000E+00 zmoment=   0.0000E+00
 nd#     869  xforce=   0.0000E+00   yforce=   0.0000E+00  zforce=  -5.7271E+00   energy=   3.5794E-05   setid =     869 xmoment=   0.0000E+00 ymoment=   0.0000E+00 zmoment=   0.0000E+00
 nd#     885  xforce=   0.0000E+00   yforce=   0.0000E+00  zforce=  -5.5991E+00   energy=   3.4994E-05   setid =     885 xmoment=   0.0000E+00 ymoment=   0.0000E+00 zmoment=   0.0000E+00
 nd#    1082  xforce=   0.0000E+00   yforce=   0.0000E+00  zforce=  -7.3552E+00   energy=   4.5970E-05   setid =    1082 xmoment=   0.0000E+00 ymoment=   0.0000E+00 zmoment=   0.0000E+00
 nd#    1083  xforce=   0.0000E+00   yforce=   0.0000E+00  zforce=  -2.8215E+01   energy=   1.7635E-04   setid =    1083 xmoment=   0.0000E+00 ymoment=   0.0000E+00 zmoment=   0.0000E+00
 nd#    1084  xforce=   0.0000E+00   yforce=   0.0000E+00  zforce=  -2.5398E+01   energy=   1.5874E-04   setid =    1084 xmoment=   0.0000E+00 ymoment=   0.0000E+00 zmoment=   0.0000E+00
 nd#    1085  xforce=   0.0000E+00   yforce=   0.0000E+00  zforce=  -2.2158E+01   energy=   1.3849E-04   setid =    1085 xmoment=   0.0000E+00 ymoment=   0.0000E+00 zmoment=   0.0000E+00
 nd#    1086  xforce=   0.0000E+00   yforce=   0.0000E+00  zforce=  -1.9264E+01   energy=   1.2040E-04   setid =    1086 xmoment=   0.0000E+00 ymoment=   0.0000E+00 zmoment=   0.0000E+00
 nd#    1087  xforce=   0.0000E+00   yforce=   0.0000E+00  zforce=  -1.6274E+01   energy=   1.0171E-04   setid =    1087 xmoment=   0.0000E+00 ymoment=   0.0000E+00 zmoment=   0.0000E+00
 nd#    1649  xforce=   0.0000E+00   yforce=   0.0000E+00  zforce=  -3.2457E+01   energy=   2.0286E-04   setid =    1649 xmoment=   0.0000E+00 ymoment=   0.0000E+00 zmoment=   0.0000E+00
 nd#    1651  xforce=   0.0000E+00   yforce=   0.0000E+00  zforce=  -3.1943E+01   energy=   1.9965E-04   setid =    1651 xmoment=   0.0000E+00 ymoment=   0.0000E+00 zmoment=   0.0000E+00
 nd#    1653  xforce=   0.0000E+00   yforce=   0.0000E+00  zforce=  -3.1433E+01   energy=   1.9646E-04   setid =    1653 xmoment=   0.0000E+00 ymoment=   0.0000E+00 zmoment=   0.0000E+00
 nd#    1655  xforce=   0.0000E+00   yforce=   0.0000E+00  zforce=  -3.1412E+01   energy=   1.9633E-04   setid =    1655 xmoment=   0.0000E+00 ymoment=   0.0000E+00 zmoment=   0.0000E+00
 nd#    1657  xforce=   0.0000E+00   yforce=   0.0000E+00  zforce=  -3.1977E+01   energy=   1.9986E-04   setid =    1657 xmoment=   0.0000E+00 ymoment=   0.0000E+00 zmoment=   0.0000E+00
 nd#    1659  xforce=   0.0000E+00   yforce=   0.0000E+00  zforce=  -1.6364E+01   energy=   1.0228E-04   setid =    1659 xmoment=   0.0000E+00 ymoment=   0.0000E+00 zmoment=   0.0000E+00
 nd#    1733  xforce=   0.0000E+00   yforce=   0.0000E+00  zforce=  -5.0952E+01   energy=   3.1845E-04   setid =    1733 xmoment=   0.0000E+00 ymoment=   0.0000E+00 zmoment=   0.0000E+00
 nd#    1734  xforce=   0.0000E+00   yforce=   0.0000E+00  zforce=  -5.6919E+01   energy=   3.5574E-04   setid =    1734 xmoment=   0.0000E+00 ymoment=   0.0000E+00 zmoment=   0.0000E+00
 nd#    1735  xforce=   0.0000E+00   yforce=   0.0000E+00  zforce=  -5.1110E+01   energy=   3.1944E-04   setid =    1735 xmoment=   0.0000E+00 ymoment=   0.0000E+00 zmoment=   0.0000E+00
 nd#    1736  xforce=   0.0000E+00   yforce=   0.0000E+00  zforce=  -5.7745E+01   energy=   3.6091E-04   setid =    1736 xmoment=   0.0000E+00 ymoment=   0.0000E+00 zmoment=   0.0000E+00
 nd#    1737  xforce=   0.0000E+00   yforce=   0.0000E+00  zforce=  -5.1184E+01   energy=   3.1990E-04   setid =    1737 xmoment=   0.0000E+00 ymoment=   0.0000E+00 zmoment=   0.0000E+00
 nd#    1738  xforce=   0.0000E+00   yforce=   0.0000E+00  zforce=  -5.7976E+01   energy=   3.6235E-04   setid =    1738 xmoment=   0.0000E+00 ymoment=   0.0000E+00 zmoment=   0.0000E+00
 nd#    1739  xforce=   0.0000E+00   yforce=   0.0000E+00  zforce=  -5.1202E+01   energy=   3.2001E-04   setid =    1739 xmoment=   0.0000E+00 ymoment=   0.0000E+00 zmoment=   0.0000E+00
 nd#    1740  xforce=   0.0000E+00   yforce=   0.0000E+00  zforce=  -5.7244E+01   energy=   3.5778E-04   setid =    1740 xmoment=   0.0000E+00 ymoment=   0.0000E+00 zmoment=   0.0000E+00
 nd#    1741  xforce=   0.0000E+00   yforce=   0.0000E+00  zforce=  -5.1212E+01   energy=   3.2007E-04   setid =    1741 xmoment=   0.0000E+00 ymoment=   0.0000E+00 zmoment=   0.0000E+00
 nd#    1742  xforce=   0.0000E+00   yforce=   0.0000E+00  zforce=  -5.6134E+01   energy=   3.5084E-04   setid =    1742 xmoment=   0.0000E+00 ymoment=   0.0000E+00 zmoment=   0.0000E+00
 nd#    1743  xforce=   0.0000E+00   yforce=   0.0000E+00  zforce=  -2.5683E+01   energy=   1.6052E-04   setid =    1743 xmoment=   0.0000E+00 ymoment=   0.0000E+00 zmoment=   0.0000E+00
 nd#    1744  xforce=   0.0000E+00   yforce=   0.0000E+00  zforce=  -2.7859E+01   energy=   1.7412E-04   setid =    1744 xmoment=   0.0000E+00 ymoment=   0.0000E+00 zmoment=   0.0000E+00
 nd#    1751  xforce=   0.0000E+00   yforce=   0.0000E+00  zforce=  -3.8528E+01   energy=   2.4080E-04   setid =    1751 xmoment=   0.0000E+00 ymoment=   0.0000E+00 zmoment=   0.0000E+00
 nd#    1752  xforce=   0.0000E+00   yforce=   0.0000E+00  zforce=  -4.4382E+01   energy=   2.7739E-04   setid =    1752 xmoment=   0.0000E+00 ymoment=   0.0000E+00 zmoment=   0.0000E+00
 nd#    1753  xforce=   0.0000E+00   yforce=   0.0000E+00  zforce=  -3.8248E+01   energy=   2.3905E-04   setid =    1753 xmoment=   0.0000E+00 ymoment=   0.0000E+00 zmoment=   0.0000E+00
 nd#    1754  xforce=   0.0000E+00   yforce=   0.0000E+00  zforce=  -4.4287E+01   energy=   2.7679E-04   setid =    1754 xmoment=   0.0000E+00 ymoment=   0.0000E+00 zmoment=   0.0000E+00
 nd#    1755  xforce=   0.0000E+00   yforce=   0.0000E+00  zforce=  -3.7877E+01   energy=   2.3673E-04   setid =    1755 xmoment=   0.0000E+00 ymoment=   0.0000E+00 zmoment=   0.0000E+00
 nd#    1756  xforce=   0.0000E+00   yforce=   0.0000E+00  zforce=  -4.4116E+01   energy=   2.7572E-04   setid =    1756 xmoment=   0.0000E+00 ymoment=   0.0000E+00 zmoment=   0.0000E+00
 nd#    1757  xforce=   0.0000E+00   yforce=   0.0000E+00  zforce=  -3.7708E+01   energy=   2.3568E-04   setid =    1757 xmoment=   0.0000E+00 ymoment=   0.0000E+00 zmoment=   0.0000E+00
 nd#    1758  xforce=   0.0000E+00   yforce=   0.0000E+00  zforce=  -4.4047E+01   energy=   2.7529E-04   setid =    1758 xmoment=   0.0000E+00 ymoment=   0.0000E+00 zmoment=   0.0000E+00
 nd#    1759  xforce=   0.0000E+00   yforce=   0.0000E+00  zforce=  -3.7933E+01   energy=   2.3708E-04   setid =    1759 xmoment=   0.0000E+00 ymoment=   0.0000E+00 zmoment=   0.0000E+00
 nd#    1760  xforce=   0.0000E+00   yforce=   0.0000E+00  zforce=  -4.4171E+01   energy=   2.7607E-04   setid =    1760 xmoment=   0.0000E+00 ymoment=   0.0000E+00 zmoment=   0.0000E+00
 nd#    1761  xforce=   0.0000E+00   yforce=   0.0000E+00  zforce=  -1.9208E+01   energy=   1.2005E-04   setid =    1761 xmoment=   0.0000E+00 ymoment=   0.0000E+00 zmoment=   0.0000E+00
 nd#    1762  xforce=   0.0000E+00   yforce=   0.0000E+00  zforce=  -2.2245E+01   energy=   1.3903E-04   setid =    1762 xmoment=   0.0000E+00 ymoment=   0.0000E+00 zmoment=   0.0000E+00
 nd#    1769  xforce=   0.0000E+00   yforce=   0.0000E+00  zforce=  -1.4456E+01   energy=   9.0347E-05   setid =    1769 xmoment=   0.0000E+00 ymoment=   0.0000E+00 zmoment=   0.0000E+00
 nd#    1770  xforce=   0.0000E+00   yforce=   0.0000E+00  zforce=  -1.3754E+01   energy=   8.5960E-05   setid =    1770 xmoment=   0.0000E+00 ymoment=   0.0000E+00 zmoment=   0.0000E+00
 nd#    1771  xforce=   0.0000E+00   yforce=   0.0000E+00  zforce=  -1.3010E+01   energy=   8.1310E-05   setid =    1771 xmoment=   0.0000E+00 ymoment=   0.0000E+00 zmoment=   0.0000E+00
 nd#    1772  xforce=   0.0000E+00   yforce=   0.0000E+00  zforce=  -1.2565E+01   energy=   7.8529E-05   setid =    1772 xmoment=   0.0000E+00 ymoment=   0.0000E+00 zmoment=   0.0000E+00
 nd#    1773  xforce=   0.0000E+00   yforce=   0.0000E+00  zforce=  -1.2397E+01   energy=   7.7481E-05   setid =    1773 xmoment=   0.0000E+00 ymoment=   0.0000E+00 zmoment=   0.0000E+00
 nd#    1774  xforce=   0.0000E+00   yforce=   0.0000E+00  zforce=  -6.1893E+00   energy=   3.8683E-05   setid =    1774 xmoment=   0.0000E+00 ymoment=   0.0000E+00 zmoment=   0.0000E+00
              xtotal=   0.0000E+00   ytotal=   0.0000E+00  ztotal=  -1.7969E+03   etotal=   1.1230E-02

 n o d a l   f o r c e/e n e r g y    o u t p u t  t=   6.46223E+00

 velocity boundary condition forces/rigid body moments 

 nd#     354  xforce=   0.0000E+00   yforce=   0.0000E+00  zforce=  -3.6526E+01   energy=   5.9164E-04   setid =     354 xmoment=   0.0000E+00 ymoment=   0.0000E+00 zmoment=   0.0000E+00
 nd#     355  xforce=   0.0000E+00   yforce=   0.0000E+00  zforce=  -5.2666E+01   energy=   8.6329E-04   setid =     355 xmoment=   0.0000E+00 ymoment=   0.0000E+00 zmoment=   0.0000E+00
 nd#     356  xforce=   0.0000E+00   yforce=   0.0000E+00  zforce=  -2.7841E+01   energy=   4.5247E-04   setid =     356 xmoment=   0.0000E+00 ymoment=   0.0000E+00 zmoment=   0.0000E+00
 nd#     357  xforce=   0.0000E+00   yforce=   0.0000E+00  zforce=  -2.0581E+01   energy=   3.2776E-04   setid =     357 xmoment=   0.0000E+00 ymoment=   0.0000E+00 zmoment=   0.0000E+00
 nd#     403  xforce=   0.0000E+00   yforce=   0.0000E+00  zforce=  -2.2703E+01   energy=   3.7581E-04   setid =     403 xmoment=   0.0000E+00 ymoment=   0.0000E+00 zmoment=   0.0000E+00
 nd#     404  xforce=   0.0000E+00   yforce=   0.0000E+00  zforce=  -3.1223E+01   energy=   5.1022E-04   setid =     404 xmoment=   0.0000E+00 ymoment=   0.0000E+00 zmoment=   0.0000E+00
 nd#     405  xforce=   0.0000E+00   yforce=   0.0000E+00  zforce=  -2.9272E+01   energy=   4.7516E-04   setid =     405 xmoment=   0.0000E+00 ymoment=   0.0000E+00 zmoment=   0.0000E+00
 nd#     466  xforce=   0.0000E+00   yforce=   0.0000E+00  zforce=  -1.2653E+01   energy=   2.0522E-04   setid =     466 xmoment=   0.0000E+00 ymoment=   0.0000E+00 zmoment=   0.0000E+00
 nd#     467  xforce=   0.0000E+00   yforce=   0.0000E+00  zforce=  -1.6210E+01   energy=   2.7898E-04   setid =     467 xmoment=   0.0000E+00 ymoment=   0.0000E+00 zmoment=   0.0000E+00
 nd#     468  xforce=   0.0000E+00   yforce=   0.0000E+00  zforce=  -2.2595E+01   energy=   3.7561E-04   setid =     468 xmoment=   0.0000E+00 ymoment=   0.0000E+00 zmoment=   0.0000E+00
 nd#     469  xforce=   0.0000E+00   yforce=   0.0000E+00  zforce=  -1.9215E+01   energy=   3.1782E-04   setid =     469 xmoment=   0.0000E+00 ymoment=   0.0000E+00 zmoment=   0.0000E+00
 nd#     530  xforce=   0.0000E+00   yforce=   0.0000E+00  zforce=  -1.8452E+01   energy=   3.1194E-04   setid =     530 xmoment=   0.0000E+00 ymoment=   0.0000E+00 zmoment=   0.0000E+00
 nd#     531  xforce=   0.0000E+00   yforce=   0.0000E+00  zforce=  -2.5489E+01   energy=   4.1678E-04   setid =     531 xmoment=   0.0000E+00 ymoment=   0.0000E+00 zmoment=   0.0000E+00
 nd#     532  xforce=   0.0000E+00   yforce=   0.0000E+00  zforce=  -2.9417E+01   energy=   4.7174E-04   setid =     532 xmoment=   0.0000E+00 ymoment=   0.0000E+00 zmoment=   0.0000E+00
 nd#     533  xforce=   0.0000E+00   yforce=   0.0000E+00  zforce=  -2.2953E+01   energy=   3.7331E-04   setid =     533 xmoment=   0.0000E+00 ymoment=   0.0000E+00 zmoment=   0.0000E+00
 nd#     549  xforce=   0.0000E+00   yforce=   0.0000E+00  zforce=  -1.3263E+01   energy=   2.3170E-04   setid =     549 xmoment=   0.0000E+00 ymoment=   0.0000E+00 zmoment=   0.0000E+00
 nd#     610  xforce=   0.0000E+00   yforce=   0.0000E+00  zforce=  -3.0999E+01   energy=   5.0895E-04   setid =     610 xmoment=   0.0000E+00 ymoment=   0.0000E+00 zmoment=   0.0000E+00
 nd#     611  xforce=   0.0000E+00   yforce=   0.0000E+00  zforce=  -3.6080E+01   energy=   5.8299E-04   setid =     611 xmoment=   0.0000E+00 ymoment=   0.0000E+00 zmoment=   0.0000E+00
 nd#     612  xforce=   0.0000E+00   yforce=   0.0000E+00  zforce=  -6.0419E+01   energy=   9.6916E-04   setid =     612 xmoment=   0.0000E+00 ymoment=   0.0000E+00 zmoment=   0.0000E+00
 nd#     613  xforce=   0.0000E+00   yforce=   0.0000E+00  zforce=  -5.6478E+01   energy=   9.1466E-04   setid =     613 xmoment=   0.0000E+00 ymoment=   0.0000E+00 zmoment=   0.0000E+00
 nd#     629  xforce=   0.0000E+00   yforce=   0.0000E+00  zforce=  -2.7875E+01   energy=   4.5648E-04   setid =     629 xmoment=   0.0000E+00 ymoment=   0.0000E+00 zmoment=   0.0000E+00
 nd#     660  xforce=   0.0000E+00   yforce=   0.0000E+00  zforce=  -1.6379E+01   energy=   2.5793E-04   setid =     660 xmoment=   0.0000E+00 ymoment=   0.0000E+00 zmoment=   0.0000E+00
 nd#     661  xforce=   0.0000E+00   yforce=   0.0000E+00  zforce=  -1.8040E+01   energy=   2.8070E-04   setid =     661 xmoment=   0.0000E+00 ymoment=   0.0000E+00 zmoment=   0.0000E+00
 nd#     692  xforce=   0.0000E+00   yforce=   0.0000E+00  zforce=  -5.2890E+01   energy=   8.5848E-04   setid =     692 xmoment=   0.0000E+00 ymoment=   0.0000E+00 zmoment=   0.0000E+00
 nd#     693  xforce=   0.0000E+00   yforce=   0.0000E+00  zforce=  -5.1670E+01   energy=   8.4441E-04   setid =     693 xmoment=   0.0000E+00 ymoment=   0.0000E+00 zmoment=   0.0000E+00
 nd#     724  xforce=   0.0000E+00   yforce=   0.0000E+00  zforce=  -9.7967E+00   energy=   1.4980E-04   setid =     724 xmoment=   0.0000E+00 ymoment=   0.0000E+00 zmoment=   0.0000E+00
 nd#     725  xforce=   0.0000E+00   yforce=   0.0000E+00  zforce=  -1.6185E+01   energy=   2.5404E-04   setid =     725 xmoment=   0.0000E+00 ymoment=   0.0000E+00 zmoment=   0.0000E+00
 nd#     771  xforce=   0.0000E+00   yforce=   0.0000E+00  zforce=  -2.0042E+01   energy=   3.3472E-04   setid =     771 xmoment=   0.0000E+00 ymoment=   0.0000E+00 zmoment=   0.0000E+00
 nd#     772  xforce=   0.0000E+00   yforce=   0.0000E+00  zforce=  -1.7508E+01   energy=   2.7773E-04   setid =     772 xmoment=   0.0000E+00 ymoment=   0.0000E+00 zmoment=   0.0000E+00
 nd#     773  xforce=   0.0000E+00   yforce=   0.0000E+00  zforce=  -1.4465E+01   energy=   2.2863E-04   setid =     773 xmoment=   0.0000E+00 ymoment=   0.0000E+00 zmoment=   0.0000E+00
 nd#     804  xforce=   0.0000E+00   yforce=   0.0000E+00  zforce=  -1.9061E+01   energy=   3.0423E-04   setid =     804 xmoment=   0.0000E+00 ymoment=   0.0000E+00 zmoment=   0.0000E+00
 nd#     805  xforce=   0.0000E+00   yforce=   0.0000E+00  zforce=  -3.0953E+01   energy=   4.9288E-04   setid =     805 xmoment=   0.0000E+00 ymoment=   0.0000E+00 zmoment=   0.0000E+00
 nd#     821  xforce=   0.0000E+00   yforce=   0.0000E+00  zforce=  -1.2756E+01   energy=   2.0229E-04   setid =     821 xmoment=   0.0000E+00 ymoment=   0.0000E+00 zmoment=   0.0000E+00
 nd#     852  xforce=   0.0000E+00   yforce=   0.0000E+00  zforce=  -2.5654E+01   energy=   4.1539E-04   setid =     852 xmoment=   0.0000E+00 ymoment=   0.0000E+00 zmoment=   0.0000E+00
 nd#     853  xforce=   0.0000E+00   yforce=   0.0000E+00  zforce=  -2.8033E+01   energy=   4.5418E-04   setid =     853 xmoment=   0.0000E+00 ymoment=   0.0000E+00 zmoment=   0.0000E+00
 nd#     869  xforce=   0.0000E+00   yforce=   0.0000E+00  zforce=  -1.5414E+01   energy=   2.4521E-04   setid =     869 xmoment=   0.0000E+00 ymoment=   0.0000E+00 zmoment=   0.0000E+00
 nd#     885  xforce=   0.0000E+00   yforce=   0.0000E+00  zforce=  -1.5929E+01   energy=   2.4824E-04   setid =     885 xmoment=   0.0000E+00 ymoment=   0.0000E+00 zmoment=   0.0000E+00
 nd#    1082  xforce=   0.0000E+00   yforce=   0.0000E+00  zforce=  -1.6801E+01   energy=   2.8525E-04   setid =    1082 xmoment=   0.0000E+00 ymoment=   0.0000E+00 zmoment=   0.0000E+00
 nd#    1083  xforce=   0.0000E+00   yforce=   0.0000E+00  zforce=  -7.0546E+01   energy=   1.1546E-03   setid =    1083 xmoment=   0.0000E+00 ymoment=   0.0000E+00 zmoment=   0.0000E+00
 nd#    1084  xforce=   0.0000E+00   yforce=   0.0000E+00  zforce=  -6.4546E+01   energy=   1.0497E-03   setid =    1084 xmoment=   0.0000E+00 ymoment=   0.0000E+00 zmoment=   0.0000E+00
 nd#    1085  xforce=   0.0000E+00   yforce=   0.0000E+00  zforce=  -5.6983E+01   energy=   9.2243E-04   setid =    1085 xmoment=   0.0000E+00 ymoment=   0.0000E+00 zmoment=   0.0000E+00
 nd#    1086  xforce=   0.0000E+00   yforce=   0.0000E+00  zforce=  -4.9994E+01   energy=   8.0644E-04   setid =    1086 xmoment=   0.0000E+00 ymoment=   0.0000E+00 zmoment=   0.0000E+00
 nd#    1087  xforce=   0.0000E+00   yforce=   0.0000E+00  zforce=  -4.2605E+01   energy=   6.8493E-04   setid =    1087 xmoment=   0.0000E+00 ymoment=   0.0000E+00 zmoment=   0.0000E+00
 nd#    1649  xforce=   0.0000E+00   yforce=   0.0000E+00  zforce=  -8.3818E+01   energy=   1.3546E-03   setid =    1649 xmoment=   0.0000E+00 ymoment=   0.0000E+00 zmoment=   0.0000E+00
 nd#    1651  xforce=   0.0000E+00   yforce=   0.0000E+00  zforce=  -8.1025E+01   energy=   1.3187E-03   setid =    1651 xmoment=   0.0000E+00 ymoment=   0.0000E+00 zmoment=   0.0000E+00
 nd#    1653  xforce=   0.0000E+00   yforce=   0.0000E+00  zforce=  -7.9822E+01   energy=   1.2985E-03   setid =    1653 xmoment=   0.0000E+00 ymoment=   0.0000E+00 zmoment=   0.0000E+00
 nd#    1655  xforce=   0.0000E+00   yforce=   0.0000E+00  zforce=  -7.9839E+01   energy=   1.2983E-03   setid =    1655 xmoment=   0.0000E+00 ymoment=   0.0000E+00 zmoment=   0.0000E+00
 nd#    1657  xforce=   0.0000E+00   yforce=   0.0000E+00  zforce=  -8.1522E+01   energy=   1.3241E-03   setid =    1657 xmoment=   0.0000E+00 ymoment=   0.0000E+00 zmoment=   0.0000E+00
 nd#    1659  xforce=   0.0000E+00   yforce=   0.0000E+00  zforce=  -4.2314E+01   energy=   6.8352E-04   setid =    1659 xmoment=   0.0000E+00 ymoment=   0.0000E+00 zmoment=   0.0000E+00
 nd#    1733  xforce=   0.0000E+00   yforce=   0.0000E+00  zforce=  -1.2920E+02   energy=   2.1029E-03   setid =    1733 xmoment=   0.0000E+00 ymoment=   0.0000E+00 zmoment=   0.0000E+00
 nd#    1734  xforce=   0.0000E+00   yforce=   0.0000E+00  zforce=  -1.4258E+02   energy=   2.3319E-03   setid =    1734 xmoment=   0.0000E+00 ymoment=   0.0000E+00 zmoment=   0.0000E+00
 nd#    1735  xforce=   0.0000E+00   yforce=   0.0000E+00  zforce=  -1.2924E+02   energy=   2.1060E-03   setid =    1735 xmoment=   0.0000E+00 ymoment=   0.0000E+00 zmoment=   0.0000E+00
 nd#    1736  xforce=   0.0000E+00   yforce=   0.0000E+00  zforce=  -1.4566E+02   energy=   2.3758E-03   setid =    1736 xmoment=   0.0000E+00 ymoment=   0.0000E+00 zmoment=   0.0000E+00
 nd#    1737  xforce=   0.0000E+00   yforce=   0.0000E+00  zforce=  -1.2990E+02   energy=   2.1137E-03   setid =    1737 xmoment=   0.0000E+00 ymoment=   0.0000E+00 zmoment=   0.0000E+00
 nd#    1738  xforce=   0.0000E+00   yforce=   0.0000E+00  zforce=  -1.4770E+02   energy=   2.3997E-03   setid =    1738 xmoment=   0.0000E+00 ymoment=   0.0000E+00 zmoment=   0.0000E+00
 nd#    1739  xforce=   0.0000E+00   yforce=   0.0000E+00  zforce=  -1.3059E+02   energy=   2.1208E-03   setid =    1739 xmoment=   0.0000E+00 ymoment=   0.0000E+00 zmoment=   0.0000E+00
 nd#    1740  xforce=   0.0000E+00   yforce=   0.0000E+00  zforce=  -1.4590E+02   energy=   2.3700E-03   setid =    1740 xmoment=   0.0000E+00 ymoment=   0.0000E+00 zmoment=   0.0000E+00
 nd#    1741  xforce=   0.0000E+00   yforce=   0.0000E+00  zforce=  -1.3066E+02   energy=   2.1216E-03   setid =    1741 xmoment=   0.0000E+00 ymoment=   0.0000E+00 zmoment=   0.0000E+00
 nd#    1742  xforce=   0.0000E+00   yforce=   0.0000E+00  zforce=  -1.4137E+02   energy=   2.3072E-03   setid =    1742 xmoment=   0.0000E+00 ymoment=   0.0000E+00 zmoment=   0.0000E+00
 nd#    1743  xforce=   0.0000E+00   yforce=   0.0000E+00  zforce=  -6.5651E+01   energy=   1.0652E-03   setid =    1743 xmoment=   0.0000E+00 ymoment=   0.0000E+00 zmoment=   0.0000E+00
 nd#    1744  xforce=   0.0000E+00   yforce=   0.0000E+00  zforce=  -6.9685E+01   energy=   1.1404E-03   setid =    1744 xmoment=   0.0000E+00 ymoment=   0.0000E+00 zmoment=   0.0000E+00
 nd#    1751  xforce=   0.0000E+00   yforce=   0.0000E+00  zforce=  -9.9115E+01   energy=   1.6042E-03   setid =    1751 xmoment=   0.0000E+00 ymoment=   0.0000E+00 zmoment=   0.0000E+00
 nd#    1752  xforce=   0.0000E+00   yforce=   0.0000E+00  zforce=  -1.1353E+02   energy=   1.8416E-03   setid =    1752 xmoment=   0.0000E+00 ymoment=   0.0000E+00 zmoment=   0.0000E+00
 nd#    1753  xforce=   0.0000E+00   yforce=   0.0000E+00  zforce=  -9.7268E+01   energy=   1.5814E-03   setid =    1753 xmoment=   0.0000E+00 ymoment=   0.0000E+00 zmoment=   0.0000E+00
 nd#    1754  xforce=   0.0000E+00   yforce=   0.0000E+00  zforce=  -1.1248E+02   energy=   1.8296E-03   setid =    1754 xmoment=   0.0000E+00 ymoment=   0.0000E+00 zmoment=   0.0000E+00
 nd#    1755  xforce=   0.0000E+00   yforce=   0.0000E+00  zforce=  -9.6419E+01   energy=   1.5670E-03   setid =    1755 xmoment=   0.0000E+00 ymoment=   0.0000E+00 zmoment=   0.0000E+00
 nd#    1756  xforce=   0.0000E+00   yforce=   0.0000E+00  zforce=  -1.1225E+02   energy=   1.8246E-03   setid =    1756 xmoment=   0.0000E+00 ymoment=   0.0000E+00 zmoment=   0.0000E+00
 nd#    1757  xforce=   0.0000E+00   yforce=   0.0000E+00  zforce=  -9.5998E+01   energy=   1.5601E-03   setid =    1757 xmoment=   0.0000E+00 ymoment=   0.0000E+00 zmoment=   0.0000E+00
 nd#    1758  xforce=   0.0000E+00   yforce=   0.0000E+00  zforce=  -1.1233E+02   energy=   1.8243E-03   setid =    1758 xmoment=   0.0000E+00 ymoment=   0.0000E+00 zmoment=   0.0000E+00
 nd#    1759  xforce=   0.0000E+00   yforce=   0.0000E+00  zforce=  -9.6549E+01   energy=   1.5692E-03   setid =    1759 xmoment=   0.0000E+00 ymoment=   0.0000E+00 zmoment=   0.0000E+00
 nd#    1760  xforce=   0.0000E+00   yforce=   0.0000E+00  zforce=  -1.1265E+02   energy=   1.8295E-03   setid =    1760 xmoment=   0.0000E+00 ymoment=   0.0000E+00 zmoment=   0.0000E+00
 nd#    1761  xforce=   0.0000E+00   yforce=   0.0000E+00  zforce=  -4.9298E+01   energy=   7.9864E-04   setid =    1761 xmoment=   0.0000E+00 ymoment=   0.0000E+00 zmoment=   0.0000E+00
 nd#    1762  xforce=   0.0000E+00   yforce=   0.0000E+00  zforce=  -5.7011E+01   energy=   9.2410E-04   setid =    1762 xmoment=   0.0000E+00 ymoment=   0.0000E+00 zmoment=   0.0000E+00
 nd#    1769  xforce=   0.0000E+00   yforce=   0.0000E+00  zforce=  -3.2368E+01   energy=   5.5416E-04   setid =    1769 xmoment=   0.0000E+00 ymoment=   0.0000E+00 zmoment=   0.0000E+00
 nd#    1770  xforce=   0.0000E+00   yforce=   0.0000E+00  zforce=  -2.9312E+01   energy=   5.1255E-04   setid =    1770 xmoment=   0.0000E+00 ymoment=   0.0000E+00 zmoment=   0.0000E+00
 nd#    1771  xforce=   0.0000E+00   yforce=   0.0000E+00  zforce=  -2.6303E+01   energy=   4.7073E-04   setid =    1771 xmoment=   0.0000E+00 ymoment=   0.0000E+00 zmoment=   0.0000E+00
 nd#    1772  xforce=   0.0000E+00   yforce=   0.0000E+00  zforce=  -2.4234E+01   energy=   4.4305E-04   setid =    1772 xmoment=   0.0000E+00 ymoment=   0.0000E+00 zmoment=   0.0000E+00
 nd#    1773  xforce=   0.0000E+00   yforce=   0.0000E+00  zforce=  -2.2712E+01   energy=   4.2526E-04   setid =    1773 xmoment=   0.0000E+00 ymoment=   0.0000E+00 zmoment=   0.0000E+00
 nd#    1774  xforce=   0.0000E+00   yforce=   0.0000E+00  zforce=  -1.1033E+01   energy=   2.0928E-04   setid =    1774 xmoment=   0.0000E+00 ymoment=   0.0000E+00 zmoment=   0.0000E+00
              xtotal=   0.0000E+00   ytotal=   0.0000E+00  ztotal=  -4.5365E+03   etotal=   7.3966E-02

 n o d a l   f o r c e/e n e r g y    o u t p u t  t=   7.81516E+00

 velocity boundary condition forces/rigid body moments 

 nd#     354  xforce=   0.0000E+00   yforce=   0.0000E+00  zforce=  -4.2500E+01   energy=   8.5893E-04   setid =     354 xmoment=   0.0000E+00 ymoment=   0.0000E+00 zmoment=   0.0000E+00
 nd#     355  xforce=   0.0000E+00   yforce=   0.0000E+00  zforce=  -5.7933E+01   energy=   1.2374E-03   setid =     355 xmoment=   0.0000E+00 ymoment=   0.0000E+00 zmoment=   0.0000E+00
 nd#     356  xforce=   0.0000E+00   yforce=   0.0000E+00  zforce=  -3.2150E+01   energy=   6.5538E-04   setid =     356 xmoment=   0.0000E+00 ymoment=   0.0000E+00 zmoment=   0.0000E+00
 nd#     357  xforce=   0.0000E+00   yforce=   0.0000E+00  zforce=  -2.6234E+01   energy=   4.8610E-04   setid =     357 xmoment=   0.0000E+00 ymoment=   0.0000E+00 zmoment=   0.0000E+00
 nd#     403  xforce=   0.0000E+00   yforce=   0.0000E+00  zforce=  -2.3219E+01   energy=   5.3113E-04   setid =     403 xmoment=   0.0000E+00 ymoment=   0.0000E+00 zmoment=   0.0000E+00
 nd#     404  xforce=   0.0000E+00   yforce=   0.0000E+00  zforce=  -3.4841E+01   energy=   7.3367E-04   setid =     404 xmoment=   0.0000E+00 ymoment=   0.0000E+00 zmoment=   0.0000E+00
 nd#     405  xforce=   0.0000E+00   yforce=   0.0000E+00  zforce=  -3.3442E+01   energy=   6.8728E-04   setid =     405 xmoment=   0.0000E+00 ymoment=   0.0000E+00 zmoment=   0.0000E+00
 nd#     466  xforce=   0.0000E+00   yforce=   0.0000E+00  zforce=  -1.4301E+01   energy=   2.9638E-04   setid =     466 xmoment=   0.0000E+00 ymoment=   0.0000E+00 zmoment=   0.0000E+00
 nd#     467  xforce=   0.0000E+00   yforce=   0.0000E+00  zforce=  -1.1316E+01   energy=   3.7208E-04   setid =     467 xmoment=   0.0000E+00 ymoment=   0.0000E+00 zmoment=   0.0000E+00
 nd#     468  xforce=   0.0000E+00   yforce=   0.0000E+00  zforce=  -2.2900E+01   energy=   5.2949E-04   setid =     468 xmoment=   0.0000E+00 ymoment=   0.0000E+00 zmoment=   0.0000E+00
 nd#     469  xforce=   0.0000E+00   yforce=   0.0000E+00  zforce=  -1.9874E+01   energy=   4.5003E-04   setid =     469 xmoment=   0.0000E+00 ymoment=   0.0000E+00 zmoment=   0.0000E+00
 nd#     530  xforce=   0.0000E+00   yforce=   0.0000E+00  zforce=  -1.6320E+01   energy=   4.2955E-04   setid =     530 xmoment=   0.0000E+00 ymoment=   0.0000E+00 zmoment=   0.0000E+00
 nd#     531  xforce=   0.0000E+00   yforce=   0.0000E+00  zforce=  -2.7251E+01   energy=   5.9516E-04   setid =     531 xmoment=   0.0000E+00 ymoment=   0.0000E+00 zmoment=   0.0000E+00
 nd#     532  xforce=   0.0000E+00   yforce=   0.0000E+00  zforce=  -3.4988E+01   energy=   6.8957E-04   setid =     532 xmoment=   0.0000E+00 ymoment=   0.0000E+00 zmoment=   0.0000E+00
 nd#     533  xforce=   0.0000E+00   yforce=   0.0000E+00  zforce=  -2.5611E+01   energy=   5.3757E-04   setid =     533 xmoment=   0.0000E+00 ymoment=   0.0000E+00 zmoment=   0.0000E+00
 nd#     549  xforce=   0.0000E+00   yforce=   0.0000E+00  zforce=  -8.8935E+00   energy=   3.0664E-04   setid =     549 xmoment=   0.0000E+00 ymoment=   0.0000E+00 zmoment=   0.0000E+00
 nd#     610  xforce=   0.0000E+00   yforce=   0.0000E+00  zforce=  -3.3737E+01   energy=   7.2791E-04   setid =     610 xmoment=   0.0000E+00 ymoment=   0.0000E+00 zmoment=   0.0000E+00
 nd#     611  xforce=   0.0000E+00   yforce=   0.0000E+00  zforce=  -4.2040E+01   energy=   8.4721E-04   setid =     611 xmoment=   0.0000E+00 ymoment=   0.0000E+00 zmoment=   0.0000E+00
 nd#     612  xforce=   0.0000E+00   yforce=   0.0000E+00  zforce=  -7.3508E+01   energy=   1.4221E-03   setid =     612 xmoment=   0.0000E+00 ymoment=   0.0000E+00 zmoment=   0.0000E+00
 nd#     613  xforce=   0.0000E+00   yforce=   0.0000E+00  zforce=  -6.5875E+01   energy=   1.3285E-03   setid =     613 xmoment=   0.0000E+00 ymoment=   0.0000E+00 zmoment=   0.0000E+00
 nd#     629  xforce=   0.0000E+00   yforce=   0.0000E+00  zforce=  -3.0579E+01   energy=   6.5419E-04   setid =     629 xmoment=   0.0000E+00 ymoment=   0.0000E+00 zmoment=   0.0000E+00
 nd#     660  xforce=   0.0000E+00   yforce=   0.0000E+00  zforce=  -2.2641E+01   energy=   3.8991E-04   setid =     660 xmoment=   0.0000E+00 ymoment=   0.0000E+00 zmoment=   0.0000E+00
 nd#     661  xforce=   0.0000E+00   yforce=   0.0000E+00  zforce=  -2.5416E+01   energy=   4.2768E-04   setid =     661 xmoment=   0.0000E+00 ymoment=   0.0000E+00 zmoment=   0.0000E+00
 nd#     692  xforce=   0.0000E+00   yforce=   0.0000E+00  zforce=  -6.1007E+01   energy=   1.2437E-03   setid =     692 xmoment=   0.0000E+00 ymoment=   0.0000E+00 zmoment=   0.0000E+00
 nd#     693  xforce=   0.0000E+00   yforce=   0.0000E+00  zforce=  -5.7953E+01   energy=   1.2152E-03   setid =     693 xmoment=   0.0000E+00 ymoment=   0.0000E+00 zmoment=   0.0000E+00
 nd#     724  xforce=   0.0000E+00   yforce=   0.0000E+00  zforce=  -1.5398E+01   energy=   2.3502E-04   setid =     724 xmoment=   0.0000E+00 ymoment=   0.0000E+00 zmoment=   0.0000E+00
 nd#     725  xforce=   0.0000E+00   yforce=   0.0000E+00  zforce=  -2.2775E+01   energy=   3.8581E-04   setid =     725 xmoment=   0.0000E+00 ymoment=   0.0000E+00 zmoment=   0.0000E+00
 nd#     771  xforce=   0.0000E+00   yforce=   0.0000E+00  zforce=  -1.8880E+01   energy=   4.6636E-04   setid =     771 xmoment=   0.0000E+00 ymoment=   0.0000E+00 zmoment=   0.0000E+00
 nd#     772  xforce=   0.0000E+00   yforce=   0.0000E+00  zforce=  -2.2767E+01   energy=   4.1395E-04   setid =     772 xmoment=   0.0000E+00 ymoment=   0.0000E+00 zmoment=   0.0000E+00
 nd#     773  xforce=   0.0000E+00   yforce=   0.0000E+00  zforce=  -2.0300E+01   energy=   3.4622E-04   setid =     773 xmoment=   0.0000E+00 ymoment=   0.0000E+00 zmoment=   0.0000E+00
 nd#     804  xforce=   0.0000E+00   yforce=   0.0000E+00  zforce=  -2.4309E+01   energy=   4.5092E-04   setid =     804 xmoment=   0.0000E+00 ymoment=   0.0000E+00 zmoment=   0.0000E+00
 nd#     805  xforce=   0.0000E+00   yforce=   0.0000E+00  zforce=  -3.9636E+01   energy=   7.3164E-04   setid =     805 xmoment=   0.0000E+00 ymoment=   0.0000E+00 zmoment=   0.0000E+00
 nd#     821  xforce=   0.0000E+00   yforce=   0.0000E+00  zforce=  -1.7532E+01   energy=   3.0473E-04   setid =     821 xmoment=   0.0000E+00 ymoment=   0.0000E+00 zmoment=   0.0000E+00
 nd#     852  xforce=   0.0000E+00   yforce=   0.0000E+00  zforce=  -2.7773E+01   energy=   5.9609E-04   setid =     852 xmoment=   0.0000E+00 ymoment=   0.0000E+00 zmoment=   0.0000E+00
 nd#     853  xforce=   0.0000E+00   yforce=   0.0000E+00  zforce=  -3.1635E+01   energy=   6.5600E-04   setid =     853 xmoment=   0.0000E+00 ymoment=   0.0000E+00 zmoment=   0.0000E+00
 nd#     869  xforce=   0.0000E+00   yforce=   0.0000E+00  zforce=  -2.0136E+01   energy=   3.6545E-04   setid =     869 xmoment=   0.0000E+00 ymoment=   0.0000E+00 zmoment=   0.0000E+00
 nd#     885  xforce=   0.0000E+00   yforce=   0.0000E+00  zforce=  -2.2820E+01   energy=   3.7930E-04   setid =     885 xmoment=   0.0000E+00 ymoment=   0.0000E+00 zmoment=   0.0000E+00
 nd#    1082  xforce=   0.0000E+00   yforce=   0.0000E+00  zforce=  -1.2791E+01   energy=   3.8534E-04   setid =    1082 xmoment=   0.0000E+00 ymoment=   0.0000E+00 zmoment=   0.0000E+00
 nd#    1083  xforce=   0.0000E+00   yforce=   0.0000E+00  zforce=  -7.6361E+01   energy=   1.6515E-03   setid =    1083 xmoment=   0.0000E+00 ymoment=   0.0000E+00 zmoment=   0.0000E+00
 nd#    1084  xforce=   0.0000E+00   yforce=   0.0000E+00  zforce=  -7.2825E+01   energy=   1.5143E-03   setid =    1084 xmoment=   0.0000E+00 ymoment=   0.0000E+00 zmoment=   0.0000E+00
 nd#    1085  xforce=   0.0000E+00   yforce=   0.0000E+00  zforce=  -6.6397E+01   energy=   1.3397E-03   setid =    1085 xmoment=   0.0000E+00 ymoment=   0.0000E+00 zmoment=   0.0000E+00
 nd#    1086  xforce=   0.0000E+00   yforce=   0.0000E+00  zforce=  -5.9470E+01   energy=   1.1767E-03   setid =    1086 xmoment=   0.0000E+00 ymoment=   0.0000E+00 zmoment=   0.0000E+00
 nd#    1087  xforce=   0.0000E+00   yforce=   0.0000E+00  zforce=  -5.2127E+01   energy=   1.0053E-03   setid =    1087 xmoment=   0.0000E+00 ymoment=   0.0000E+00 zmoment=   0.0000E+00
 nd#    1649  xforce=   0.0000E+00   yforce=   0.0000E+00  zforce=  -9.8919E+01   energy=   1.9727E-03   setid =    1649 xmoment=   0.0000E+00 ymoment=   0.0000E+00 zmoment=   0.0000E+00
 nd#    1651  xforce=   0.0000E+00   yforce=   0.0000E+00  zforce=  -9.2526E+01   energy=   1.9057E-03   setid =    1651 xmoment=   0.0000E+00 ymoment=   0.0000E+00 zmoment=   0.0000E+00
 nd#    1653  xforce=   0.0000E+00   yforce=   0.0000E+00  zforce=  -9.1028E+01   energy=   1.8764E-03   setid =    1653 xmoment=   0.0000E+00 ymoment=   0.0000E+00 zmoment=   0.0000E+00
 nd#    1655  xforce=   0.0000E+00   yforce=   0.0000E+00  zforce=  -9.1564E+01   energy=   1.8781E-03   setid =    1655 xmoment=   0.0000E+00 ymoment=   0.0000E+00 zmoment=   0.0000E+00
 nd#    1657  xforce=   0.0000E+00   yforce=   0.0000E+00  zforce=  -9.3804E+01   energy=   1.9171E-03   setid =    1657 xmoment=   0.0000E+00 ymoment=   0.0000E+00 zmoment=   0.0000E+00
 nd#    1659  xforce=   0.0000E+00   yforce=   0.0000E+00  zforce=  -4.9908E+01   energy=   9.9544E-04   setid =    1659 xmoment=   0.0000E+00 ymoment=   0.0000E+00 zmoment=   0.0000E+00
 nd#    1733  xforce=   0.0000E+00   yforce=   0.0000E+00  zforce=  -1.4548E+02   energy=   3.0320E-03   setid =    1733 xmoment=   0.0000E+00 ymoment=   0.0000E+00 zmoment=   0.0000E+00
 nd#    1734  xforce=   0.0000E+00   yforce=   0.0000E+00  zforce=  -1.5559E+02   energy=   3.3404E-03   setid =    1734 xmoment=   0.0000E+00 ymoment=   0.0000E+00 zmoment=   0.0000E+00
 nd#    1735  xforce=   0.0000E+00   yforce=   0.0000E+00  zforce=  -1.4534E+02   energy=   3.0347E-03   setid =    1735 xmoment=   0.0000E+00 ymoment=   0.0000E+00 zmoment=   0.0000E+00
 nd#    1736  xforce=   0.0000E+00   yforce=   0.0000E+00  zforce=  -1.6312E+02   energy=   3.4201E-03   setid =    1736 xmoment=   0.0000E+00 ymoment=   0.0000E+00 zmoment=   0.0000E+00
 nd#    1737  xforce=   0.0000E+00   yforce=   0.0000E+00  zforce=  -1.4753E+02   energy=   3.0520E-03   setid =    1737 xmoment=   0.0000E+00 ymoment=   0.0000E+00 zmoment=   0.0000E+00
 nd#    1738  xforce=   0.0000E+00   yforce=   0.0000E+00  zforce=  -1.6974E+02   energy=   3.4734E-03   setid =    1738 xmoment=   0.0000E+00 ymoment=   0.0000E+00 zmoment=   0.0000E+00
 nd#    1739  xforce=   0.0000E+00   yforce=   0.0000E+00  zforce=  -1.5102E+02   energy=   3.0733E-03   setid =    1739 xmoment=   0.0000E+00 ymoment=   0.0000E+00 zmoment=   0.0000E+00
 nd#    1740  xforce=   0.0000E+00   yforce=   0.0000E+00  zforce=  -1.6854E+02   energy=   3.4336E-03   setid =    1740 xmoment=   0.0000E+00 ymoment=   0.0000E+00 zmoment=   0.0000E+00
 nd#    1741  xforce=   0.0000E+00   yforce=   0.0000E+00  zforce=  -1.5073E+02   energy=   3.0733E-03   setid =    1741 xmoment=   0.0000E+00 ymoment=   0.0000E+00 zmoment=   0.0000E+00
 nd#    1742  xforce=   0.0000E+00   yforce=   0.0000E+00  zforce=  -1.5800E+02   energy=   3.3198E-03   setid =    1742 xmoment=   0.0000E+00 ymoment=   0.0000E+00 zmoment=   0.0000E+00
 nd#    1743  xforce=   0.0000E+00   yforce=   0.0000E+00  zforce=  -7.5869E+01   energy=   1.5439E-03   setid =    1743 xmoment=   0.0000E+00 ymoment=   0.0000E+00 zmoment=   0.0000E+00
 nd#    1744  xforce=   0.0000E+00   yforce=   0.0000E+00  zforce=  -7.6291E+01   energy=   1.6341E-03   setid =    1744 xmoment=   0.0000E+00 ymoment=   0.0000E+00 zmoment=   0.0000E+00
 nd#    1751  xforce=   0.0000E+00   yforce=   0.0000E+00  zforce=  -1.1530E+02   energy=   2.3295E-03   setid =    1751 xmoment=   0.0000E+00 ymoment=   0.0000E+00 zmoment=   0.0000E+00
 nd#    1752  xforce=   0.0000E+00   yforce=   0.0000E+00  zforce=  -1.3071E+02   energy=   2.6677E-03   setid =    1752 xmoment=   0.0000E+00 ymoment=   0.0000E+00 zmoment=   0.0000E+00
 nd#    1753  xforce=   0.0000E+00   yforce=   0.0000E+00  zforce=  -1.1113E+02   energy=   2.2863E-03   setid =    1753 xmoment=   0.0000E+00 ymoment=   0.0000E+00 zmoment=   0.0000E+00
 nd#    1754  xforce=   0.0000E+00   yforce=   0.0000E+00  zforce=  -1.2811E+02   energy=   2.6434E-03   setid =    1754 xmoment=   0.0000E+00 ymoment=   0.0000E+00 zmoment=   0.0000E+00
 nd#    1755  xforce=   0.0000E+00   yforce=   0.0000E+00  zforce=  -1.1020E+02   energy=   2.2658E-03   setid =    1755 xmoment=   0.0000E+00 ymoment=   0.0000E+00 zmoment=   0.0000E+00
 nd#    1756  xforce=   0.0000E+00   yforce=   0.0000E+00  zforce=  -1.2806E+02   energy=   2.6374E-03   setid =    1756 xmoment=   0.0000E+00 ymoment=   0.0000E+00 zmoment=   0.0000E+00
 nd#    1757  xforce=   0.0000E+00   yforce=   0.0000E+00  zforce=  -1.1078E+02   energy=   2.2595E-03   setid =    1757 xmoment=   0.0000E+00 ymoment=   0.0000E+00 zmoment=   0.0000E+00
 nd#    1758  xforce=   0.0000E+00   yforce=   0.0000E+00  zforce=  -1.2969E+02   energy=   2.6429E-03   setid =    1758 xmoment=   0.0000E+00 ymoment=   0.0000E+00 zmoment=   0.0000E+00
 nd#    1759  xforce=   0.0000E+00   yforce=   0.0000E+00  zforce=  -1.1120E+02   energy=   2.2719E-03   setid =    1759 xmoment=   0.0000E+00 ymoment=   0.0000E+00 zmoment=   0.0000E+00
 nd#    1760  xforce=   0.0000E+00   yforce=   0.0000E+00  zforce=  -1.2956E+02   energy=   2.6487E-03   setid =    1760 xmoment=   0.0000E+00 ymoment=   0.0000E+00 zmoment=   0.0000E+00
 nd#    1761  xforce=   0.0000E+00   yforce=   0.0000E+00  zforce=  -5.7515E+01   energy=   1.1599E-03   setid =    1761 xmoment=   0.0000E+00 ymoment=   0.0000E+00 zmoment=   0.0000E+00
 nd#    1762  xforce=   0.0000E+00   yforce=   0.0000E+00  zforce=  -6.6075E+01   energy=   1.3404E-03   setid =    1762 xmoment=   0.0000E+00 ymoment=   0.0000E+00 zmoment=   0.0000E+00
 nd#    1769  xforce=   0.0000E+00   yforce=   0.0000E+00  zforce=  -2.2324E+01   energy=   7.3914E-04   setid =    1769 xmoment=   0.0000E+00 ymoment=   0.0000E+00 zmoment=   0.0000E+00
 nd#    1770  xforce=   0.0000E+00   yforce=   0.0000E+00  zforce=  -1.4515E+01   energy=   6.6079E-04   setid =    1770 xmoment=   0.0000E+00 ymoment=   0.0000E+00 zmoment=   0.0000E+00
 nd#    1771  xforce=   0.0000E+00   yforce=   0.0000E+00  zforce=  -7.2045E+00   energy=   5.8406E-04   setid =    1771 xmoment=   0.0000E+00 ymoment=   0.0000E+00 zmoment=   0.0000E+00
 nd#    1772  xforce=   0.0000E+00   yforce=   0.0000E+00  zforce=  -4.1278E+00   energy=   5.3898E-04   setid =    1772 xmoment=   0.0000E+00 ymoment=   0.0000E+00 zmoment=   0.0000E+00
 nd#    1773  xforce=   0.0000E+00   yforce=   0.0000E+00  zforce=   9.9519E-01   energy=   4.9871E-04   setid =    1773 xmoment=   0.0000E+00 ymoment=   0.0000E+00 zmoment=   0.0000E+00
 nd#    1774  xforce=   0.0000E+00   yforce=   0.0000E+00  zforce=   2.0839E+00   energy=   2.3954E-04   setid =    1774 xmoment=   0.0000E+00 ymoment=   0.0000E+00 zmoment=   0.0000E+00
              xtotal=   0.0000E+00   ytotal=   0.0000E+00  ztotal=  -5.0669E+03   etotal=   1.0645E-01

 n o d a l   f o r c e/e n e r g y    o u t p u t  t=   8.81042E+00

 velocity boundary condition forces/rigid body moments 

 nd#     354  xforce=   0.0000E+00   yforce=   0.0000E+00  zforce=  -4.6448E+01   energy=   1.0802E-03   setid =     354 xmoment=   0.0000E+00 ymoment=   0.0000E+00 zmoment=   0.0000E+00
 nd#     355  xforce=   0.0000E+00   yforce=   0.0000E+00  zforce=  -5.9664E+01   energy=   1.5300E-03   setid =     355 xmoment=   0.0000E+00 ymoment=   0.0000E+00 zmoment=   0.0000E+00
 nd#     356  xforce=   0.0000E+00   yforce=   0.0000E+00  zforce=  -3.4724E+01   energy=   8.2178E-04   setid =     356 xmoment=   0.0000E+00 ymoment=   0.0000E+00 zmoment=   0.0000E+00
 nd#     357  xforce=   0.0000E+00   yforce=   0.0000E+00  zforce=  -3.1121E+01   energy=   6.2881E-04   setid =     357 xmoment=   0.0000E+00 ymoment=   0.0000E+00 zmoment=   0.0000E+00
 nd#     403  xforce=   0.0000E+00   yforce=   0.0000E+00  zforce=  -2.1692E+01   energy=   6.4288E-04   setid =     403 xmoment=   0.0000E+00 ymoment=   0.0000E+00 zmoment=   0.0000E+00
 nd#     404  xforce=   0.0000E+00   yforce=   0.0000E+00  zforce=  -3.7167E+01   energy=   9.1284E-04   setid =     404 xmoment=   0.0000E+00 ymoment=   0.0000E+00 zmoment=   0.0000E+00
 nd#     405  xforce=   0.0000E+00   yforce=   0.0000E+00  zforce=  -3.3711E+01   energy=   8.5437E-04   setid =     405 xmoment=   0.0000E+00 ymoment=   0.0000E+00 zmoment=   0.0000E+00
 nd#     466  xforce=   0.0000E+00   yforce=   0.0000E+00  zforce=  -1.6526E+01   energy=   3.7308E-04   setid =     466 xmoment=   0.0000E+00 ymoment=   0.0000E+00 zmoment=   0.0000E+00
 nd#     467  xforce=   0.0000E+00   yforce=   0.0000E+00  zforce=  -2.4779E+00   energy=   4.0640E-04   setid =     467 xmoment=   0.0000E+00 ymoment=   0.0000E+00 zmoment=   0.0000E+00
 nd#     468  xforce=   0.0000E+00   yforce=   0.0000E+00  zforce=  -2.0556E+01   energy=   6.3762E-04   setid =     468 xmoment=   0.0000E+00 ymoment=   0.0000E+00 zmoment=   0.0000E+00
 nd#     469  xforce=   0.0000E+00   yforce=   0.0000E+00  zforce=  -2.0774E+01   energy=   5.5117E-04   setid =     469 xmoment=   0.0000E+00 ymoment=   0.0000E+00 zmoment=   0.0000E+00
 nd#     530  xforce=   0.0000E+00   yforce=   0.0000E+00  zforce=  -1.0961E+01   energy=   4.9743E-04   setid =     530 xmoment=   0.0000E+00 ymoment=   0.0000E+00 zmoment=   0.0000E+00
 nd#     531  xforce=   0.0000E+00   yforce=   0.0000E+00  zforce=  -2.4819E+01   energy=   7.2472E-04   setid =     531 xmoment=   0.0000E+00 ymoment=   0.0000E+00 zmoment=   0.0000E+00
 nd#     532  xforce=   0.0000E+00   yforce=   0.0000E+00  zforce=  -3.7442E+01   energy=   8.6979E-04   setid =     532 xmoment=   0.0000E+00 ymoment=   0.0000E+00 zmoment=   0.0000E+00
 nd#     533  xforce=   0.0000E+00   yforce=   0.0000E+00  zforce=  -2.5147E+01   energy=   6.6386E-04   setid =     533 xmoment=   0.0000E+00 ymoment=   0.0000E+00 zmoment=   0.0000E+00
 nd#     549  xforce=   0.0000E+00   yforce=   0.0000E+00  zforce=  -4.6613E+00   energy=   3.4037E-04   setid =     549 xmoment=   0.0000E+00 ymoment=   0.0000E+00 zmoment=   0.0000E+00
 nd#     610  xforce=   0.0000E+00   yforce=   0.0000E+00  zforce=  -3.4303E+01   energy=   8.9720E-04   setid =     610 xmoment=   0.0000E+00 ymoment=   0.0000E+00 zmoment=   0.0000E+00
 nd#     611  xforce=   0.0000E+00   yforce=   0.0000E+00  zforce=  -4.4497E+01   energy=   1.0625E-03   setid =     611 xmoment=   0.0000E+00 ymoment=   0.0000E+00 zmoment=   0.0000E+00
 nd#     612  xforce=   0.0000E+00   yforce=   0.0000E+00  zforce=  -8.1389E+01   energy=   1.8075E-03   setid =     612 xmoment=   0.0000E+00 ymoment=   0.0000E+00 zmoment=   0.0000E+00
 nd#     613  xforce=   0.0000E+00   yforce=   0.0000E+00  zforce=  -7.0968E+01   energy=   1.6690E-03   setid =     613 xmoment=   0.0000E+00 ymoment=   0.0000E+00 zmoment=   0.0000E+00
 nd#     629  xforce=   0.0000E+00   yforce=   0.0000E+00  zforce=  -3.3747E+01   energy=   8.1425E-04   setid =     629 xmoment=   0.0000E+00 ymoment=   0.0000E+00 zmoment=   0.0000E+00
 nd#     660  xforce=   0.0000E+00   yforce=   0.0000E+00  zforce=  -2.8712E+01   energy=   5.1769E-04   setid =     660 xmoment=   0.0000E+00 ymoment=   0.0000E+00 zmoment=   0.0000E+00
 nd#     661  xforce=   0.0000E+00   yforce=   0.0000E+00  zforce=  -3.2673E+01   energy=   5.7222E-04   setid =     661 xmoment=   0.0000E+00 ymoment=   0.0000E+00 zmoment=   0.0000E+00
 nd#     692  xforce=   0.0000E+00   yforce=   0.0000E+00  zforce=  -6.7325E+01   energy=   1.5630E-03   setid =     692 xmoment=   0.0000E+00 ymoment=   0.0000E+00 zmoment=   0.0000E+00
 nd#     693  xforce=   0.0000E+00   yforce=   0.0000E+00  zforce=  -6.1295E+01   energy=   1.5119E-03   setid =     693 xmoment=   0.0000E+00 ymoment=   0.0000E+00 zmoment=   0.0000E+00
 nd#     724  xforce=   0.0000E+00   yforce=   0.0000E+00  zforce=  -2.2501E+01   energy=   3.2932E-04   setid =     724 xmoment=   0.0000E+00 ymoment=   0.0000E+00 zmoment=   0.0000E+00
 nd#     725  xforce=   0.0000E+00   yforce=   0.0000E+00  zforce=  -3.2019E+01   energy=   5.2214E-04   setid =     725 xmoment=   0.0000E+00 ymoment=   0.0000E+00 zmoment=   0.0000E+00
 nd#     771  xforce=   0.0000E+00   yforce=   0.0000E+00  zforce=  -1.7644E+01   energy=   5.5724E-04   setid =     771 xmoment=   0.0000E+00 ymoment=   0.0000E+00 zmoment=   0.0000E+00
 nd#     772  xforce=   0.0000E+00   yforce=   0.0000E+00  zforce=  -2.7881E+01   energy=   5.3997E-04   setid =     772 xmoment=   0.0000E+00 ymoment=   0.0000E+00 zmoment=   0.0000E+00
 nd#     773  xforce=   0.0000E+00   yforce=   0.0000E+00  zforce=  -2.9828E+01   energy=   4.7095E-04   setid =     773 xmoment=   0.0000E+00 ymoment=   0.0000E+00 zmoment=   0.0000E+00
 nd#     804  xforce=   0.0000E+00   yforce=   0.0000E+00  zforce=  -3.0676E+01   energy=   5.8773E-04   setid =     804 xmoment=   0.0000E+00 ymoment=   0.0000E+00 zmoment=   0.0000E+00
 nd#     805  xforce=   0.0000E+00   yforce=   0.0000E+00  zforce=  -4.8430E+01   energy=   9.5077E-04   setid =     805 xmoment=   0.0000E+00 ymoment=   0.0000E+00 zmoment=   0.0000E+00
 nd#     821  xforce=   0.0000E+00   yforce=   0.0000E+00  zforce=  -2.5449E+01   energy=   4.1167E-04   setid =     821 xmoment=   0.0000E+00 ymoment=   0.0000E+00 zmoment=   0.0000E+00
 nd#     852  xforce=   0.0000E+00   yforce=   0.0000E+00  zforce=  -2.2225E+01   energy=   7.2049E-04   setid =     852 xmoment=   0.0000E+00 ymoment=   0.0000E+00 zmoment=   0.0000E+00
 nd#     853  xforce=   0.0000E+00   yforce=   0.0000E+00  zforce=  -3.3003E+01   energy=   8.1683E-04   setid =     853 xmoment=   0.0000E+00 ymoment=   0.0000E+00 zmoment=   0.0000E+00
 nd#     869  xforce=   0.0000E+00   yforce=   0.0000E+00  zforce=  -2.7198E+01   energy=   4.8323E-04   setid =     869 xmoment=   0.0000E+00 ymoment=   0.0000E+00 zmoment=   0.0000E+00
 nd#     885  xforce=   0.0000E+00   yforce=   0.0000E+00  zforce=  -2.9389E+01   energy=   5.0920E-04   setid =     885 xmoment=   0.0000E+00 ymoment=   0.0000E+00 zmoment=   0.0000E+00
 nd#    1082  xforce=   0.0000E+00   yforce=   0.0000E+00  zforce=  -9.6998E+00   energy=   4.4130E-04   setid =    1082 xmoment=   0.0000E+00 ymoment=   0.0000E+00 zmoment=   0.0000E+00
 nd#    1083  xforce=   0.0000E+00   yforce=   0.0000E+00  zforce=  -7.7928E+01   energy=   2.0354E-03   setid =    1083 xmoment=   0.0000E+00 ymoment=   0.0000E+00 zmoment=   0.0000E+00
 nd#    1084  xforce=   0.0000E+00   yforce=   0.0000E+00  zforce=  -7.8487E+01   energy=   1.8908E-03   setid =    1084 xmoment=   0.0000E+00 ymoment=   0.0000E+00 zmoment=   0.0000E+00
 nd#    1085  xforce=   0.0000E+00   yforce=   0.0000E+00  zforce=  -7.4026E+01   energy=   1.6891E-03   setid =    1085 xmoment=   0.0000E+00 ymoment=   0.0000E+00 zmoment=   0.0000E+00
 nd#    1086  xforce=   0.0000E+00   yforce=   0.0000E+00  zforce=  -6.7908E+01   energy=   1.4936E-03   setid =    1086 xmoment=   0.0000E+00 ymoment=   0.0000E+00 zmoment=   0.0000E+00
 nd#    1087  xforce=   0.0000E+00   yforce=   0.0000E+00  zforce=  -6.0885E+01   energy=   1.2865E-03   setid =    1087 xmoment=   0.0000E+00 ymoment=   0.0000E+00 zmoment=   0.0000E+00
 nd#    1649  xforce=   0.0000E+00   yforce=   0.0000E+00  zforce=  -1.0779E+02   energy=   2.4870E-03   setid =    1649 xmoment=   0.0000E+00 ymoment=   0.0000E+00 zmoment=   0.0000E+00
 nd#    1651  xforce=   0.0000E+00   yforce=   0.0000E+00  zforce=  -9.8665E+01   energy=   2.3814E-03   setid =    1651 xmoment=   0.0000E+00 ymoment=   0.0000E+00 zmoment=   0.0000E+00
 nd#    1653  xforce=   0.0000E+00   yforce=   0.0000E+00  zforce=  -9.9542E+01   energy=   2.3505E-03   setid =    1653 xmoment=   0.0000E+00 ymoment=   0.0000E+00 zmoment=   0.0000E+00
 nd#    1655  xforce=   0.0000E+00   yforce=   0.0000E+00  zforce=  -9.9285E+01   energy=   2.3529E-03   setid =    1655 xmoment=   0.0000E+00 ymoment=   0.0000E+00 zmoment=   0.0000E+00
 nd#    1657  xforce=   0.0000E+00   yforce=   0.0000E+00  zforce=  -1.0079E+02   energy=   2.4013E-03   setid =    1657 xmoment=   0.0000E+00 ymoment=   0.0000E+00 zmoment=   0.0000E+00
 nd#    1659  xforce=   0.0000E+00   yforce=   0.0000E+00  zforce=  -5.5158E+01   energy=   1.2569E-03   setid =    1659 xmoment=   0.0000E+00 ymoment=   0.0000E+00 zmoment=   0.0000E+00
 nd#    1733  xforce=   0.0000E+00   yforce=   0.0000E+00  zforce=  -1.5246E+02   energy=   3.7733E-03   setid =    1733 xmoment=   0.0000E+00 ymoment=   0.0000E+00 zmoment=   0.0000E+00
 nd#    1734  xforce=   0.0000E+00   yforce=   0.0000E+00  zforce=  -1.5795E+02   energy=   4.1205E-03   setid =    1734 xmoment=   0.0000E+00 ymoment=   0.0000E+00 zmoment=   0.0000E+00
 nd#    1735  xforce=   0.0000E+00   yforce=   0.0000E+00  zforce=  -1.5136E+02   energy=   3.7729E-03   setid =    1735 xmoment=   0.0000E+00 ymoment=   0.0000E+00 zmoment=   0.0000E+00
 nd#    1736  xforce=   0.0000E+00   yforce=   0.0000E+00  zforce=  -1.6850E+02   energy=   4.2453E-03   setid =    1736 xmoment=   0.0000E+00 ymoment=   0.0000E+00 zmoment=   0.0000E+00
 nd#    1737  xforce=   0.0000E+00   yforce=   0.0000E+00  zforce=  -1.5771E+02   energy=   3.8115E-03   setid =    1737 xmoment=   0.0000E+00 ymoment=   0.0000E+00 zmoment=   0.0000E+00
 nd#    1738  xforce=   0.0000E+00   yforce=   0.0000E+00  zforce=  -1.7972E+02   energy=   4.3429E-03   setid =    1738 xmoment=   0.0000E+00 ymoment=   0.0000E+00 zmoment=   0.0000E+00
 nd#    1739  xforce=   0.0000E+00   yforce=   0.0000E+00  zforce=  -1.6438E+02   energy=   3.8581E-03   setid =    1739 xmoment=   0.0000E+00 ymoment=   0.0000E+00 zmoment=   0.0000E+00
 nd#    1740  xforce=   0.0000E+00   yforce=   0.0000E+00  zforce=  -1.7958E+02   energy=   4.2997E-03   setid =    1740 xmoment=   0.0000E+00 ymoment=   0.0000E+00 zmoment=   0.0000E+00
 nd#    1741  xforce=   0.0000E+00   yforce=   0.0000E+00  zforce=  -1.6370E+02   energy=   3.8557E-03   setid =    1741 xmoment=   0.0000E+00 ymoment=   0.0000E+00 zmoment=   0.0000E+00
 nd#    1742  xforce=   0.0000E+00   yforce=   0.0000E+00  zforce=  -1.5844E+02   energy=   4.1071E-03   setid =    1742 xmoment=   0.0000E+00 ymoment=   0.0000E+00 zmoment=   0.0000E+00
 nd#    1743  xforce=   0.0000E+00   yforce=   0.0000E+00  zforce=  -8.3117E+01   energy=   1.9395E-03   setid =    1743 xmoment=   0.0000E+00 ymoment=   0.0000E+00 zmoment=   0.0000E+00
 nd#    1744  xforce=   0.0000E+00   yforce=   0.0000E+00  zforce=  -7.3584E+01   energy=   2.0070E-03   setid =    1744 xmoment=   0.0000E+00 ymoment=   0.0000E+00 zmoment=   0.0000E+00
 nd#    1751  xforce=   0.0000E+00   yforce=   0.0000E+00  zforce=  -1.2563E+02   energy=   2.9289E-03   setid =    1751 xmoment=   0.0000E+00 ymoment=   0.0000E+00 zmoment=   0.0000E+00
 nd#    1752  xforce=   0.0000E+00   yforce=   0.0000E+00  zforce=  -1.4069E+02   energy=   3.3430E-03   setid =    1752 xmoment=   0.0000E+00 ymoment=   0.0000E+00 zmoment=   0.0000E+00
 nd#    1753  xforce=   0.0000E+00   yforce=   0.0000E+00  zforce=  -1.1976E+02   energy=   2.8608E-03   setid =    1753 xmoment=   0.0000E+00 ymoment=   0.0000E+00 zmoment=   0.0000E+00
 nd#    1754  xforce=   0.0000E+00   yforce=   0.0000E+00  zforce=  -1.3737E+02   energy=   3.3039E-03   setid =    1754 xmoment=   0.0000E+00 ymoment=   0.0000E+00 zmoment=   0.0000E+00
 nd#    1755  xforce=   0.0000E+00   yforce=   0.0000E+00  zforce=  -1.2088E+02   energy=   2.8408E-03   setid =    1755 xmoment=   0.0000E+00 ymoment=   0.0000E+00 zmoment=   0.0000E+00
 nd#    1756  xforce=   0.0000E+00   yforce=   0.0000E+00  zforce=  -1.3963E+02   energy=   3.3034E-03   setid =    1756 xmoment=   0.0000E+00 ymoment=   0.0000E+00 zmoment=   0.0000E+00
 nd#    1757  xforce=   0.0000E+00   yforce=   0.0000E+00  zforce=  -1.2058E+02   energy=   2.8352E-03   setid =    1757 xmoment=   0.0000E+00 ymoment=   0.0000E+00 zmoment=   0.0000E+00
 nd#    1758  xforce=   0.0000E+00   yforce=   0.0000E+00  zforce=  -1.4126E+02   energy=   3.3170E-03   setid =    1758 xmoment=   0.0000E+00 ymoment=   0.0000E+00 zmoment=   0.0000E+00
 nd#    1759  xforce=   0.0000E+00   yforce=   0.0000E+00  zforce=  -1.1943E+02   energy=   2.8457E-03   setid =    1759 xmoment=   0.0000E+00 ymoment=   0.0000E+00 zmoment=   0.0000E+00
 nd#    1760  xforce=   0.0000E+00   yforce=   0.0000E+00  zforce=  -1.4029E+02   energy=   3.3201E-03   setid =    1760 xmoment=   0.0000E+00 ymoment=   0.0000E+00 zmoment=   0.0000E+00
 nd#    1761  xforce=   0.0000E+00   yforce=   0.0000E+00  zforce=  -6.3032E+01   energy=   1.4599E-03   setid =    1761 xmoment=   0.0000E+00 ymoment=   0.0000E+00 zmoment=   0.0000E+00
 nd#    1762  xforce=   0.0000E+00   yforce=   0.0000E+00  zforce=  -7.2662E+01   energy=   1.6856E-03   setid =    1762 xmoment=   0.0000E+00 ymoment=   0.0000E+00 zmoment=   0.0000E+00
 nd#    1769  xforce=   0.0000E+00   yforce=   0.0000E+00  zforce=  -1.4088E+01   energy=   8.2974E-04   setid =    1769 xmoment=   0.0000E+00 ymoment=   0.0000E+00 zmoment=   0.0000E+00
 nd#    1770  xforce=   0.0000E+00   yforce=   0.0000E+00  zforce=  -4.8265E+00   energy=   7.0891E-04   setid =    1770 xmoment=   0.0000E+00 ymoment=   0.0000E+00 zmoment=   0.0000E+00
 nd#    1771  xforce=   0.0000E+00   yforce=   0.0000E+00  zforce=   5.2926E+00   energy=   5.8882E-04   setid =    1771 xmoment=   0.0000E+00 ymoment=   0.0000E+00 zmoment=   0.0000E+00
 nd#    1772  xforce=   0.0000E+00   yforce=   0.0000E+00  zforce=   1.3772E+01   energy=   5.1498E-04   setid =    1772 xmoment=   0.0000E+00 ymoment=   0.0000E+00 zmoment=   0.0000E+00
 nd#    1773  xforce=   0.0000E+00   yforce=   0.0000E+00  zforce=   1.9768E+01   energy=   4.4705E-04   setid =    1773 xmoment=   0.0000E+00 ymoment=   0.0000E+00 zmoment=   0.0000E+00
 nd#    1774  xforce=   0.0000E+00   yforce=   0.0000E+00  zforce=   1.0778E+01   energy=   2.0754E-04   setid =    1774 xmoment=   0.0000E+00 ymoment=   0.0000E+00 zmoment=   0.0000E+00
              xtotal=   0.0000E+00   ytotal=   0.0000E+00  ztotal=  -5.3602E+03   etotal=   1.3239E-01

 n o d a l   f o r c e/e n e r g y    o u t p u t  t=   9.54259E+00

 velocity boundary condition forces/rigid body moments 

 nd#     354  xforce=   0.0000E+00   yforce=   0.0000E+00  zforce=  -5.1736E+01   energy=   1.2600E-03   setid =     354 xmoment=   0.0000E+00 ymoment=   0.0000E+00 zmoment=   0.0000E+00
 nd#     355  xforce=   0.0000E+00   yforce=   0.0000E+00  zforce=  -7.2697E+01   energy=   1.7722E-03   setid =     355 xmoment=   0.0000E+00 ymoment=   0.0000E+00 zmoment=   0.0000E+00
 nd#     356  xforce=   0.0000E+00   yforce=   0.0000E+00  zforce=  -3.8974E+01   energy=   9.5668E-04   setid =     356 xmoment=   0.0000E+00 ymoment=   0.0000E+00 zmoment=   0.0000E+00
 nd#     357  xforce=   0.0000E+00   yforce=   0.0000E+00  zforce=  -4.5822E+01   energy=   7.6964E-04   setid =     357 xmoment=   0.0000E+00 ymoment=   0.0000E+00 zmoment=   0.0000E+00
 nd#     403  xforce=   0.0000E+00   yforce=   0.0000E+00  zforce=  -1.9337E+01   energy=   7.1798E-04   setid =     403 xmoment=   0.0000E+00 ymoment=   0.0000E+00 zmoment=   0.0000E+00
 nd#     404  xforce=   0.0000E+00   yforce=   0.0000E+00  zforce=  -5.5410E+01   energy=   1.0823E-03   setid =     404 xmoment=   0.0000E+00 ymoment=   0.0000E+00 zmoment=   0.0000E+00
 nd#     405  xforce=   0.0000E+00   yforce=   0.0000E+00  zforce=  -2.5717E+01   energy=   9.6315E-04   setid =     405 xmoment=   0.0000E+00 ymoment=   0.0000E+00 zmoment=   0.0000E+00
 nd#     466  xforce=   0.0000E+00   yforce=   0.0000E+00  zforce=  -3.2307E+01   energy=   4.6247E-04   setid =     466 xmoment=   0.0000E+00 ymoment=   0.0000E+00 zmoment=   0.0000E+00
 nd#     467  xforce=   0.0000E+00   yforce=   0.0000E+00  zforce=   6.5352E+01   energy=   2.9132E-04   setid =     467 xmoment=   0.0000E+00 ymoment=   0.0000E+00 zmoment=   0.0000E+00
 nd#     468  xforce=   0.0000E+00   yforce=   0.0000E+00  zforce=  -1.4216E+01   energy=   7.0127E-04   setid =     468 xmoment=   0.0000E+00 ymoment=   0.0000E+00 zmoment=   0.0000E+00
 nd#     469  xforce=   0.0000E+00   yforce=   0.0000E+00  zforce=  -3.6816E+01   energy=   6.5658E-04   setid =     469 xmoment=   0.0000E+00 ymoment=   0.0000E+00 zmoment=   0.0000E+00
 nd#     530  xforce=   0.0000E+00   yforce=   0.0000E+00  zforce=   1.8225E+01   energy=   4.8414E-04   setid =     530 xmoment=   0.0000E+00 ymoment=   0.0000E+00 zmoment=   0.0000E+00
 nd#     531  xforce=   0.0000E+00   yforce=   0.0000E+00  zforce=  -2.6549E+00   energy=   7.7501E-04   setid =     531 xmoment=   0.0000E+00 ymoment=   0.0000E+00 zmoment=   0.0000E+00
 nd#     532  xforce=   0.0000E+00   yforce=   0.0000E+00  zforce=  -7.9506E+01   energy=   1.0839E-03   setid =     532 xmoment=   0.0000E+00 ymoment=   0.0000E+00 zmoment=   0.0000E+00
 nd#     533  xforce=   0.0000E+00   yforce=   0.0000E+00  zforce=  -8.4016E+01   energy=   8.6367E-04   setid =     533 xmoment=   0.0000E+00 ymoment=   0.0000E+00 zmoment=   0.0000E+00
 nd#     549  xforce=   0.0000E+00   yforce=   0.0000E+00  zforce=  -3.8269E+00   energy=   3.5590E-04   setid =     549 xmoment=   0.0000E+00 ymoment=   0.0000E+00 zmoment=   0.0000E+00
 nd#     610  xforce=   0.0000E+00   yforce=   0.0000E+00  zforce=  -3.8166E+01   energy=   1.0298E-03   setid =     610 xmoment=   0.0000E+00 ymoment=   0.0000E+00 zmoment=   0.0000E+00
 nd#     611  xforce=   0.0000E+00   yforce=   0.0000E+00  zforce=  -8.4098E+01   energy=   1.2979E-03   setid =     611 xmoment=   0.0000E+00 ymoment=   0.0000E+00 zmoment=   0.0000E+00
 nd#     612  xforce=   0.0000E+00   yforce=   0.0000E+00  zforce=  -1.3067E+02   energy=   2.1957E-03   setid =     612 xmoment=   0.0000E+00 ymoment=   0.0000E+00 zmoment=   0.0000E+00
 nd#     613  xforce=   0.0000E+00   yforce=   0.0000E+00  zforce=  -8.9931E+01   energy=   1.9635E-03   setid =     613 xmoment=   0.0000E+00 ymoment=   0.0000E+00 zmoment=   0.0000E+00
 nd#     629  xforce=   0.0000E+00   yforce=   0.0000E+00  zforce=  -5.1930E+01   energy=   9.7107E-04   setid =     629 xmoment=   0.0000E+00 ymoment=   0.0000E+00 zmoment=   0.0000E+00
 nd#     660  xforce=   0.0000E+00   yforce=   0.0000E+00  zforce=  -4.7085E+01   energy=   6.5642E-04   setid =     660 xmoment=   0.0000E+00 ymoment=   0.0000E+00 zmoment=   0.0000E+00
 nd#     661  xforce=   0.0000E+00   yforce=   0.0000E+00  zforce=  -8.5218E+01   energy=   7.8801E-04   setid =     661 xmoment=   0.0000E+00 ymoment=   0.0000E+00 zmoment=   0.0000E+00
 nd#     692  xforce=   0.0000E+00   yforce=   0.0000E+00  zforce=  -9.6240E+01   energy=   1.8624E-03   setid =     692 xmoment=   0.0000E+00 ymoment=   0.0000E+00 zmoment=   0.0000E+00
 nd#     693  xforce=   0.0000E+00   yforce=   0.0000E+00  zforce=  -9.5454E+01   energy=   1.7988E-03   setid =     693 xmoment=   0.0000E+00 ymoment=   0.0000E+00 zmoment=   0.0000E+00
[...]
 nd#    1737  xforce=   0.0000E+00   yforce=   0.0000E+00  zforce=  -1.6894E+02   energy=   5.5294E-03   setid =    1737 xmoment=   0.0000E+00 ymoment=   0.0000E+00 zmoment=   0.0000E+00
 nd#    1738  xforce=   0.0000E+00   yforce=   0.0000E+00  zforce=  -1.6187E+02   energy=   6.0384E-03   setid =    1738 xmoment=   0.0000E+00 ymoment=   0.0000E+00 zmoment=   0.0000E+00
 nd#    1739  xforce=   0.0000E+00   yforce=   0.0000E+00  zforce=  -1.7724E+02   energy=   5.6691E-03   setid =    1739 xmoment=   0.0000E+00 ymoment=   0.0000E+00 zmoment=   0.0000E+00
 nd#    1740  xforce=   0.0000E+00   yforce=   0.0000E+00  zforce=  -1.5503E+02   energy=   5.9478E-03   setid =    1740 xmoment=   0.0000E+00 ymoment=   0.0000E+00 zmoment=   0.0000E+00
 nd#    1741  xforce=   0.0000E+00   yforce=   0.0000E+00  zforce=  -1.4852E+02   energy=   5.4172E-03   setid =    1741 xmoment=   0.0000E+00 ymoment=   0.0000E+00 zmoment=   0.0000E+00
 nd#    1742  xforce=   0.0000E+00   yforce=   0.0000E+00  zforce=  -9.1879E+01   energy=   5.1686E-03   setid =    1742 xmoment=   0.0000E+00 ymoment=   0.0000E+00 zmoment=   0.0000E+00
 nd#    1743  xforce=   0.0000E+00   yforce=   0.0000E+00  zforce=  -5.8051E+01   energy=   2.5676E-03   setid =    1743 xmoment=   0.0000E+00 ymoment=   0.0000E+00 zmoment=   0.0000E+00
 nd#    1744  xforce=   0.0000E+00   yforce=   0.0000E+00  zforce=  -1.8393E+01   energy=   2.2734E-03   setid =    1744 xmoment=   0.0000E+00 ymoment=   0.0000E+00 zmoment=   0.0000E+00
 nd#    1751  xforce=   0.0000E+00   yforce=   0.0000E+00  zforce=  -1.4513E+02   energy=   4.4393E-03   setid =    1751 xmoment=   0.0000E+00 ymoment=   0.0000E+00 zmoment=   0.0000E+00
 nd#    1752  xforce=   0.0000E+00   yforce=   0.0000E+00  zforce=  -1.4646E+02   energy=   4.8717E-03   setid =    1752 xmoment=   0.0000E+00 ymoment=   0.0000E+00 zmoment=   0.0000E+00
 nd#    1753  xforce=   0.0000E+00   yforce=   0.0000E+00  zforce=  -1.4891E+02   energy=   4.3105E-03   setid =    1753 xmoment=   0.0000E+00 ymoment=   0.0000E+00 zmoment=   0.0000E+00
 nd#    1754  xforce=   0.0000E+00   yforce=   0.0000E+00  zforce=  -1.5866E+02   energy=   4.8754E-03   setid =    1754 xmoment=   0.0000E+00 ymoment=   0.0000E+00 zmoment=   0.0000E+00
 nd#    1755  xforce=   0.0000E+00   yforce=   0.0000E+00  zforce=  -1.6138E+02   energy=   4.4366E-03   setid =    1755 xmoment=   0.0000E+00 ymoment=   0.0000E+00 zmoment=   0.0000E+00
 nd#    1756  xforce=   0.0000E+00   yforce=   0.0000E+00  zforce=  -1.7164E+02   energy=   5.0158E-03   setid =    1756 xmoment=   0.0000E+00 ymoment=   0.0000E+00 zmoment=   0.0000E+00
 nd#    1757  xforce=   0.0000E+00   yforce=   0.0000E+00  zforce=  -1.6187E+02   energy=   4.4525E-03   setid =    1757 xmoment=   0.0000E+00 ymoment=   0.0000E+00 zmoment=   0.0000E+00
 nd#    1758  xforce=   0.0000E+00   yforce=   0.0000E+00  zforce=  -1.7494E+02   energy=   5.0684E-03   setid =    1758 xmoment=   0.0000E+00 ymoment=   0.0000E+00 zmoment=   0.0000E+00
 nd#    1759  xforce=   0.0000E+00   yforce=   0.0000E+00  zforce=  -1.4360E+02   energy=   4.2885E-03   setid =    1759 xmoment=   0.0000E+00 ymoment=   0.0000E+00 zmoment=   0.0000E+00
 nd#    1760  xforce=   0.0000E+00   yforce=   0.0000E+00  zforce=  -1.4912E+02   energy=   4.8491E-03   setid =    1760 xmoment=   0.0000E+00 ymoment=   0.0000E+00 zmoment=   0.0000E+00
 nd#    1761  xforce=   0.0000E+00   yforce=   0.0000E+00  zforce=  -6.5037E+01   energy=   2.1039E-03   setid =    1761 xmoment=   0.0000E+00 ymoment=   0.0000E+00 zmoment=   0.0000E+00
 nd#    1762  xforce=   0.0000E+00   yforce=   0.0000E+00  zforce=  -6.6013E+01   energy=   2.3595E-03   setid =    1762 xmoment=   0.0000E+00 ymoment=   0.0000E+00 zmoment=   0.0000E+00
 nd#    1769  xforce=   0.0000E+00   yforce=   0.0000E+00  zforce=   3.7439E+01   energy=   5.4001E-04   setid =    1769 xmoment=   0.0000E+00 ymoment=   0.0000E+00 zmoment=   0.0000E+00
 nd#    1770  xforce=   0.0000E+00   yforce=   0.0000E+00  zforce=   6.0809E+01   energy=   1.8552E-04   setid =    1770 xmoment=   0.0000E+00 ymoment=   0.0000E+00 zmoment=   0.0000E+00
 nd#    1771  xforce=   0.0000E+00   yforce=   0.0000E+00  zforce=   8.0841E+01   energy=  -1.2470E-04   setid =    1771 xmoment=   0.0000E+00 ymoment=   0.0000E+00 zmoment=   0.0000E+00
 nd#    1772  xforce=   0.0000E+00   yforce=   0.0000E+00  zforce=   8.9393E+01   energy=  -2.8687E-04   setid =    1772 xmoment=   0.0000E+00 ymoment=   0.0000E+00 zmoment=   0.0000E+00
 nd#    1773  xforce=   0.0000E+00   yforce=   0.0000E+00  zforce=   1.1424E+02   energy=  -5.8875E-04   setid =    1773 xmoment=   0.0000E+00 ymoment=   0.0000E+00 zmoment=   0.0000E+00
 nd#    1774  xforce=   0.0000E+00   yforce=   0.0000E+00  zforce=   6.5839E+01   energy=  -3.9408E-04   setid =    1774 xmoment=   0.0000E+00 ymoment=   0.0000E+00 zmoment=   0.0000E+00
              xtotal=   0.0000E+00   ytotal=   0.0000E+00  ztotal=  -5.4188E+03   etotal=   1.8808E-01

 n o d a l   f o r c e/e n e r g y    o u t p u t  t=   1.15970E+01

 velocity boundary condition forces/rigid body moments 

 nd#     354  xforce=   0.0000E+00   yforce=   0.0000E+00  zforce=  -4.6072E+01   energy=   1.7966E-03   setid =     354 xmoment=   0.0000E+00 ymoment=   0.0000E+00 zmoment=   0.0000E+00
 nd#     355  xforce=   0.0000E+00   yforce=   0.0000E+00  zforce=  -6.5495E+01   energy=   2.4880E-03   setid =     355 xmoment=   0.0000E+00 ymoment=   0.0000E+00 zmoment=   0.0000E+00
 nd#     356  xforce=   0.0000E+00   yforce=   0.0000E+00  zforce=  -2.4521E+01   energy=   1.3421E-03   setid =     356 xmoment=   0.0000E+00 ymoment=   0.0000E+00 zmoment=   0.0000E+00
 nd#     357  xforce=   0.0000E+00   yforce=   0.0000E+00  zforce=  -2.6391E+01   energy=   1.2293E-03   setid =     357 xmoment=   0.0000E+00 ymoment=   0.0000E+00 zmoment=   0.0000E+00
 nd#     403  xforce=   0.0000E+00   yforce=   0.0000E+00  zforce=  -5.2064E+01   energy=   9.1469E-04   setid =     403 xmoment=   0.0000E+00 ymoment=   0.0000E+00 zmoment=   0.0000E+00
 nd#     404  xforce=   0.0000E+00   yforce=   0.0000E+00  zforce=  -5.6243E+01   energy=   1.6253E-03   setid =     404 xmoment=   0.0000E+00 ymoment=   0.0000E+00 zmoment=   0.0000E+00
 nd#     405  xforce=   0.0000E+00   yforce=   0.0000E+00  zforce=  -5.0186E+01   energy=   1.2461E-03   setid =     405 xmoment=   0.0000E+00 ymoment=   0.0000E+00 zmoment=   0.0000E+00
 nd#     466  xforce=   0.0000E+00   yforce=   0.0000E+00  zforce=  -2.6704E+01   energy=   7.8542E-04   setid =     466 xmoment=   0.0000E+00 ymoment=   0.0000E+00 zmoment=   0.0000E+00
 nd#     467  xforce=   0.0000E+00   yforce=   0.0000E+00  zforce=   1.3488E+01   energy=  -2.8192E-04   setid =     467 xmoment=   0.0000E+00 ymoment=   0.0000E+00 zmoment=   0.0000E+00
 nd#     468  xforce=   0.0000E+00   yforce=   0.0000E+00  zforce=  -2.3887E+01   energy=   9.0327E-04   setid =     468 xmoment=   0.0000E+00 ymoment=   0.0000E+00 zmoment=   0.0000E+00
 nd#     469  xforce=   0.0000E+00   yforce=   0.0000E+00  zforce=  -6.1778E+01   energy=   1.1066E-03   setid =     469 xmoment=   0.0000E+00 ymoment=   0.0000E+00 zmoment=   0.0000E+00
 nd#     530  xforce=   0.0000E+00   yforce=   0.0000E+00  zforce=  -1.7473E+01   energy=   3.6816E-04   setid =     530 xmoment=   0.0000E+00 ymoment=   0.0000E+00 zmoment=   0.0000E+00
 nd#     531  xforce=   0.0000E+00   yforce=   0.0000E+00  zforce=  -2.9286E+01   energy=   8.7239E-04   setid =     531 xmoment=   0.0000E+00 ymoment=   0.0000E+00 zmoment=   0.0000E+00
 nd#     532  xforce=   0.0000E+00   yforce=   0.0000E+00  zforce=  -1.1842E+02   energy=   1.7780E-03   setid =     532 xmoment=   0.0000E+00 ymoment=   0.0000E+00 zmoment=   0.0000E+00
 nd#     533  xforce=   0.0000E+00   yforce=   0.0000E+00  zforce=  -1.3663E+02   energy=   1.6093E-03   setid =     533 xmoment=   0.0000E+00 ymoment=   0.0000E+00 zmoment=   0.0000E+00
 nd#     549  xforce=   0.0000E+00   yforce=   0.0000E+00  zforce=  -1.3767E+01   energy=   4.6046E-04   setid =     549 xmoment=   0.0000E+00 ymoment=   0.0000E+00 zmoment=   0.0000E+00
 nd#     610  xforce=   0.0000E+00   yforce=   0.0000E+00  zforce=  -2.9580E+01   energy=   1.4401E-03   setid =     610 xmoment=   0.0000E+00 ymoment=   0.0000E+00 zmoment=   0.0000E+00
 nd#     611  xforce=   0.0000E+00   yforce=   0.0000E+00  zforce=  -1.2346E+02   energy=   2.1767E-03   setid =     611 xmoment=   0.0000E+00 ymoment=   0.0000E+00 zmoment=   0.0000E+00
 nd#     612  xforce=   0.0000E+00   yforce=   0.0000E+00  zforce=  -1.4468E+02   energy=   3.5111E-03   setid =     612 xmoment=   0.0000E+00 ymoment=   0.0000E+00 zmoment=   0.0000E+00
 nd#     613  xforce=   0.0000E+00   yforce=   0.0000E+00  zforce=  -9.3444E+01   energy=   2.9194E-03   setid =     613 xmoment=   0.0000E+00 ymoment=   0.0000E+00 zmoment=   0.0000E+00
 nd#     629  xforce=   0.0000E+00   yforce=   0.0000E+00  zforce=  -4.9558E+01   energy=   1.5216E-03   setid =     629 xmoment=   0.0000E+00 ymoment=   0.0000E+00 zmoment=   0.0000E+00
 nd#     660  xforce=   0.0000E+00   yforce=   0.0000E+00  zforce=  -3.8731E+01   energy=   1.1318E-03   setid =     660 xmoment=   0.0000E+00 ymoment=   0.0000E+00 zmoment=   0.0000E+00
 nd#     661  xforce=   0.0000E+00   yforce=   0.0000E+00  zforce=  -7.4882E+01   energy=   1.5825E-03   setid =     661 xmoment=   0.0000E+00 ymoment=   0.0000E+00 zmoment=   0.0000E+00
 nd#     692  xforce=   0.0000E+00   yforce=   0.0000E+00  zforce=  -1.0318E+02   energy=   2.8786E-03   setid =     692 xmoment=   0.0000E+00 ymoment=   0.0000E+00 zmoment=   0.0000E+00
 nd#     693  xforce=   0.0000E+00   yforce=   0.0000E+00  zforce=  -1.0159E+02   energy=   2.7521E-03   setid =     693 xmoment=   0.0000E+00 ymoment=   0.0000E+00 zmoment=   0.0000E+00
 nd#     724  xforce=   0.0000E+00   yforce=   0.0000E+00  zforce=   5.9021E+01   energy=   6.6081E-04   setid =     724 xmoment=   0.0000E+00 ymoment=   0.0000E+00 zmoment=   0.0000E+00
 nd#     725  xforce=   0.0000E+00   yforce=   0.0000E+00  zforce=   1.3004E+02   energy=   5.9443E-04   setid =     725 xmoment=   0.0000E+00 ymoment=   0.0000E+00 zmoment=   0.0000E+00
 nd#     771  xforce=   0.0000E+00   yforce=   0.0000E+00  zforce=   2.4363E+01   energy=   7.6944E-04   setid =     771 xmoment=   0.0000E+00 ymoment=   0.0000E+00 zmoment=   0.0000E+00
 nd#     772  xforce=   0.0000E+00   yforce=   0.0000E+00  zforce=  -3.7577E+01   energy=   1.1501E-03   setid =     772 xmoment=   0.0000E+00 ymoment=   0.0000E+00 zmoment=   0.0000E+00
 nd#     773  xforce=   0.0000E+00   yforce=   0.0000E+00  zforce=   2.2153E-01   energy=   1.1319E-03   setid =     773 xmoment=   0.0000E+00 ymoment=   0.0000E+00 zmoment=   0.0000E+00
 nd#     804  xforce=   0.0000E+00   yforce=   0.0000E+00  zforce=   2.5744E+01   energy=   1.0143E-03   setid =     804 xmoment=   0.0000E+00 ymoment=   0.0000E+00 zmoment=   0.0000E+00
 nd#     805  xforce=   0.0000E+00   yforce=   0.0000E+00  zforce=  -1.0800E+01   energy=   1.6733E-03   setid =     805 xmoment=   0.0000E+00 ymoment=   0.0000E+00 zmoment=   0.0000E+00
 nd#     821  xforce=   0.0000E+00   yforce=   0.0000E+00  zforce=   1.1114E+02   energy=   6.1444E-04   setid =     821 xmoment=   0.0000E+00 ymoment=   0.0000E+00 zmoment=   0.0000E+00
 nd#     852  xforce=   0.0000E+00   yforce=   0.0000E+00  zforce=  -1.8923E+02   energy=   1.2323E-03   setid =     852 xmoment=   0.0000E+00 ymoment=   0.0000E+00 zmoment=   0.0000E+00
 nd#     853  xforce=   0.0000E+00   yforce=   0.0000E+00  zforce=  -1.3542E+02   energy=   1.7297E-03   setid =     853 xmoment=   0.0000E+00 ymoment=   0.0000E+00 zmoment=   0.0000E+00
 nd#     869  xforce=   0.0000E+00   yforce=   0.0000E+00  zforce=   5.7676E+01   energy=   7.8237E-04   setid =     869 xmoment=   0.0000E+00 ymoment=   0.0000E+00 zmoment=   0.0000E+00
 nd#     885  xforce=   0.0000E+00   yforce=   0.0000E+00  zforce=   6.1629E+01   energy=   7.1555E-04   setid =     885 xmoment=   0.0000E+00 ymoment=   0.0000E+00 zmoment=   0.0000E+00
 nd#    1082  xforce=   0.0000E+00   yforce=   0.0000E+00  zforce=   2.1737E+01   energy=   2.2896E-04   setid =    1082 xmoment=   0.0000E+00 ymoment=   0.0000E+00 zmoment=   0.0000E+00
 nd#    1083  xforce=   0.0000E+00   yforce=   0.0000E+00  zforce=  -2.3115E+01   energy=   2.5893E-03   setid =    1083 xmoment=   0.0000E+00 ymoment=   0.0000E+00 zmoment=   0.0000E+00
 nd#    1084  xforce=   0.0000E+00   yforce=   0.0000E+00  zforce=  -3.3289E+01   energy=   2.6121E-03   setid =    1084 xmoment=   0.0000E+00 ymoment=   0.0000E+00 zmoment=   0.0000E+00
 nd#    1085  xforce=   0.0000E+00   yforce=   0.0000E+00  zforce=  -3.8332E+01   energy=   2.5001E-03   setid =    1085 xmoment=   0.0000E+00 ymoment=   0.0000E+00 zmoment=   0.0000E+00
 nd#    1086  xforce=   0.0000E+00   yforce=   0.0000E+00  zforce=  -3.6092E+01   energy=   2.3208E-03   setid =    1086 xmoment=   0.0000E+00 ymoment=   0.0000E+00 zmoment=   0.0000E+00
 nd#    1087  xforce=   0.0000E+00   yforce=   0.0000E+00  zforce=  -2.8310E+01   energy=   2.1121E-03   setid =    1087 xmoment=   0.0000E+00 ymoment=   0.0000E+00 zmoment=   0.0000E+00
 nd#    1649  xforce=   0.0000E+00   yforce=   0.0000E+00  zforce=  -1.4844E+02   energy=   4.4488E-03   setid =    1649 xmoment=   0.0000E+00 ymoment=   0.0000E+00 zmoment=   0.0000E+00
 nd#    1651  xforce=   0.0000E+00   yforce=   0.0000E+00  zforce=  -1.2746E+02   energy=   4.0643E-03   setid =    1651 xmoment=   0.0000E+00 ymoment=   0.0000E+00 zmoment=   0.0000E+00
 nd#    1653  xforce=   0.0000E+00   yforce=   0.0000E+00  zforce=  -1.3387E+02   energy=   4.2140E-03   setid =    1653 xmoment=   0.0000E+00 ymoment=   0.0000E+00 zmoment=   0.0000E+00
 nd#    1655  xforce=   0.0000E+00   yforce=   0.0000E+00  zforce=  -1.3542E+02   energy=   4.2884E-03   setid =    1655 xmoment=   0.0000E+00 ymoment=   0.0000E+00 zmoment=   0.0000E+00
 nd#    1657  xforce=   0.0000E+00   yforce=   0.0000E+00  zforce=  -1.0421E+02   energy=   4.0500E-03   setid =    1657 xmoment=   0.0000E+00 ymoment=   0.0000E+00 zmoment=   0.0000E+00
 nd#    1659  xforce=   0.0000E+00   yforce=   0.0000E+00  zforce=  -4.0303E+01   energy=   2.0400E-03   setid =    1659 xmoment=   0.0000E+00 ymoment=   0.0000E+00 zmoment=   0.0000E+00
 nd#    1733  xforce=   0.0000E+00   yforce=   0.0000E+00  zforce=  -1.1932E+02   energy=   5.6497E-03   setid =    1733 xmoment=   0.0000E+00 ymoment=   0.0000E+00 zmoment=   0.0000E+00
 nd#    1734  xforce=   0.0000E+00   yforce=   0.0000E+00  zforce=  -9.9329E+01   energy=   5.7279E-03   setid =    1734 xmoment=   0.0000E+00 ymoment=   0.0000E+00 zmoment=   0.0000E+00
 nd#    1735  xforce=   0.0000E+00   yforce=   0.0000E+00  zforce=  -1.4262E+02   energy=   5.8328E-03   setid =    1735 xmoment=   0.0000E+00 ymoment=   0.0000E+00 zmoment=   0.0000E+00
 nd#    1736  xforce=   0.0000E+00   yforce=   0.0000E+00  zforce=  -1.3266E+02   energy=   6.1872E-03   setid =    1736 xmoment=   0.0000E+00 ymoment=   0.0000E+00 zmoment=   0.0000E+00
 nd#    1737  xforce=   0.0000E+00   yforce=   0.0000E+00  zforce=  -1.5386E+02   energy=   6.0766E-03   setid =    1737 xmoment=   0.0000E+00 ymoment=   0.0000E+00 zmoment=   0.0000E+00
 nd#    1738  xforce=   0.0000E+00   yforce=   0.0000E+00  zforce=  -1.4968E+02   energy=   6.5666E-03   setid =    1738 xmoment=   0.0000E+00 ymoment=   0.0000E+00 zmoment=   0.0000E+00
 nd#    1739  xforce=   0.0000E+00   yforce=   0.0000E+00  zforce=  -1.6567E+02   energy=   6.2504E-03   setid =    1739 xmoment=   0.0000E+00 ymoment=   0.0000E+00 zmoment=   0.0000E+00
 nd#    1740  xforce=   0.0000E+00   yforce=   0.0000E+00  zforce=  -1.4324E+02   energy=   6.4534E-03   setid =    1740 xmoment=   0.0000E+00 ymoment=   0.0000E+00 zmoment=   0.0000E+00
 nd#    1741  xforce=   0.0000E+00   yforce=   0.0000E+00  zforce=  -1.3459E+02   energy=   5.8971E-03   setid =    1741 xmoment=   0.0000E+00 ymoment=   0.0000E+00 zmoment=   0.0000E+00
 nd#    1742  xforce=   0.0000E+00   yforce=   0.0000E+00  zforce=  -7.3851E+01   energy=   5.4495E-03   setid =    1742 xmoment=   0.0000E+00 ymoment=   0.0000E+00 zmoment=   0.0000E+00
 nd#    1743  xforce=   0.0000E+00   yforce=   0.0000E+00  zforce=  -4.8754E+01   energy=   2.7486E-03   setid =    1743 xmoment=   0.0000E+00 ymoment=   0.0000E+00 zmoment=   0.0000E+00
 nd#    1744  xforce=   0.0000E+00   yforce=   0.0000E+00  zforce=  -8.4436E+00   energy=   2.3189E-03   setid =    1744 xmoment=   0.0000E+00 ymoment=   0.0000E+00 zmoment=   0.0000E+00
 nd#    1751  xforce=   0.0000E+00   yforce=   0.0000E+00  zforce=  -1.4144E+02   energy=   4.9250E-03   setid =    1751 xmoment=   0.0000E+00 ymoment=   0.0000E+00 zmoment=   0.0000E+00
 nd#    1752  xforce=   0.0000E+00   yforce=   0.0000E+00  zforce=  -1.3409E+02   energy=   5.3473E-03   setid =    1752 xmoment=   0.0000E+00 ymoment=   0.0000E+00 zmoment=   0.0000E+00
 nd#    1753  xforce=   0.0000E+00   yforce=   0.0000E+00  zforce=  -1.4463E+02   energy=   4.8081E-03   setid =    1753 xmoment=   0.0000E+00 ymoment=   0.0000E+00 zmoment=   0.0000E+00
 nd#    1754  xforce=   0.0000E+00   yforce=   0.0000E+00  zforce=  -1.4760E+02   energy=   5.3946E-03   setid =    1754 xmoment=   0.0000E+00 ymoment=   0.0000E+00 zmoment=   0.0000E+00
 nd#    1755  xforce=   0.0000E+00   yforce=   0.0000E+00  zforce=  -1.4998E+02   energy=   4.9644E-03   setid =    1755 xmoment=   0.0000E+00 ymoment=   0.0000E+00 zmoment=   0.0000E+00
 nd#    1756  xforce=   0.0000E+00   yforce=   0.0000E+00  zforce=  -1.5512E+02   energy=   5.5697E-03   setid =    1756 xmoment=   0.0000E+00 ymoment=   0.0000E+00 zmoment=   0.0000E+00
 nd#    1757  xforce=   0.0000E+00   yforce=   0.0000E+00  zforce=  -1.5110E+02   energy=   4.9830E-03   setid =    1757 xmoment=   0.0000E+00 ymoment=   0.0000E+00 zmoment=   0.0000E+00
 nd#    1758  xforce=   0.0000E+00   yforce=   0.0000E+00  zforce=  -1.6144E+02   energy=   5.6387E-03   setid =    1758 xmoment=   0.0000E+00 ymoment=   0.0000E+00 zmoment=   0.0000E+00
 nd#    1759  xforce=   0.0000E+00   yforce=   0.0000E+00  zforce=  -1.2228E+02   energy=   4.7392E-03   setid =    1759 xmoment=   0.0000E+00 ymoment=   0.0000E+00 zmoment=   0.0000E+00
 nd#    1760  xforce=   0.0000E+00   yforce=   0.0000E+00  zforce=  -1.3577E+02   energy=   5.3321E-03   setid =    1760 xmoment=   0.0000E+00 ymoment=   0.0000E+00 zmoment=   0.0000E+00
 nd#    1761  xforce=   0.0000E+00   yforce=   0.0000E+00  zforce=  -5.0842E+01   energy=   2.3003E-03   setid =    1761 xmoment=   0.0000E+00 ymoment=   0.0000E+00 zmoment=   0.0000E+00
 nd#    1762  xforce=   0.0000E+00   yforce=   0.0000E+00  zforce=  -5.1569E+01   energy=   2.5589E-03   setid =    1762 xmoment=   0.0000E+00 ymoment=   0.0000E+00 zmoment=   0.0000E+00
 nd#    1769  xforce=   0.0000E+00   yforce=   0.0000E+00  zforce=   3.8387E+01   energy=   4.1148E-04   setid =    1769 xmoment=   0.0000E+00 ymoment=   0.0000E+00 zmoment=   0.0000E+00
 nd#    1770  xforce=   0.0000E+00   yforce=   0.0000E+00  zforce=   6.0870E+01   energy=  -2.0750E-05   setid =    1770 xmoment=   0.0000E+00 ymoment=   0.0000E+00 zmoment=   0.0000E+00
 nd#    1771  xforce=   0.0000E+00   yforce=   0.0000E+00  zforce=   8.3805E+01   energy=  -4.0380E-04   setid =    1771 xmoment=   0.0000E+00 ymoment=   0.0000E+00 zmoment=   0.0000E+00
 nd#    1772  xforce=   0.0000E+00   yforce=   0.0000E+00  zforce=   9.5596E+01   energy=  -6.0046E-04   setid =    1772 xmoment=   0.0000E+00 ymoment=   0.0000E+00 zmoment=   0.0000E+00
 nd#    1773  xforce=   0.0000E+00   yforce=   0.0000E+00  zforce=   1.2468E+02   energy=  -9.9375E-04   setid =    1773 xmoment=   0.0000E+00 ymoment=   0.0000E+00 zmoment=   0.0000E+00
 nd#    1774  xforce=   0.0000E+00   yforce=   0.0000E+00  zforce=   7.0084E+01   energy=  -6.2449E-04   setid =    1774 xmoment=   0.0000E+00 ymoment=   0.0000E+00 zmoment=   0.0000E+00
              xtotal=   0.0000E+00   ytotal=   0.0000E+00  ztotal=  -4.6693E+03   etotal=   2.0518E-01
