 LS-DYNA keyword deck by LS-PrePost                                      
                    ls-dyna smp d R14 R14.1.1s_1_ef50e1 date 06/16/2024



 e l e m e n t   s t r e s s   c a l c u l a t i o n s   f o r   t i m e  s t e p        1   ( at time 0.00000E+00 )

 element  materl
     ipt  stress       sig-xx      sig-yy      sig-zz      sig-xy      sig-yz      sig-zx                       yield
           state                                                                                  effsg      function
      45-      1
       1          -1.9509E-06 -1.9509E-06 -1.9509E-06  0.0000E+00  0.0000E+00  0.0000E+00    0.0000E+00    0.0000E+00
      47-      1
       1          -1.9509E-06 -1.9509E-06 -1.9509E-06  0.0000E+00  0.0000E+00  0.0000E+00    0.0000E+00    0.0000E+00
      53-      1
       1          -3.9019E-06 -3.9019E-06 -3.9019E-06  0.0000E+00  0.0000E+00  0.0000E+00    0.0000E+00    0.0000E+00
      61-      1
       1           0.0000E+00  0.0000E+00  0.0000E+00  0.0000E+00  0.0000E+00  0.0000E+00    0.0000E+00    0.0000E+00
      67-      1
       1          -3.9019E-06 -3.9019E-06 -3.9019E-06  0.0000E+00  0.0000E+00  0.0000E+00    0.0000E+00    0.0000E+00
      79-      1
       1           0.0000E+00  0.0000E+00  0.0000E+00  0.0000E+00  0.0000E+00  0.0000E+00    0.0000E+00    0.0000E+00
      81-      1
       1          -1.9509E-06 -1.9509E-06 -1.9509E-06  0.0000E+00  0.0000E+00  0.0000E+00    0.0000E+00    0.0000E+00



 e l e m e n t   s t r a i n   c a l c u l a t i o n s   f o r   t i m e  s t e p        1   ( at time  0.00000E+00 )

 element  strain       eps-xx      eps-yy      eps-zz      eps-xy      eps-yz      eps-zx                            yield
 num/ipt   state
      45-      1
      1            0.0000E+00  0.0000E+00  0.0000E+00  0.0000E+00  0.0000E+00  0.0000E+00
      47-      1
      1            0.0000E+00  0.0000E+00  0.0000E+00  0.0000E+00  0.0000E+00  0.0000E+00
      53-      1
      1            0.0000E+00  0.0000E+00  0.0000E+00  0.0000E+00  0.0000E+00  0.0000E+00
      61-      1
      1            0.0000E+00  0.0000E+00  0.0000E+00  0.0000E+00  0.0000E+00  0.0000E+00
      67-      1
      1            0.0000E+00  0.0000E+00  0.0000E+00  0.0000E+00  0.0000E+00  0.0000E+00
      79-      1
      1            0.0000E+00  0.0000E+00  0.0000E+00  0.0000E+00  0.0000E+00  0.0000E+00
      81-      1
      1            0.0000E+00  0.0000E+00  0.0000E+00  0.0000E+00  0.0000E+00  0.0000E+00



 e l e m e n t   s t r e s s   c a l c u l a t i o n s   f o r   t i m e  s t e p        6   ( at time 2.50000E+00 )

 element  materl
     ipt  stress       sig-xx      sig-yy      sig-zz      sig-xy      sig-yz      sig-zx                       yield
           state                                                                                  effsg      function
      45-      1
       1          -2.4122E+07 -4.2056E+07 -1.5864E+08  1.0124E+07 -8.5538E+06 -1.8183E+07    1.3238E+08    0.0000E+00
      47-      1
       1          -3.8609E+07 -3.0687E+07 -1.6003E+08  1.3010E+07 -1.6669E+07 -1.1928E+07    1.3243E+08    0.0000E+00
      53-      1
       1          -3.1852E+07 -3.6790E+07 -1.6056E+08  1.3743E+07 -1.3474E+07 -1.5708E+07    1.3344E+08    0.0000E+00
      61-      1
       1          -1.9411E+07 -4.5436E+07 -1.5834E+08  3.8174E+06 -2.9673E+06 -1.9854E+07    1.3273E+08    0.0000E+00
      67-      1
       1          -4.2844E+07 -2.5412E+07 -1.5707E+08  9.4652E+06 -1.8455E+07 -7.0284E+06    1.2954E+08    0.0000E+00
      79-      1
       1          -3.6131E+07 -3.5995E+07 -7.9974E+07  1.5298E+05  4.2983E+04  1.2602E+03    4.3913E+07    0.0000E+00
      81-      1
       1          -4.4519E+07 -2.0665E+07 -1.5560E+08  3.7564E+06 -1.9840E+07 -2.2856E+06    1.2960E+08    0.0000E+00



 e l e m e n t   s t r a i n   c a l c u l a t i o n s   f o r   t i m e  s t e p        6   ( at time  2.50000E+00 )

 element  strain       eps-xx      eps-yy      eps-zz      eps-xy      eps-yz      eps-zx                            yield
 num/ipt   state
      45-      1
      1            6.1400E-04  2.7160E-04 -1.9534E-03  1.9325E-04 -1.6319E-04 -3.4678E-04
      47-      1
      1            3.5908E-04  5.1018E-04 -1.9582E-03  2.4831E-04 -3.1799E-04 -2.2747E-04
      53-      1
      1            4.8745E-04  3.9306E-04 -1.9690E-03  2.6231E-04 -2.5706E-04 -2.9957E-04
      61-      1
      1            6.9609E-04  1.9931E-04 -1.9556E-03  7.2861E-05 -5.6614E-05 -3.7864E-04
      67-      1
      1            2.5910E-04  5.9180E-04 -1.9209E-03  1.8068E-04 -3.5204E-04 -1.3404E-04
      79-      1
      1            3.7585E-05  4.0185E-05 -7.9913E-04  2.9194E-06  8.2475E-07  2.8547E-08
      81-      1
      1            2.0537E-04  6.6071E-04 -1.9147E-03  7.1713E-05 -3.7844E-04 -4.3587E-05



 e l e m e n t   s t r e s s   c a l c u l a t i o n s   f o r   t i m e  s t e p       10   ( at time 6.46223E+00 )

 element  materl
     ipt  stress       sig-xx      sig-yy      sig-zz      sig-xy      sig-yz      sig-zx                       yield
           state                                                                                  effsg      function
      45-      1
       1          -7.9601E+07 -1.2090E+08 -3.3695E+08  2.3645E+07 -1.6262E+07 -3.5085E+07    2.5193E+08    6.2595E-04
      47-      1
       1          -1.1306E+08 -9.5272E+07 -3.3927E+08  3.0288E+07 -3.0160E+07 -2.2403E+07    2.5000E+08    6.3664E-04
      53-      1
       1          -9.7993E+07 -1.1046E+08 -3.4004E+08  3.1617E+07 -2.4586E+07 -2.9356E+07    2.5124E+08    6.4456E-04
      61-      1
       1          -6.8047E+07 -1.2716E+08 -3.3172E+08  9.0196E+06 -5.6989E+06 -3.8388E+07    2.4938E+08    6.5286E-04
      67-      1
       1          -1.2043E+08 -7.9019E+07 -3.3739E+08  2.2783E+07 -3.5159E+07 -1.3722E+07    2.5219E+08    5.7901E-04
      79-      1
       1          -9.5658E+07 -9.4734E+07 -2.1053E+08  6.5110E+05  1.1372E+05 -4.4525E+04    1.1534E+08    0.0000E+00
      81-      1
       1          -1.2190E+08 -6.5455E+07 -3.2891E+08  9.2549E+06 -3.8324E+07 -4.4513E+06    2.4989E+08    5.9750E-04



 e l e m e n t   s t r a i n   c a l c u l a t i o n s   f o r   t i m e  s t e p       10   ( at time  6.46223E+00 )

 element  strain       eps-xx      eps-yy      eps-zz      eps-xy      eps-yz      eps-zx                            yield
 num/ipt   state
      45-      1
      1            2.0379E-03  8.6751E-04 -5.4609E-03  6.7425E-04 -4.9943E-04 -1.0446E-03
      47-      1
      1            1.1777E-03  1.6779E-03 -5.4577E-03  8.7937E-04 -9.5847E-04 -6.9289E-04
      53-      1
      1            1.6209E-03  1.2682E-03 -5.4959E-03  9.1642E-04 -7.8052E-04 -8.9748E-04
      61-      1
      1            2.3388E-03  6.3079E-04 -5.4761E-03  2.6076E-04 -1.7284E-04 -1.1454E-03
      67-      1
      1            8.2742E-04  1.9681E-03 -5.3470E-03  6.4092E-04 -1.0672E-03 -4.1666E-04
      79-      1
      1            9.1331E-05  1.0896E-04 -2.1009E-03  1.2424E-05  2.1697E-06 -8.4924E-07
      81-      1
      1            6.4241E-04  2.2258E-03 -5.3234E-03  2.6313E-04 -1.1492E-03 -1.3701E-04



 e l e m e n t   s t r e s s   c a l c u l a t i o n s   f o r   t i m e  s t e p      128   ( at time 7.81516E+00 )

 element  materl
     ipt  stress       sig-xx      sig-yy      sig-zz      sig-xy      sig-yz      sig-zx                       yield
           state                                                                                  effsg      function
      45-      1
       1          -7.5216E+07 -1.2614E+08 -3.3677E+08  3.1109E+07 -1.7836E+07 -3.6084E+07    2.5583E+08    3.1584E-03
      47-      1
       1          -1.2516E+08 -1.0676E+08 -3.4465E+08  3.8134E+07 -3.0353E+07 -2.2601E+07    2.4741E+08    2.9041E-03
      53-      1
       1          -9.8865E+07 -1.1705E+08 -3.3746E+08  4.0504E+07 -2.4492E+07 -2.8995E+07    2.4932E+08    3.1129E-03
      61-      1
       1          -8.5743E+07 -1.4916E+08 -3.4817E+08  1.2074E+07 -7.2475E+06 -3.9213E+07    2.4790E+08    3.2332E-03
      67-      1
       1          -1.3357E+08 -8.4186E+07 -3.4651E+08  2.9346E+07 -3.8019E+07 -1.5253E+07    2.5674E+08    2.7426E-03
      79-      1
       1          -1.2822E+08 -1.2578E+08 -2.6473E+08  1.9161E+06  6.1199E+05 -5.6082E+05    1.3779E+08    0.0000E+00
      81-      1
       1          -1.3831E+08 -7.7576E+07 -3.3899E+08  1.0980E+07 -3.9870E+07 -5.1580E+06    2.4771E+08    2.8859E-03



 e l e m e n t   s t r a i n   c a l c u l a t i o n s   f o r   t i m e  s t e p      128   ( at time  7.81516E+00 )

 element  strain       eps-xx      eps-yy      eps-zz      eps-xy      eps-yz      eps-zx                            yield
 num/ipt   state
      45-      1
      1            3.6535E-03  1.5613E-03 -7.7779E-03  1.2685E-03 -8.0987E-04 -1.6034E-03
      47-      1
      1            1.9697E-03  2.7189E-03 -7.4303E-03  1.5307E-03 -1.3882E-03 -9.9870E-04
      53-      1
      1            2.8486E-03  2.1344E-03 -7.6162E-03  1.6632E-03 -1.1616E-03 -1.3158E-03
      61-      1
      1            3.8928E-03  1.1633E-03 -7.8330E-03  4.9449E-04 -3.0626E-04 -1.7556E-03
      67-      1
      1            1.4023E-03  3.3080E-03 -7.3946E-03  1.1368E-03 -1.6242E-03 -6.4575E-04
      79-      1
      1            3.3472E-05  7.9983E-05 -2.5716E-03  3.6558E-05  1.1603E-05 -1.0754E-05
      81-      1
      1            1.1381E-03  3.5995E-03 -7.3793E-03  4.4293E-04 -1.7366E-03 -2.2336E-04



 e l e m e n t   s t r e s s   c a l c u l a t i o n s   f o r   t i m e  s t e p      196   ( at time 8.81042E+00 )

 element  materl
     ipt  stress       sig-xx      sig-yy      sig-zz      sig-xy      sig-yz      sig-zx                       yield
           state                                                                                  effsg      function
      45-      1
       1          -1.0088E+08 -1.4621E+08 -3.5852E+08  2.8433E+07 -1.6349E+07 -3.4780E+07    2.5222E+08    4.9396E-03
      47-      1
       1          -1.2432E+08 -1.0656E+08 -3.3778E+08  3.6823E+07 -2.9757E+07 -1.9741E+07    2.3992E+08    4.7843E-03
      53-      1
       1          -1.1748E+08 -1.3138E+08 -3.4399E+08  3.8252E+07 -2.2721E+07 -2.5604E+07    2.3719E+08    4.9483E-03
      61-      1
       1          -7.8914E+07 -1.3720E+08 -3.3483E+08  1.0521E+07 -6.8013E+06 -3.5638E+07    2.4136E+08    5.5575E-03
      67-      1
       1          -1.1564E+08 -6.4889E+07 -3.2949E+08  2.9457E+07 -3.7297E+07 -1.3907E+07    2.5791E+08    4.6420E-03
      79-      1
       1          -1.4434E+08 -1.4038E+08 -3.1482E+08  3.7553E+06 -5.0507E+05 -1.3881E+06    1.7264E+08    0.0000E+00
      81-      1
       1          -1.0288E+08 -4.4234E+07 -3.0099E+08  1.1215E+07 -3.4168E+07 -4.2052E+06    2.4133E+08    5.0921E-03



 e l e m e n t   s t r a i n   c a l c u l a t i o n s   f o r   t i m e  s t e p      196   ( at time  8.81042E+00 )

 element  strain       eps-xx      eps-yy      eps-zz      eps-xy      eps-yz      eps-zx                            yield
 num/ipt   state
      45-      1
      1            4.4911E-03  2.0579E-03 -9.4328E-03  1.4986E-03 -9.6586E-04 -1.9346E-03
      47-      1
      1            2.6383E-03  3.5584E-03 -8.9021E-03  1.8932E-03 -1.7007E-03 -1.1484E-03
      53-      1
      1            3.5010E-03  2.7324E-03 -9.0542E-03  2.0117E-03 -1.3808E-03 -1.5166E-03
      61-      1
      1            5.2130E-03  1.8379E-03 -9.6791E-03  5.9946E-04 -3.5959E-04 -2.1546E-03
      67-      1
      1            2.0718E-03  4.5363E-03 -9.0379E-03  1.4560E-03 -2.0182E-03 -7.6789E-04
      79-      1
      1            1.1245E-04  1.8809E-04 -3.1410E-03  7.1652E-05 -9.8349E-06 -2.6622E-05
      81-      1
      1            1.8705E-03  5.0035E-03 -9.0132E-03  5.8915E-04 -2.0777E-03 -2.6079E-04



 e l e m e n t   s t r e s s   c a l c u l a t i o n s   f o r   t i m e  s t e p      327   ( at time 9.54259E+00 )

 element  materl
     ipt  stress       sig-xx      sig-yy      sig-zz      sig-xy      sig-yz      sig-zx                       yield
           state                                                                                  effsg      function
      45-      1
       1          -9.5500E+07 -1.1673E+08 -2.7660E+08  1.8913E+07 -8.9175E+06 -2.5133E+07    1.8058E+08    1.2848E-02
      47-      1
       1          -1.1181E+08 -1.0611E+08 -3.0414E+08  3.6416E+07 -2.3166E+07 -2.1208E+07    2.1227E+08    8.3996E-03
      53-      1
       1          -1.4843E+08 -1.6318E+08 -3.0728E+08  2.4685E+07 -1.5904E+07 -1.7131E+07    1.6302E+08    1.0926E-02
      61-      1
       1          -5.7325E+07 -9.5138E+07 -2.7006E+08 -7.1126E+06 -6.2483E+06 -4.5978E+07    2.1273E+08    1.4530E-02
      67-      1
       1          -1.1302E+08 -6.0089E+07 -3.2597E+08  2.6581E+07 -3.7928E+07 -2.3039E+07    2.5971E+08    7.2807E-03
      79-      1
       1          -1.4911E+08 -1.4737E+08 -3.4718E+08  2.1807E+06  4.8000E+06 -6.8258E+06    1.9951E+08    1.2432E-04
      81-      1
       1          -6.4509E+07 -3.1170E+07 -2.2151E+08  1.3315E+07 -3.1949E+07 -4.0432E+06    1.8611E+08    1.2640E-02



 e l e m e n t   s t r a i n   c a l c u l a t i o n s   f o r   t i m e  s t e p      327   ( at time  9.54259E+00 )

 element  strain       eps-xx      eps-yy      eps-zz      eps-xy      eps-yz      eps-zx                            yield
 num/ipt   state
      45-      1
      1            6.7495E-03  3.7633E-03 -1.2857E-02  2.0211E-03 -1.1088E-03 -3.0836E-03
      47-      1
      1            3.8450E-03  4.5849E-03 -1.0918E-02  2.5732E-03 -2.0152E-03 -1.5439E-03
      53-      1
      1            4.9033E-03  3.6107E-03 -1.1462E-02  2.5327E-03 -1.8486E-03 -2.0020E-03
      61-      1
      1            8.7317E-03  4.0540E-03 -1.4829E-02  1.1858E-05 -5.9555E-04 -4.5065E-03
      67-      1
      1            2.8538E-03  6.1330E-03 -1.1369E-02  1.7983E-03 -2.5725E-03 -1.2762E-03
      79-      1
      1            3.3973E-04  3.6185E-04 -3.7490E-03  5.4927E-05  1.2049E-04 -1.2513E-04
      81-      1
      1            3.3927E-03  7.0921E-03 -1.2018E-02  1.2792E-03 -3.0183E-03 -4.1832E-04



 e l e m e n t   s t r e s s   c a l c u l a t i o n s   f o r   t i m e  s t e p      331   ( at time 9.90954E+00 )

 element  materl
     ipt  stress       sig-xx      sig-yy      sig-zz      sig-xy      sig-yz      sig-zx                       yield
           state                                                                                  effsg      function
      45-      1
       1          -1.0404E+08 -1.2441E+08 -2.9356E+08  2.7481E+07 -1.0313E+07 -2.0975E+07    1.9073E+08    1.3624E-02
      47-      1
       1          -1.0576E+08 -9.5354E+07 -3.1313E+08  3.3691E+07 -2.6089E+07 -2.7146E+07    2.3006E+08    9.4384E-03
      53-      1
       1          -1.3080E+08 -1.4674E+08 -3.0807E+08  2.7229E+07 -1.8894E+07 -2.1558E+07    1.8315E+08    1.2297E-02
      61-      1
       1          -5.7423E+07 -1.0201E+08 -2.9479E+08  5.6862E+06 -1.0436E+07 -3.2932E+07    2.2677E+08    1.4590E-02
      67-      1
       1          -1.1153E+08 -6.4440E+07 -3.2686E+08  2.2825E+07 -4.0632E+07 -2.4573E+07    2.5895E+08    8.3682E-03
      79-      1
       1          -1.5368E+08 -1.5700E+08 -3.6005E+08  4.3344E+06  4.3782E+06 -8.1965E+06    2.0550E+08    3.1958E-04
      81-      1
       1          -5.6610E+07 -1.5900E+07 -2.1570E+08  4.2499E+06 -3.7828E+07 -2.8695E+06    1.9446E+08    1.4915E-02



 e l e m e n t   s t r a i n   c a l c u l a t i o n s   f o r   t i m e  s t e p      331   ( at time  9.90954E+00 )

 element  strain       eps-xx      eps-yy      eps-zz      eps-xy      eps-yz      eps-zx                            yield
 num/ipt   state
      45-      1
      1            6.9906E-03  4.0331E-03 -1.3525E-02  2.3408E-03 -1.2521E-03 -3.0788E-03
      47-      1
      1            4.2962E-03  5.1819E-03 -1.1930E-02  2.7139E-03 -2.2396E-03 -1.8322E-03
      53-      1
      1            5.5686E-03  4.1024E-03 -1.2462E-02  2.7740E-03 -2.0410E-03 -2.2536E-03
      61-      1
      1            8.9127E-03  4.0936E-03 -1.5201E-02  2.4855E-04 -6.7308E-04 -4.2939E-03
      67-      1
      1            3.2420E-03  6.6768E-03 -1.2319E-02  1.8727E-03 -2.8713E-03 -1.4533E-03
      79-      1
      1            4.5695E-04  3.7554E-04 -4.0079E-03  1.0143E-04  1.2176E-04 -1.5143E-04
      81-      1
      1            3.8400E-03  8.1327E-03 -1.3370E-02  1.1815E-03 -3.7299E-03 -4.2762E-04



 e l e m e n t   s t r e s s   c a l c u l a t i o n s   f o r   t i m e  s t e p      335   ( at time 1.04911E+01 )

 element  materl
     ipt  stress       sig-xx      sig-yy      sig-zz      sig-xy      sig-yz      sig-zx                       yield
           state                                                                                  effsg      function
      45-      1
       1          -1.0330E+08 -1.2856E+08 -3.2815E+08  2.8656E+07 -1.0957E+07 -2.5738E+07    2.2433E+08    1.4229E-02
      47-      1
       1          -1.1459E+08 -1.0051E+08 -3.2572E+08  3.1415E+07 -2.6517E+07 -2.8354E+07    2.3501E+08    1.0437E-02
      53-      1
       1          -1.3020E+08 -1.4655E+08 -3.2189E+08  2.8276E+07 -1.9721E+07 -2.4141E+07    1.9797E+08    1.3317E-02
      61-      1
       1          -6.6789E+07 -1.1458E+08 -3.2903E+08  1.2287E+07 -1.2302E+07 -2.9212E+07    2.4897E+08    1.4931E-02
      67-      1
       1          -1.1365E+08 -6.8177E+07 -3.2854E+08  1.9992E+07 -4.1059E+07 -2.4472E+07    2.5704E+08    9.6603E-03
      79-      1
       1          -1.5889E+08 -1.6838E+08 -3.7222E+08  5.3568E+06  3.7253E+06 -8.3079E+06    2.0954E+08    6.6850E-04
      81-      1
       1          -5.6268E+07 -1.9676E+07 -2.1872E+08  1.5327E+06 -3.9022E+07 -3.2144E+06    1.9566E+08    1.7268E-02



 e l e m e n t   s t r a i n   c a l c u l a t i o n s   f o r   t i m e  s t e p      335   ( at time  1.04911E+01 )

 element  strain       eps-xx      eps-yy      eps-zz      eps-xy      eps-yz      eps-zx                            yield
 num/ipt   state
      45-      1
      1            7.4025E-03  4.3509E-03 -1.4435E-02  2.4971E-03 -1.3238E-03 -3.2093E-03
      47-      1
      1            4.6166E-03  5.6423E-03 -1.2836E-02  2.8429E-03 -2.3975E-03 -2.0142E-03
      53-      1
      1            6.0453E-03  4.4525E-03 -1.3351E-02  2.9492E-03 -2.1139E-03 -2.4022E-03
      61-      1
      1            9.1919E-03  4.2197E-03 -1.5872E-02  3.6045E-04 -6.9556E-04 -4.3307E-03
      67-      1
      1            3.6426E-03  7.3503E-03 -1.3430E-02  1.9700E-03 -3.1792E-03 -1.6277E-03
      79-      1
      1            6.5081E-04  4.3410E-04 -4.3963E-03  1.3442E-04  1.2359E-04 -1.7211E-04
      81-      1
      1            4.3706E-03  9.0126E-03 -1.4813E-02  1.1748E-03 -4.2867E-03 -4.7316E-04



 e l e m e n t   s t r e s s   c a l c u l a t i o n s   f o r   t i m e  s t e p      427   ( at time 1.09189E+01 )

 element  materl
     ipt  stress       sig-xx      sig-yy      sig-zz      sig-xy      sig-yz      sig-zx                       yield
           state                                                                                  effsg      function
      45-      1
       1          -1.1304E+08 -1.3619E+08 -3.4025E+08  2.7528E+07 -1.0927E+07 -2.5172E+07    2.2679E+08    1.5210E-02
      47-      1
       1          -1.0631E+08 -9.1594E+07 -3.1566E+08  2.9712E+07 -2.5727E+07 -2.7648E+07    2.3249E+08    1.1640E-02
      53-      1
       1          -1.3055E+08 -1.4051E+08 -3.2287E+08  2.8570E+07 -1.9561E+07 -2.2960E+07    2.0087E+08    1.4379E-02
      61-      1
       1          -7.5791E+07 -1.1757E+08 -3.3236E+08  1.6133E+07 -1.1048E+07 -2.7492E+07    2.4549E+08    1.6016E-02
      67-      1
       1          -1.0216E+08 -6.2577E+07 -3.2142E+08  1.9111E+07 -4.0290E+07 -2.4318E+07    2.5702E+08    1.0886E-02
      79-      1
       1          -1.6471E+08 -1.7635E+08 -3.8233E+08  7.0103E+06  2.7197E+06 -9.1211E+06    2.1303E+08    1.0634E-03
      81-      1
       1          -5.1727E+07 -2.0630E+07 -2.1983E+08  2.2605E+06 -3.8508E+07 -4.0025E+06    1.9740E+08    1.9178E-02



 e l e m e n t   s t r a i n   c a l c u l a t i o n s   f o r   t i m e  s t e p      427   ( at time  1.09189E+01 )

 element  strain       eps-xx      eps-yy      eps-zz      eps-xy      eps-yz      eps-zx                            yield
 num/ipt   state
      45-      1
      1            7.8049E-03  4.6673E-03 -1.5293E-02  2.6194E-03 -1.3456E-03 -3.3140E-03
      47-      1
      1            5.0755E-03  6.1997E-03 -1.3724E-02  3.0062E-03 -2.5320E-03 -2.1601E-03
      53-      1
      1            6.4163E-03  4.8732E-03 -1.4121E-02  3.1191E-03 -2.1678E-03 -2.4725E-03
      61-      1
      1            9.6565E-03  4.5510E-03 -1.6741E-02  4.8883E-04 -6.9223E-04 -4.4666E-03
      67-      1
      1            4.1495E-03  7.9997E-03 -1.4472E-02  2.0869E-03 -3.4404E-03 -1.7841E-03
      79-      1
      1            8.1517E-04  5.3852E-04 -4.7780E-03  1.8232E-04  1.1165E-04 -2.0937E-04
      81-      1
      1            4.8824E-03  9.7124E-03 -1.6014E-02  1.2278E-03 -4.7070E-03 -5.2743E-04



 e l e m e n t   s t r e s s   c a l c u l a t i o n s   f o r   t i m e  s t e p      548   ( at time 1.15970E+01 )

 element  materl
     ipt  stress       sig-xx      sig-yy      sig-zz      sig-xy      sig-yz      sig-zx                       yield
           state                                                                                  effsg      function
      45-      1
       1           1.0404E+06  8.6704E+06 -1.0505E+08  1.0391E+07  1.1114E+06 -2.4761E+07    1.1954E+08    4.8826E-02
      47-      1
       1          -6.3055E+07 -5.1993E+07 -2.2704E+08  1.9881E+07 -3.2721E+07 -1.5394E+07    1.8422E+08    2.9776E-02
      53-      1
       1          -3.6289E+07 -3.6541E+07 -1.5747E+08  1.2547E+07 -1.5184E+07 -1.7030E+07    1.2918E+08    4.3136E-02
      61-      1
       1          -2.1572E+08 -2.5506E+08 -3.2150E+08 -2.3407E+07 -5.6317E+06 -1.0731E+07    1.0325E+08    8.3800E-02
      67-      1
       1          -1.4468E+08 -9.7074E+07 -3.2421E+08  1.3036E+07 -3.3011E+07 -3.7305E+06    2.1648E+08    1.8400E-02
      79-      1
       1          -1.2754E+08 -1.8557E+08 -3.4243E+08 -1.7342E+07  1.0495E+07 -4.6807E+06    1.9589E+08    5.7640E-03
      81-      1
       1          -1.3602E+08 -9.1711E+07 -2.3685E+08 -1.2346E+06 -1.6373E+07  2.1974E+06    1.3199E+08    3.0395E-02



 e l e m e n t   s t r a i n   c a l c u l a t i o n s   f o r   t i m e  s t e p      548   ( at time  1.15970E+01 )

 element  strain       eps-xx      eps-yy      eps-zz      eps-xy      eps-yz      eps-zx                            yield
 num/ipt   state
      45-      1
      1            1.2552E-02  1.1110E-02 -2.4274E-02  3.6445E-03 -7.4146E-04 -7.3605E-03
      47-      1
      1            7.8447E-03  1.1625E-02 -2.1159E-02  4.0403E-03 -4.8426E-03 -3.0689E-03
      53-      1
      1            1.1996E-02  1.0165E-02 -2.3345E-02  4.2776E-03 -4.9791E-03 -5.4324E-03
      61-      1
      1            1.6740E-02  4.2822E-03 -2.4723E-02 -8.8195E-03 -1.2243E-03 -8.9100E-03
      67-      1
      1            5.3530E-03  1.1283E-02 -1.9352E-02  2.4654E-03 -4.8593E-03 -1.4126E-03
      79-      1
      1            3.5650E-03  6.5020E-04 -7.2811E-03 -9.9022E-04  9.6700E-04 -3.7982E-04
      81-      1
      1            5.0740E-03  1.2554E-02 -1.9891E-02  1.0622E-03 -5.6287E-03 -2.7137E-04
