 LS-DYNA keyword deck by LS-PrePost                                      
                    ls-dyna smp d R14 R14.1.1s_1_ef50e1 date 06/16/2024

 n o d a l   f o r c e/e n e r g y    o u t p u t  t=   0.00000E+00

 velocity boundary condition forces/rigid body moments 

 nd#     105  xforce=   0.0000E+00   yforce=   0.0000E+00  zforce=   0.0000E+00   energy=   0.0000E+00   setid =     105 xmoment=   0.0000E+00 ymoment=   0.0000E+00 zmoment=   0.0000E+00
 nd#     106  xforce=   0.0000E+00   yforce=   0.0000E+00  zforce=   0.0000E+00   energy=   0.0000E+00   setid =     106 xmoment=   0.0000E+00 ymoment=   0.0000E+00 zmoment=   0.0000E+00
 nd#     107  xforce=   0.0000E+00   yforce=   0.0000E+00  zforce=   0.0000E+00   energy=   0.0000E+00   setid =     107 xmoment=   0.0000E+00 ymoment=   0.0000E+00 zmoment=   0.0000E+00
 nd#     108  xforce=   0.0000E+00   yforce=   0.0000E+00  zforce=   0.0000E+00   energy=   0.0000E+00   setid =     108 xmoment=   0.0000E+00 ymoment=   0.0000E+00 zmoment=   0.0000E+00
 nd#     137  xforce=   0.0000E+00   yforce=   0.0000E+00  zforce=   0.0000E+00   energy=   0.0000E+00   setid =     137 xmoment=   0.0000E+00 ymoment=   0.0000E+00 zmoment=   0.0000E+00
 nd#     138  xforce=   0.0000E+00   yforce=   0.0000E+00  zforce=   0.0000E+00   energy=   0.0000E+00   setid =     138 xmoment=   0.0000E+00 ymoment=   0.0000E+00 zmoment=   0.0000E+00
 nd#     139  xforce=   0.0000E+00   yforce=   0.0000E+00  zforce=   0.0000E+00   energy=   0.0000E+00   setid =     139 xmoment=   0.0000E+00 ymoment=   0.0000E+00 zmoment=   0.0000E+00
 nd#     140  xforce=   0.0000E+00   yforce=   0.0000E+00  zforce=   0.0000E+00   energy=   0.0000E+00   setid =     140 xmoment=   0.0000E+00 ymoment=   0.0000E+00 zmoment=   0.0000E+00
 nd#     162  xforce=   0.0000E+00   yforce=   0.0000E+00  zforce=   0.0000E+00   energy=   0.0000E+00   setid =     162 xmoment=   0.0000E+00 ymoment=   0.0000E+00 zmoment=   0.0000E+00
 nd#     163  xforce=   0.0000E+00   yforce=   0.0000E+00  zforce=   0.0000E+00   energy=   0.0000E+00   setid =     163 xmoment=   0.0000E+00 ymoment=   0.0000E+00 zmoment=   0.0000E+00
 nd#     164  xforce=   0.0000E+00   yforce=   0.0000E+00  zforce=   0.0000E+00   energy=   0.0000E+00   setid =     164 xmoment=   0.0000E+00 ymoment=   0.0000E+00 zmoment=   0.0000E+00
 nd#     179  xforce=   0.0000E+00   yforce=   0.0000E+00  zforce=   0.0000E+00   energy=   0.0000E+00   setid =     179 xmoment=   0.0000E+00 ymoment=   0.0000E+00 zmoment=   0.0000E+00
 nd#     180  xforce=   0.0000E+00   yforce=   0.0000E+00  zforce=   0.0000E+00   energy=   0.0000E+00   setid =     180 xmoment=   0.0000E+00 ymoment=   0.0000E+00 zmoment=   0.0000E+00
 nd#     188  xforce=   0.0000E+00   yforce=   0.0000E+00  zforce=   0.0000E+00   energy=   0.0000E+00   setid =     188 xmoment=   0.0000E+00 ymoment=   0.0000E+00 zmoment=   0.0000E+00
 nd#     210  xforce=   0.0000E+00   yforce=   0.0000E+00  zforce=   0.0000E+00   energy=   0.0000E+00   setid =     210 xmoment=   0.0000E+00 ymoment=   0.0000E+00 zmoment=   0.0000E+00
 nd#     211  xforce=   0.0000E+00   yforce=   0.0000E+00  zforce=   0.0000E+00   energy=   0.0000E+00   setid =     211 xmoment=   0.0000E+00 ymoment=   0.0000E+00 zmoment=   0.0000E+00
 nd#     212  xforce=   0.0000E+00   yforce=   0.0000E+00  zforce=   0.0000E+00   energy=   0.0000E+00   setid =     212 xmoment=   0.0000E+00 ymoment=   0.0000E+00 zmoment=   0.0000E+00
 nd#     220  xforce=   0.0000E+00   yforce=   0.0000E+00  zforce=   0.0000E+00   energy=   0.0000E+00   setid =     220 xmoment=   0.0000E+00 ymoment=   0.0000E+00 zmoment=   0.0000E+00
 nd#     228  xforce=   0.0000E+00   yforce=   0.0000E+00  zforce=   0.0000E+00   energy=   0.0000E+00   setid =     228 xmoment=   0.0000E+00 ymoment=   0.0000E+00 zmoment=   0.0000E+00
 nd#     787  xforce=   0.0000E+00   yforce=   0.0000E+00  zforce=   0.0000E+00   energy=   0.0000E+00   setid =     787 xmoment=   0.0000E+00 ymoment=   0.0000E+00 zmoment=   0.0000E+00
 nd#     788  xforce=   0.0000E+00   yforce=   0.0000E+00  zforce=   0.0000E+00   energy=   0.0000E+00   setid =     788 xmoment=   0.0000E+00 ymoment=   0.0000E+00 zmoment=   0.0000E+00
 nd#     789  xforce=   0.0000E+00   yforce=   0.0000E+00  zforce=   0.0000E+00   energy=   0.0000E+00   setid =     789 xmoment=   0.0000E+00 ymoment=   0.0000E+00 zmoment=   0.0000E+00
 nd#     790  xforce=   0.0000E+00   yforce=   0.0000E+00  zforce=   0.0000E+00   energy=   0.0000E+00   setid =     790 xmoment=   0.0000E+00 ymoment=   0.0000E+00 zmoment=   0.0000E+00
 nd#     791  xforce=   0.0000E+00   yforce=   0.0000E+00  zforce=   0.0000E+00   energy=   0.0000E+00   setid =     791 xmoment=   0.0000E+00 ymoment=   0.0000E+00 zmoment=   0.0000E+00
 nd#     792  xforce=   0.0000E+00   yforce=   0.0000E+00  zforce=   0.0000E+00   energy=   0.0000E+00   setid =     792 xmoment=   0.0000E+00 ymoment=   0.0000E+00 zmoment=   0.0000E+00
 nd#     793  xforce=   0.0000E+00   yforce=   0.0000E+00  zforce=   0.0000E+00   energy=   0.0000E+00   setid =     793 xmoment=   0.0000E+00 ymoment=   0.0000E+00 zmoment=   0.0000E+00
 nd#     794  xforce=   0.0000E+00   yforce=   0.0000E+00  zforce=   0.0000E+00   energy=   0.0000E+00   setid =     794 xmoment=   0.0000E+00 ymoment=   0.0000E+00 zmoment=   0.0000E+00
 nd#     955  xforce=   0.0000E+00   yforce=   0.0000E+00  zforce=   0.0000E+00   energy=   0.0000E+00   setid =     955 xmoment=   0.0000E+00 ymoment=   0.0000E+00 zmoment=   0.0000E+00
 nd#     956  xforce=   0.0000E+00   yforce=   0.0000E+00  zforce=   0.0000E+00   energy=   0.0000E+00   setid =     956 xmoment=   0.0000E+00 ymoment=   0.0000E+00 zmoment=   0.0000E+00
 nd#     957  xforce=   0.0000E+00   yforce=   0.0000E+00  zforce=   0.0000E+00   energy=   0.0000E+00   setid =     957 xmoment=   0.0000E+00 ymoment=   0.0000E+00 zmoment=   0.0000E+00
 nd#     958  xforce=   0.0000E+00   yforce=   0.0000E+00  zforce=   0.0000E+00   energy=   0.0000E+00   setid =     958 xmoment=   0.0000E+00 ymoment=   0.0000E+00 zmoment=   0.0000E+00
 nd#     959  xforce=   0.0000E+00   yforce=   0.0000E+00  zforce=   0.0000E+00   energy=   0.0000E+00   setid =     959 xmoment=   0.0000E+00 ymoment=   0.0000E+00 zmoment=   0.0000E+00
 nd#     960  xforce=   0.0000E+00   yforce=   0.0000E+00  zforce=   0.0000E+00   energy=   0.0000E+00   setid =     960 xmoment=   0.0000E+00 ymoment=   0.0000E+00 zmoment=   0.0000E+00
 nd#     961  xforce=   0.0000E+00   yforce=   0.0000E+00  zforce=   0.0000E+00   energy=   0.0000E+00   setid =     961 xmoment=   0.0000E+00 ymoment=   0.0000E+00 zmoment=   0.0000E+00
 nd#     962  xforce=   0.0000E+00   yforce=   0.0000E+00  zforce=   0.0000E+00   energy=   0.0000E+00   setid =     962 xmoment=   0.0000E+00 ymoment=   0.0000E+00 zmoment=   0.0000E+00
 nd#     975  xforce=   0.0000E+00   yforce=   0.0000E+00  zforce=   0.0000E+00   energy=   0.0000E+00   setid =     975 xmoment=   0.0000E+00 ymoment=   0.0000E+00 zmoment=   0.0000E+00
 nd#     977  xforce=   0.0000E+00   yforce=   0.0000E+00  zforce=   0.0000E+00   energy=   0.0000E+00   setid =     977 xmoment=   0.0000E+00 ymoment=   0.0000E+00 zmoment=   0.0000E+00
 nd#     978  xforce=   0.0000E+00   yforce=   0.0000E+00  zforce=   0.0000E+00   energy=   0.0000E+00   setid =     978 xmoment=   0.0000E+00 ymoment=   0.0000E+00 zmoment=   0.0000E+00
 nd#     980  xforce=   0.0000E+00   yforce=   0.0000E+00  zforce=   0.0000E+00   energy=   0.0000E+00   setid =     980 xmoment=   0.0000E+00 ymoment=   0.0000E+00 zmoment=   0.0000E+00
 nd#     981  xforce=   0.0000E+00   yforce=   0.0000E+00  zforce=   0.0000E+00   energy=   0.0000E+00   setid =     981 xmoment=   0.0000E+00 ymoment=   0.0000E+00 zmoment=   0.0000E+00
 nd#     983  xforce=   0.0000E+00   yforce=   0.0000E+00  zforce=   0.0000E+00   energy=   0.0000E+00   setid =     983 xmoment=   0.0000E+00 ymoment=   0.0000E+00 zmoment=   0.0000E+00
 nd#     984  xforce=   0.0000E+00   yforce=   0.0000E+00  zforce=   0.0000E+00   energy=   0.0000E+00   setid =     984 xmoment=   0.0000E+00 ymoment=   0.0000E+00 zmoment=   0.0000E+00
 nd#     986  xforce=   0.0000E+00   yforce=   0.0000E+00  zforce=   0.0000E+00   energy=   0.0000E+00   setid =     986 xmoment=   0.0000E+00 ymoment=   0.0000E+00 zmoment=   0.0000E+00
 nd#    1059  xforce=   0.0000E+00   yforce=   0.0000E+00  zforce=   0.0000E+00   energy=   0.0000E+00   setid =    1059 xmoment=   0.0000E+00 ymoment=   0.0000E+00 zmoment=   0.0000E+00
 nd#    1061  xforce=   0.0000E+00   yforce=   0.0000E+00  zforce=   0.0000E+00   energy=   0.0000E+00   setid =    1061 xmoment=   0.0000E+00 ymoment=   0.0000E+00 zmoment=   0.0000E+00
 nd#    1063  xforce=   0.0000E+00   yforce=   0.0000E+00  zforce=   0.0000E+00   energy=   0.0000E+00   setid =    1063 xmoment=   0.0000E+00 ymoment=   0.0000E+00 zmoment=   0.0000E+00
 nd#    1065  xforce=   0.0000E+00   yforce=   0.0000E+00  zforce=   0.0000E+00   energy=   0.0000E+00   setid =    1065 xmoment=   0.0000E+00 ymoment=   0.0000E+00 zmoment=   0.0000E+00
 nd#    1071  xforce=   0.0000E+00   yforce=   0.0000E+00  zforce=   0.0000E+00   energy=   0.0000E+00   setid =    1071 xmoment=   0.0000E+00 ymoment=   0.0000E+00 zmoment=   0.0000E+00
 nd#    1072  xforce=   0.0000E+00   yforce=   0.0000E+00  zforce=   0.0000E+00   energy=   0.0000E+00   setid =    1072 xmoment=   0.0000E+00 ymoment=   0.0000E+00 zmoment=   0.0000E+00
 nd#    1073  xforce=   0.0000E+00   yforce=   0.0000E+00  zforce=   0.0000E+00   energy=   0.0000E+00   setid =    1073 xmoment=   0.0000E+00 ymoment=   0.0000E+00 zmoment=   0.0000E+00
 nd#    1074  xforce=   0.0000E+00   yforce=   0.0000E+00  zforce=   0.0000E+00   energy=   0.0000E+00   setid =    1074 xmoment=   0.0000E+00 ymoment=   0.0000E+00 zmoment=   0.0000E+00
 nd#    1111  xforce=   0.0000E+00   yforce=   0.0000E+00  zforce=   0.0000E+00   energy=   0.0000E+00   setid =    1111 xmoment=   0.0000E+00 ymoment=   0.0000E+00 zmoment=   0.0000E+00
 nd#    1112  xforce=   0.0000E+00   yforce=   0.0000E+00  zforce=   0.0000E+00   energy=   0.0000E+00   setid =    1112 xmoment=   0.0000E+00 ymoment=   0.0000E+00 zmoment=   0.0000E+00
 nd#    1113  xforce=   0.0000E+00   yforce=   0.0000E+00  zforce=   0.0000E+00   energy=   0.0000E+00   setid =    1113 xmoment=   0.0000E+00 ymoment=   0.0000E+00 zmoment=   0.0000E+00
 nd#    1114  xforce=   0.0000E+00   yforce=   0.0000E+00  zforce=   0.0000E+00   energy=   0.0000E+00   setid =    1114 xmoment=   0.0000E+00 ymoment=   0.0000E+00 zmoment=   0.0000E+00
 nd#    1135  xforce=   0.0000E+00   yforce=   0.0000E+00  zforce=   0.0000E+00   energy=   0.0000E+00   setid =    1135 xmoment=   0.0000E+00 ymoment=   0.0000E+00 zmoment=   0.0000E+00
 nd#    1136  xforce=   0.0000E+00   yforce=   0.0000E+00  zforce=   0.0000E+00   energy=   0.0000E+00   setid =    1136 xmoment=   0.0000E+00 ymoment=   0.0000E+00 zmoment=   0.0000E+00
 nd#    1137  xforce=   0.0000E+00   yforce=   0.0000E+00  zforce=   0.0000E+00   energy=   0.0000E+00   setid =    1137 xmoment=   0.0000E+00 ymoment=   0.0000E+00 zmoment=   0.0000E+00
 nd#    1138  xforce=   0.0000E+00   yforce=   0.0000E+00  zforce=   0.0000E+00   energy=   0.0000E+00   setid =    1138 xmoment=   0.0000E+00 ymoment=   0.0000E+00 zmoment=   0.0000E+00
              xtotal=   0.0000E+00   ytotal=   0.0000E+00  ztotal=   0.0000E+00   etotal=   0.0000E+00

 n o d a l   f o r c e/e n e r g y    o u t p u t  t=   2.50000E+00

 velocity boundary condition forces/rigid body moments 

 nd#     105  xforce=   0.0000E+00   yforce=   0.0000E+00  zforce=  -1.0535E+01   energy=   1.3169E-05   setid =     105 xmoment=   0.0000E+00 ymoment=   0.0000E+00 zmoment=   0.0000E+00
 nd#     106  xforce=   0.0000E+00   yforce=   0.0000E+00  zforce=  -1.0329E+01   energy=   1.2911E-05   setid =     106 xmoment=   0.0000E+00 ymoment=   0.0000E+00 zmoment=   0.0000E+00
 nd#     107  xforce=   0.0000E+00   yforce=   0.0000E+00  zforce=  -1.1760E+01   energy=   1.4700E-05   setid =     107 xmoment=   0.0000E+00 ymoment=   0.0000E+00 zmoment=   0.0000E+00
 nd#     108  xforce=   0.0000E+00   yforce=   0.0000E+00  zforce=  -1.1402E+01   energy=   1.4252E-05   setid =     108 xmoment=   0.0000E+00 ymoment=   0.0000E+00 zmoment=   0.0000E+00
 nd#     137  xforce=   0.0000E+00   yforce=   0.0000E+00  zforce=  -1.2544E+01   energy=   1.5680E-05   setid =     137 xmoment=   0.0000E+00 ymoment=   0.0000E+00 zmoment=   0.0000E+00
 nd#     138  xforce=   0.0000E+00   yforce=   0.0000E+00  zforce=  -1.1838E+01   energy=   1.4798E-05   setid =     138 xmoment=   0.0000E+00 ymoment=   0.0000E+00 zmoment=   0.0000E+00
 nd#     139  xforce=   0.0000E+00   yforce=   0.0000E+00  zforce=  -6.1986E+00   energy=   7.7483E-06   setid =     139 xmoment=   0.0000E+00 ymoment=   0.0000E+00 zmoment=   0.0000E+00
 nd#     140  xforce=   0.0000E+00   yforce=   0.0000E+00  zforce=  -6.4425E+00   energy=   8.0531E-06   setid =     140 xmoment=   0.0000E+00 ymoment=   0.0000E+00 zmoment=   0.0000E+00
 nd#     162  xforce=   0.0000E+00   yforce=   0.0000E+00  zforce=  -5.4657E+00   energy=   6.8322E-06   setid =     162 xmoment=   0.0000E+00 ymoment=   0.0000E+00 zmoment=   0.0000E+00
 nd#     163  xforce=   0.0000E+00   yforce=   0.0000E+00  zforce=  -7.9645E+00   energy=   9.9556E-06   setid =     163 xmoment=   0.0000E+00 ymoment=   0.0000E+00 zmoment=   0.0000E+00
 nd#     164  xforce=   0.0000E+00   yforce=   0.0000E+00  zforce=  -6.4689E+00   energy=   8.0861E-06   setid =     164 xmoment=   0.0000E+00 ymoment=   0.0000E+00 zmoment=   0.0000E+00
 nd#     179  xforce=   0.0000E+00   yforce=   0.0000E+00  zforce=  -1.0682E+01   energy=   1.3352E-05   setid =     179 xmoment=   0.0000E+00 ymoment=   0.0000E+00 zmoment=   0.0000E+00
 nd#     180  xforce=   0.0000E+00   yforce=   0.0000E+00  zforce=  -6.9585E+00   energy=   8.6982E-06   setid =     180 xmoment=   0.0000E+00 ymoment=   0.0000E+00 zmoment=   0.0000E+00
 nd#     188  xforce=   0.0000E+00   yforce=   0.0000E+00  zforce=  -5.6909E+00   energy=   7.1137E-06   setid =     188 xmoment=   0.0000E+00 ymoment=   0.0000E+00 zmoment=   0.0000E+00
 nd#     210  xforce=   0.0000E+00   yforce=   0.0000E+00  zforce=  -6.4558E+00   energy=   8.0698E-06   setid =     210 xmoment=   0.0000E+00 ymoment=   0.0000E+00 zmoment=   0.0000E+00
 nd#     211  xforce=   0.0000E+00   yforce=   0.0000E+00  zforce=  -1.1187E+01   energy=   1.3983E-05   setid =     211 xmoment=   0.0000E+00 ymoment=   0.0000E+00 zmoment=   0.0000E+00
 nd#     212  xforce=   0.0000E+00   yforce=   0.0000E+00  zforce=  -5.5111E+00   energy=   6.8889E-06   setid =     212 xmoment=   0.0000E+00 ymoment=   0.0000E+00 zmoment=   0.0000E+00
 nd#     220  xforce=   0.0000E+00   yforce=   0.0000E+00  zforce=  -3.7639E+00   energy=   4.7048E-06   setid =     220 xmoment=   0.0000E+00 ymoment=   0.0000E+00 zmoment=   0.0000E+00
 nd#     228  xforce=   0.0000E+00   yforce=   0.0000E+00  zforce=  -6.7170E+00   energy=   8.3963E-06   setid =     228 xmoment=   0.0000E+00 ymoment=   0.0000E+00 zmoment=   0.0000E+00
 nd#     787  xforce=   0.0000E+00   yforce=   0.0000E+00  zforce=  -5.9937E+00   energy=   7.4921E-06   setid =     787 xmoment=   0.0000E+00 ymoment=   0.0000E+00 zmoment=   0.0000E+00
 nd#     788  xforce=   0.0000E+00   yforce=   0.0000E+00  zforce=  -5.0586E+00   energy=   6.3233E-06   setid =     788 xmoment=   0.0000E+00 ymoment=   0.0000E+00 zmoment=   0.0000E+00
 nd#     789  xforce=   0.0000E+00   yforce=   0.0000E+00  zforce=  -3.9366E+00   energy=   4.9207E-06   setid =     789 xmoment=   0.0000E+00 ymoment=   0.0000E+00 zmoment=   0.0000E+00
 nd#     790  xforce=   0.0000E+00   yforce=   0.0000E+00  zforce=  -2.8058E+00   energy=   3.5072E-06   setid =     790 xmoment=   0.0000E+00 ymoment=   0.0000E+00 zmoment=   0.0000E+00
 nd#     791  xforce=   0.0000E+00   yforce=   0.0000E+00  zforce=  -1.7877E+00   energy=   2.2346E-06   setid =     791 xmoment=   0.0000E+00 ymoment=   0.0000E+00 zmoment=   0.0000E+00
 nd#     792  xforce=   0.0000E+00   yforce=   0.0000E+00  zforce=  -9.0367E-01   energy=   1.1296E-06   setid =     792 xmoment=   0.0000E+00 ymoment=   0.0000E+00 zmoment=   0.0000E+00
 nd#     793  xforce=   0.0000E+00   yforce=   0.0000E+00  zforce=  -1.4635E-02   energy=   1.8293E-08   setid =     793 xmoment=   0.0000E+00 ymoment=   0.0000E+00 zmoment=   0.0000E+00
 nd#     794  xforce=   0.0000E+00   yforce=   0.0000E+00  zforce=   2.2620E-01   energy=  -2.8275E-07   setid =     794 xmoment=   0.0000E+00 ymoment=   0.0000E+00 zmoment=   0.0000E+00
 nd#     955  xforce=   0.0000E+00   yforce=   0.0000E+00  zforce=  -4.9075E+00   energy=   6.1344E-06   setid =     955 xmoment=   0.0000E+00 ymoment=   0.0000E+00 zmoment=   0.0000E+00
 nd#     956  xforce=   0.0000E+00   yforce=   0.0000E+00  zforce=  -3.0288E+00   energy=   3.7860E-06   setid =     956 xmoment=   0.0000E+00 ymoment=   0.0000E+00 zmoment=   0.0000E+00
 nd#     957  xforce=   0.0000E+00   yforce=   0.0000E+00  zforce=  -5.1906E+00   energy=   6.4883E-06   setid =     957 xmoment=   0.0000E+00 ymoment=   0.0000E+00 zmoment=   0.0000E+00
 nd#     958  xforce=   0.0000E+00   yforce=   0.0000E+00  zforce=  -3.3954E+00   energy=   4.2442E-06   setid =     958 xmoment=   0.0000E+00 ymoment=   0.0000E+00 zmoment=   0.0000E+00
 nd#     959  xforce=   0.0000E+00   yforce=   0.0000E+00  zforce=  -5.1283E+00   energy=   6.4104E-06   setid =     959 xmoment=   0.0000E+00 ymoment=   0.0000E+00 zmoment=   0.0000E+00
 nd#     960  xforce=   0.0000E+00   yforce=   0.0000E+00  zforce=  -3.3207E+00   energy=   4.1509E-06   setid =     960 xmoment=   0.0000E+00 ymoment=   0.0000E+00 zmoment=   0.0000E+00
 nd#     961  xforce=   0.0000E+00   yforce=   0.0000E+00  zforce=  -2.3869E+00   energy=   2.9837E-06   setid =     961 xmoment=   0.0000E+00 ymoment=   0.0000E+00 zmoment=   0.0000E+00
 nd#     962  xforce=   0.0000E+00   yforce=   0.0000E+00  zforce=  -1.4764E+00   energy=   1.8455E-06   setid =     962 xmoment=   0.0000E+00 ymoment=   0.0000E+00 zmoment=   0.0000E+00
 nd#     975  xforce=   0.0000E+00   yforce=   0.0000E+00  zforce=   3.0231E-01   energy=  -3.7788E-07   setid =     975 xmoment=   0.0000E+00 ymoment=   0.0000E+00 zmoment=   0.0000E+00
 nd#     977  xforce=   0.0000E+00   yforce=   0.0000E+00  zforce=   9.7319E-01   energy=  -1.2165E-06   setid =     977 xmoment=   0.0000E+00 ymoment=   0.0000E+00 zmoment=   0.0000E+00
 nd#     978  xforce=   0.0000E+00   yforce=   0.0000E+00  zforce=  -2.4141E-01   energy=   3.0176E-07   setid =     978 xmoment=   0.0000E+00 ymoment=   0.0000E+00 zmoment=   0.0000E+00
 nd#     980  xforce=   0.0000E+00   yforce=   0.0000E+00  zforce=   5.9937E-01   energy=  -7.4922E-07   setid =     980 xmoment=   0.0000E+00 ymoment=   0.0000E+00 zmoment=   0.0000E+00
 nd#     981  xforce=   0.0000E+00   yforce=   0.0000E+00  zforce=  -3.4365E-01   energy=   4.2956E-07   setid =     981 xmoment=   0.0000E+00 ymoment=   0.0000E+00 zmoment=   0.0000E+00
 nd#     983  xforce=   0.0000E+00   yforce=   0.0000E+00  zforce=   1.7237E-01   energy=  -2.1547E-07   setid =     983 xmoment=   0.0000E+00 ymoment=   0.0000E+00 zmoment=   0.0000E+00
 nd#     984  xforce=   0.0000E+00   yforce=   0.0000E+00  zforce=  -2.1002E-02   energy=   2.6253E-08   setid =     984 xmoment=   0.0000E+00 ymoment=   0.0000E+00 zmoment=   0.0000E+00
 nd#     986  xforce=   0.0000E+00   yforce=   0.0000E+00  zforce=   6.5656E-02   energy=  -8.2070E-08   setid =     986 xmoment=   0.0000E+00 ymoment=   0.0000E+00 zmoment=   0.0000E+00
 nd#    1059  xforce=   0.0000E+00   yforce=   0.0000E+00  zforce=  -6.9995E+00   energy=   8.7494E-06   setid =    1059 xmoment=   0.0000E+00 ymoment=   0.0000E+00 zmoment=   0.0000E+00
 nd#    1061  xforce=   0.0000E+00   yforce=   0.0000E+00  zforce=  -7.2292E+00   energy=   9.0365E-06   setid =    1061 xmoment=   0.0000E+00 ymoment=   0.0000E+00 zmoment=   0.0000E+00
 nd#    1063  xforce=   0.0000E+00   yforce=   0.0000E+00  zforce=  -7.2139E+00   energy=   9.0173E-06   setid =    1063 xmoment=   0.0000E+00 ymoment=   0.0000E+00 zmoment=   0.0000E+00
 nd#    1065  xforce=   0.0000E+00   yforce=   0.0000E+00  zforce=  -3.4389E+00   energy=   4.2986E-06   setid =    1065 xmoment=   0.0000E+00 ymoment=   0.0000E+00 zmoment=   0.0000E+00
 nd#    1071  xforce=   0.0000E+00   yforce=   0.0000E+00  zforce=  -1.3978E+00   energy=   1.7472E-06   setid =    1071 xmoment=   0.0000E+00 ymoment=   0.0000E+00 zmoment=   0.0000E+00
 nd#    1072  xforce=   0.0000E+00   yforce=   0.0000E+00  zforce=  -1.8604E+00   energy=   2.3255E-06   setid =    1072 xmoment=   0.0000E+00 ymoment=   0.0000E+00 zmoment=   0.0000E+00
 nd#    1073  xforce=   0.0000E+00   yforce=   0.0000E+00  zforce=  -1.7966E+00   energy=   2.2458E-06   setid =    1073 xmoment=   0.0000E+00 ymoment=   0.0000E+00 zmoment=   0.0000E+00
 nd#    1074  xforce=   0.0000E+00   yforce=   0.0000E+00  zforce=  -7.0754E-01   energy=   8.8443E-07   setid =    1074 xmoment=   0.0000E+00 ymoment=   0.0000E+00 zmoment=   0.0000E+00
 nd#    1111  xforce=   0.0000E+00   yforce=   0.0000E+00  zforce=  -9.0522E+00   energy=   1.1315E-05   setid =    1111 xmoment=   0.0000E+00 ymoment=   0.0000E+00 zmoment=   0.0000E+00
 nd#    1112  xforce=   0.0000E+00   yforce=   0.0000E+00  zforce=  -9.2721E+00   energy=   1.1590E-05   setid =    1112 xmoment=   0.0000E+00 ymoment=   0.0000E+00 zmoment=   0.0000E+00
 nd#    1113  xforce=   0.0000E+00   yforce=   0.0000E+00  zforce=  -9.3615E+00   energy=   1.1702E-05   setid =    1113 xmoment=   0.0000E+00 ymoment=   0.0000E+00 zmoment=   0.0000E+00
 nd#    1114  xforce=   0.0000E+00   yforce=   0.0000E+00  zforce=  -4.5341E+00   energy=   5.6676E-06   setid =    1114 xmoment=   0.0000E+00 ymoment=   0.0000E+00 zmoment=   0.0000E+00
 nd#    1135  xforce=   0.0000E+00   yforce=   0.0000E+00  zforce=  -1.0689E+01   energy=   1.3361E-05   setid =    1135 xmoment=   0.0000E+00 ymoment=   0.0000E+00 zmoment=   0.0000E+00
 nd#    1136  xforce=   0.0000E+00   yforce=   0.0000E+00  zforce=  -1.0925E+01   energy=   1.3656E-05   setid =    1136 xmoment=   0.0000E+00 ymoment=   0.0000E+00 zmoment=   0.0000E+00
 nd#    1137  xforce=   0.0000E+00   yforce=   0.0000E+00  zforce=  -1.1205E+01   energy=   1.4006E-05   setid =    1137 xmoment=   0.0000E+00 ymoment=   0.0000E+00 zmoment=   0.0000E+00
 nd#    1138  xforce=   0.0000E+00   yforce=   0.0000E+00  zforce=  -5.4824E+00   energy=   6.8530E-06   setid =    1138 xmoment=   0.0000E+00 ymoment=   0.0000E+00 zmoment=   0.0000E+00
              xtotal=   0.0000E+00   ytotal=   0.0000E+00  ztotal=  -3.0668E+02   etotal=   3.8335E-04

 n o d a l   f o r c e/e n e r g y    o u t p u t  t=   6.46223E+00

 velocity boundary condition forces/rigid body moments 

 nd#     105  xforce=   0.0000E+00   yforce=   0.0000E+00  zforce=  -2.6533E+01   energy=   8.6605E-05   setid =     105 xmoment=   0.0000E+00 ymoment=   0.0000E+00 zmoment=   0.0000E+00
 nd#     106  xforce=   0.0000E+00   yforce=   0.0000E+00  zforce=  -2.6223E+01   energy=   8.5326E-05   setid =     106 xmoment=   0.0000E+00 ymoment=   0.0000E+00 zmoment=   0.0000E+00
 nd#     107  xforce=   0.0000E+00   yforce=   0.0000E+00  zforce=  -3.0140E+01   energy=   9.7707E-05   setid =     107 xmoment=   0.0000E+00 ymoment=   0.0000E+00 zmoment=   0.0000E+00
 nd#     108  xforce=   0.0000E+00   yforce=   0.0000E+00  zforce=  -2.8847E+01   energy=   9.3991E-05   setid =     108 xmoment=   0.0000E+00 ymoment=   0.0000E+00 zmoment=   0.0000E+00
 nd#     137  xforce=   0.0000E+00   yforce=   0.0000E+00  zforce=  -3.2411E+01   energy=   1.0474E-04   setid =     137 xmoment=   0.0000E+00 ymoment=   0.0000E+00 zmoment=   0.0000E+00
 nd#     138  xforce=   0.0000E+00   yforce=   0.0000E+00  zforce=  -3.0502E+01   energy=   9.8678E-05   setid =     138 xmoment=   0.0000E+00 ymoment=   0.0000E+00 zmoment=   0.0000E+00
 nd#     139  xforce=   0.0000E+00   yforce=   0.0000E+00  zforce=  -1.6866E+01   energy=   5.3442E-05   setid =     139 xmoment=   0.0000E+00 ymoment=   0.0000E+00 zmoment=   0.0000E+00
 nd#     140  xforce=   0.0000E+00   yforce=   0.0000E+00  zforce=  -1.7010E+01   energy=   5.4516E-05   setid =     140 xmoment=   0.0000E+00 ymoment=   0.0000E+00 zmoment=   0.0000E+00
 nd#     162  xforce=   0.0000E+00   yforce=   0.0000E+00  zforce=  -1.4573E+01   energy=   4.6530E-05   setid =     162 xmoment=   0.0000E+00 ymoment=   0.0000E+00 zmoment=   0.0000E+00
 nd#     163  xforce=   0.0000E+00   yforce=   0.0000E+00  zforce=  -1.8187E+01   energy=   6.1764E-05   setid =     163 xmoment=   0.0000E+00 ymoment=   0.0000E+00 zmoment=   0.0000E+00
 nd#     164  xforce=   0.0000E+00   yforce=   0.0000E+00  zforce=  -1.7608E+01   energy=   5.5786E-05   setid =     164 xmoment=   0.0000E+00 ymoment=   0.0000E+00 zmoment=   0.0000E+00
 nd#     179  xforce=   0.0000E+00   yforce=   0.0000E+00  zforce=  -2.6760E+01   energy=   8.7530E-05   setid =     179 xmoment=   0.0000E+00 ymoment=   0.0000E+00 zmoment=   0.0000E+00
 nd#     180  xforce=   0.0000E+00   yforce=   0.0000E+00  zforce=  -1.9492E+01   energy=   6.1099E-05   setid =     180 xmoment=   0.0000E+00 ymoment=   0.0000E+00 zmoment=   0.0000E+00
 nd#     188  xforce=   0.0000E+00   yforce=   0.0000E+00  zforce=  -1.4122E+01   energy=   4.6365E-05   setid =     188 xmoment=   0.0000E+00 ymoment=   0.0000E+00 zmoment=   0.0000E+00
 nd#     210  xforce=   0.0000E+00   yforce=   0.0000E+00  zforce=  -1.8431E+01   energy=   5.7373E-05   setid =     210 xmoment=   0.0000E+00 ymoment=   0.0000E+00 zmoment=   0.0000E+00
 nd#     211  xforce=   0.0000E+00   yforce=   0.0000E+00  zforce=  -2.9091E+01   energy=   9.3779E-05   setid =     211 xmoment=   0.0000E+00 ymoment=   0.0000E+00 zmoment=   0.0000E+00
 nd#     212  xforce=   0.0000E+00   yforce=   0.0000E+00  zforce=  -1.5034E+01   energy=   4.7592E-05   setid =     212 xmoment=   0.0000E+00 ymoment=   0.0000E+00 zmoment=   0.0000E+00
 nd#     220  xforce=   0.0000E+00   yforce=   0.0000E+00  zforce=  -1.1116E+01   energy=   3.4183E-05   setid =     220 xmoment=   0.0000E+00 ymoment=   0.0000E+00 zmoment=   0.0000E+00
 nd#     228  xforce=   0.0000E+00   yforce=   0.0000E+00  zforce=  -1.7957E+01   energy=   5.7277E-05   setid =     228 xmoment=   0.0000E+00 ymoment=   0.0000E+00 zmoment=   0.0000E+00
 nd#     787  xforce=   0.0000E+00   yforce=   0.0000E+00  zforce=  -1.5912E+01   energy=   5.0890E-05   setid =     787 xmoment=   0.0000E+00 ymoment=   0.0000E+00 zmoment=   0.0000E+00
 nd#     788  xforce=   0.0000E+00   yforce=   0.0000E+00  zforce=  -1.3369E+01   energy=   4.2831E-05   setid =     788 xmoment=   0.0000E+00 ymoment=   0.0000E+00 zmoment=   0.0000E+00
 nd#     789  xforce=   0.0000E+00   yforce=   0.0000E+00  zforce=  -1.0373E+01   energy=   3.3270E-05   setid =     789 xmoment=   0.0000E+00 ymoment=   0.0000E+00 zmoment=   0.0000E+00
 nd#     790  xforce=   0.0000E+00   yforce=   0.0000E+00  zforce=  -7.4026E+00   energy=   2.3731E-05   setid =     790 xmoment=   0.0000E+00 ymoment=   0.0000E+00 zmoment=   0.0000E+00
 nd#     791  xforce=   0.0000E+00   yforce=   0.0000E+00  zforce=  -4.7481E+00   energy=   1.5183E-05   setid =     791 xmoment=   0.0000E+00 ymoment=   0.0000E+00 zmoment=   0.0000E+00
 nd#     792  xforce=   0.0000E+00   yforce=   0.0000E+00  zforce=  -2.4209E+00   energy=   7.7160E-06   setid =     792 xmoment=   0.0000E+00 ymoment=   0.0000E+00 zmoment=   0.0000E+00
 nd#     793  xforce=   0.0000E+00   yforce=   0.0000E+00  zforce=   1.3552E-02   energy=   2.0437E-08   setid =     793 xmoment=   0.0000E+00 ymoment=   0.0000E+00 zmoment=   0.0000E+00
 nd#     794  xforce=   0.0000E+00   yforce=   0.0000E+00  zforce=   5.6760E-01   energy=  -1.8553E-06   setid =     794 xmoment=   0.0000E+00 ymoment=   0.0000E+00 zmoment=   0.0000E+00
 nd#     955  xforce=   0.0000E+00   yforce=   0.0000E+00  zforce=  -1.2101E+01   energy=   3.9830E-05   setid =     955 xmoment=   0.0000E+00 ymoment=   0.0000E+00 zmoment=   0.0000E+00
 nd#     956  xforce=   0.0000E+00   yforce=   0.0000E+00  zforce=  -7.3611E+00   energy=   2.4370E-05   setid =     956 xmoment=   0.0000E+00 ymoment=   0.0000E+00 zmoment=   0.0000E+00
 nd#     957  xforce=   0.0000E+00   yforce=   0.0000E+00  zforce=  -1.3026E+01   energy=   4.2578E-05   setid =     957 xmoment=   0.0000E+00 ymoment=   0.0000E+00 zmoment=   0.0000E+00
 nd#     958  xforce=   0.0000E+00   yforce=   0.0000E+00  zforce=  -8.5810E+00   energy=   2.7971E-05   setid =     958 xmoment=   0.0000E+00 ymoment=   0.0000E+00 zmoment=   0.0000E+00
 nd#     959  xforce=   0.0000E+00   yforce=   0.0000E+00  zforce=  -1.3009E+01   energy=   4.2342E-05   setid =     959 xmoment=   0.0000E+00 ymoment=   0.0000E+00 zmoment=   0.0000E+00
 nd#     960  xforce=   0.0000E+00   yforce=   0.0000E+00  zforce=  -8.5744E+00   energy=   2.7716E-05   setid =     960 xmoment=   0.0000E+00 ymoment=   0.0000E+00 zmoment=   0.0000E+00
 nd#     961  xforce=   0.0000E+00   yforce=   0.0000E+00  zforce=  -5.9675E+00   energy=   1.9535E-05   setid =     961 xmoment=   0.0000E+00 ymoment=   0.0000E+00 zmoment=   0.0000E+00
 nd#     962  xforce=   0.0000E+00   yforce=   0.0000E+00  zforce=  -3.7169E+00   energy=   1.2134E-05   setid =     962 xmoment=   0.0000E+00 ymoment=   0.0000E+00 zmoment=   0.0000E+00
 nd#     975  xforce=   0.0000E+00   yforce=   0.0000E+00  zforce=   1.3355E+00   energy=  -3.6226E-06   setid =     975 xmoment=   0.0000E+00 ymoment=   0.0000E+00 zmoment=   0.0000E+00
 nd#     977  xforce=   0.0000E+00   yforce=   0.0000E+00  zforce=   3.3098E+00   energy=  -9.7017E-06   setid =     977 xmoment=   0.0000E+00 ymoment=   0.0000E+00 zmoment=   0.0000E+00
 nd#     978  xforce=   0.0000E+00   yforce=   0.0000E+00  zforce=  -4.1618E-01   energy=   1.6045E-06   setid =     978 xmoment=   0.0000E+00 ymoment=   0.0000E+00 zmoment=   0.0000E+00
 nd#     980  xforce=   0.0000E+00   yforce=   0.0000E+00  zforce=   1.9630E+00   energy=  -5.8255E-06   setid =     980 xmoment=   0.0000E+00 ymoment=   0.0000E+00 zmoment=   0.0000E+00
 nd#     981  xforce=   0.0000E+00   yforce=   0.0000E+00  zforce=  -1.0379E+00   energy=   3.1666E-06   setid =     981 xmoment=   0.0000E+00 ymoment=   0.0000E+00 zmoment=   0.0000E+00
 nd#     983  xforce=   0.0000E+00   yforce=   0.0000E+00  zforce=   4.6217E-01   energy=  -1.4726E-06   setid =     983 xmoment=   0.0000E+00 ymoment=   0.0000E+00 zmoment=   0.0000E+00
 nd#     984  xforce=   0.0000E+00   yforce=   0.0000E+00  zforce=  -1.1479E-01   energy=   2.9527E-07   setid =     984 xmoment=   0.0000E+00 ymoment=   0.0000E+00 zmoment=   0.0000E+00
 nd#     986  xforce=   0.0000E+00   yforce=   0.0000E+00  zforce=   1.3973E-01   energy=  -4.8897E-07   setid =     986 xmoment=   0.0000E+00 ymoment=   0.0000E+00 zmoment=   0.0000E+00
 nd#    1059  xforce=   0.0000E+00   yforce=   0.0000E+00  zforce=  -1.7420E+01   energy=   5.7127E-05   setid =    1059 xmoment=   0.0000E+00 ymoment=   0.0000E+00 zmoment=   0.0000E+00
 nd#    1061  xforce=   0.0000E+00   yforce=   0.0000E+00  zforce=  -1.8145E+01   energy=   5.9305E-05   setid =    1061 xmoment=   0.0000E+00 ymoment=   0.0000E+00 zmoment=   0.0000E+00
 nd#    1063  xforce=   0.0000E+00   yforce=   0.0000E+00  zforce=  -1.8193E+01   energy=   5.9352E-05   setid =    1063 xmoment=   0.0000E+00 ymoment=   0.0000E+00 zmoment=   0.0000E+00
 nd#    1065  xforce=   0.0000E+00   yforce=   0.0000E+00  zforce=  -8.6250E+00   energy=   2.8199E-05   setid =    1065 xmoment=   0.0000E+00 ymoment=   0.0000E+00 zmoment=   0.0000E+00
 nd#    1071  xforce=   0.0000E+00   yforce=   0.0000E+00  zforce=  -3.2020E+00   energy=   1.0860E-05   setid =    1071 xmoment=   0.0000E+00 ymoment=   0.0000E+00 zmoment=   0.0000E+00
 nd#    1072  xforce=   0.0000E+00   yforce=   0.0000E+00  zforce=  -4.7498E+00   energy=   1.5421E-05   setid =    1072 xmoment=   0.0000E+00 ymoment=   0.0000E+00 zmoment=   0.0000E+00
 nd#    1073  xforce=   0.0000E+00   yforce=   0.0000E+00  zforce=  -4.7898E+00   energy=   1.5294E-05   setid =    1073 xmoment=   0.0000E+00 ymoment=   0.0000E+00 zmoment=   0.0000E+00
 nd#    1074  xforce=   0.0000E+00   yforce=   0.0000E+00  zforce=  -1.8254E+00   energy=   5.9024E-06   setid =    1074 xmoment=   0.0000E+00 ymoment=   0.0000E+00 zmoment=   0.0000E+00
 nd#    1111  xforce=   0.0000E+00   yforce=   0.0000E+00  zforce=  -2.2709E+01   energy=   7.4239E-05   setid =    1111 xmoment=   0.0000E+00 ymoment=   0.0000E+00 zmoment=   0.0000E+00
 nd#    1112  xforce=   0.0000E+00   yforce=   0.0000E+00  zforce=  -2.3386E+01   energy=   7.6289E-05   setid =    1112 xmoment=   0.0000E+00 ymoment=   0.0000E+00 zmoment=   0.0000E+00
 nd#    1113  xforce=   0.0000E+00   yforce=   0.0000E+00  zforce=  -2.3667E+01   energy=   7.7136E-05   setid =    1113 xmoment=   0.0000E+00 ymoment=   0.0000E+00 zmoment=   0.0000E+00
 nd#    1114  xforce=   0.0000E+00   yforce=   0.0000E+00  zforce=  -1.1495E+01   energy=   3.7422E-05   setid =    1114 xmoment=   0.0000E+00 ymoment=   0.0000E+00 zmoment=   0.0000E+00
 nd#    1135  xforce=   0.0000E+00   yforce=   0.0000E+00  zforce=  -2.6987E+01   energy=   8.8001E-05   setid =    1135 xmoment=   0.0000E+00 ymoment=   0.0000E+00 zmoment=   0.0000E+00
 nd#    1136  xforce=   0.0000E+00   yforce=   0.0000E+00  zforce=  -2.7762E+01   energy=   9.0300E-05   setid =    1136 xmoment=   0.0000E+00 ymoment=   0.0000E+00 zmoment=   0.0000E+00
 nd#    1137  xforce=   0.0000E+00   yforce=   0.0000E+00  zforce=  -2.8548E+01   energy=   9.2761E-05   setid =    1137 xmoment=   0.0000E+00 ymoment=   0.0000E+00 zmoment=   0.0000E+00
 nd#    1138  xforce=   0.0000E+00   yforce=   0.0000E+00  zforce=  -1.4128E+01   energy=   4.5703E-05   setid =    1138 xmoment=   0.0000E+00 ymoment=   0.0000E+00 zmoment=   0.0000E+00
              xtotal=   0.0000E+00   ytotal=   0.0000E+00  ztotal=  -7.8687E+02   etotal=   2.5498E-03

 n o d a l   f o r c e/e n e r g y    o u t p u t  t=   1.27419E+01

 velocity boundary condition forces/rigid body moments 

 nd#     105  xforce=   0.0000E+00   yforce=   0.0000E+00  zforce=  -5.1666E+01   energy=   3.3214E-04   setid =     105 xmoment=   0.0000E+00 ymoment=   0.0000E+00 zmoment=   0.0000E+00
 nd#     106  xforce=   0.0000E+00   yforce=   0.0000E+00  zforce=  -5.1355E+01   energy=   3.2891E-04   setid =     106 xmoment=   0.0000E+00 ymoment=   0.0000E+00 zmoment=   0.0000E+00
 nd#     107  xforce=   0.0000E+00   yforce=   0.0000E+00  zforce=  -5.9251E+01   energy=   3.7838E-04   setid =     107 xmoment=   0.0000E+00 ymoment=   0.0000E+00 zmoment=   0.0000E+00
 nd#     108  xforce=   0.0000E+00   yforce=   0.0000E+00  zforce=  -5.6188E+01   energy=   3.6099E-04   setid =     108 xmoment=   0.0000E+00 ymoment=   0.0000E+00 zmoment=   0.0000E+00
 nd#     137  xforce=   0.0000E+00   yforce=   0.0000E+00  zforce=  -6.3369E+01   energy=   4.0548E-04   setid =     137 xmoment=   0.0000E+00 ymoment=   0.0000E+00 zmoment=   0.0000E+00
 nd#     138  xforce=   0.0000E+00   yforce=   0.0000E+00  zforce=  -5.9401E+01   energy=   3.8096E-04   setid =     138 xmoment=   0.0000E+00 ymoment=   0.0000E+00 zmoment=   0.0000E+00
 nd#     139  xforce=   0.0000E+00   yforce=   0.0000E+00  zforce=  -3.4950E+01   energy=   2.1614E-04   setid =     139 xmoment=   0.0000E+00 ymoment=   0.0000E+00 zmoment=   0.0000E+00
 nd#     140  xforce=   0.0000E+00   yforce=   0.0000E+00  zforce=  -3.4306E+01   energy=   2.1564E-04   setid =     140 xmoment=   0.0000E+00 ymoment=   0.0000E+00 zmoment=   0.0000E+00
 nd#     162  xforce=   0.0000E+00   yforce=   0.0000E+00  zforce=  -2.9646E+01   energy=   1.8537E-04   setid =     162 xmoment=   0.0000E+00 ymoment=   0.0000E+00 zmoment=   0.0000E+00
 nd#     163  xforce=   0.0000E+00   yforce=   0.0000E+00  zforce=  -3.3322E+01   energy=   2.2349E-04   setid =     163 xmoment=   0.0000E+00 ymoment=   0.0000E+00 zmoment=   0.0000E+00
 nd#     164  xforce=   0.0000E+00   yforce=   0.0000E+00  zforce=  -3.5929E+01   energy=   2.2389E-04   setid =     164 xmoment=   0.0000E+00 ymoment=   0.0000E+00 zmoment=   0.0000E+00
 nd#     179  xforce=   0.0000E+00   yforce=   0.0000E+00  zforce=  -5.1068E+01   energy=   3.3190E-04   setid =     179 xmoment=   0.0000E+00 ymoment=   0.0000E+00 zmoment=   0.0000E+00
 nd#     180  xforce=   0.0000E+00   yforce=   0.0000E+00  zforce=  -3.9951E+01   energy=   2.4774E-04   setid =     180 xmoment=   0.0000E+00 ymoment=   0.0000E+00 zmoment=   0.0000E+00
 nd#     188  xforce=   0.0000E+00   yforce=   0.0000E+00  zforce=  -2.7135E+01   energy=   1.7590E-04   setid =     188 xmoment=   0.0000E+00 ymoment=   0.0000E+00 zmoment=   0.0000E+00
 nd#     210  xforce=   0.0000E+00   yforce=   0.0000E+00  zforce=  -3.9034E+01   energy=   2.3780E-04   setid =     210 xmoment=   0.0000E+00 ymoment=   0.0000E+00 zmoment=   0.0000E+00
 nd#     211  xforce=   0.0000E+00   yforce=   0.0000E+00  zforce=  -5.6054E+01   energy=   3.6112E-04   setid =     211 xmoment=   0.0000E+00 ymoment=   0.0000E+00 zmoment=   0.0000E+00
 nd#     212  xforce=   0.0000E+00   yforce=   0.0000E+00  zforce=  -3.1821E+01   energy=   1.9471E-04   setid =     212 xmoment=   0.0000E+00 ymoment=   0.0000E+00 zmoment=   0.0000E+00
 nd#     220  xforce=   0.0000E+00   yforce=   0.0000E+00  zforce=  -2.4184E+01   energy=   1.4502E-04   setid =     220 xmoment=   0.0000E+00 ymoment=   0.0000E+00 zmoment=   0.0000E+00
 nd#     228  xforce=   0.0000E+00   yforce=   0.0000E+00  zforce=  -3.6140E+01   energy=   2.2713E-04   setid =     228 xmoment=   0.0000E+00 ymoment=   0.0000E+00 zmoment=   0.0000E+00
 nd#     787  xforce=   0.0000E+00   yforce=   0.0000E+00  zforce=  -3.1883E+01   energy=   2.0096E-04   setid =     787 xmoment=   0.0000E+00 ymoment=   0.0000E+00 zmoment=   0.0000E+00
 nd#     788  xforce=   0.0000E+00   yforce=   0.0000E+00  zforce=  -2.6708E+01   energy=   1.6867E-04   setid =     788 xmoment=   0.0000E+00 ymoment=   0.0000E+00 zmoment=   0.0000E+00
 nd#     789  xforce=   0.0000E+00   yforce=   0.0000E+00  zforce=  -2.0690E+01   energy=   1.3081E-04   setid =     789 xmoment=   0.0000E+00 ymoment=   0.0000E+00 zmoment=   0.0000E+00
 nd#     790  xforce=   0.0000E+00   yforce=   0.0000E+00  zforce=  -1.4800E+01   energy=   9.3446E-05   setid =     790 xmoment=   0.0000E+00 ymoment=   0.0000E+00 zmoment=   0.0000E+00
 nd#     791  xforce=   0.0000E+00   yforce=   0.0000E+00  zforce=  -9.5767E+00   energy=   6.0160E-05   setid =     791 xmoment=   0.0000E+00 ymoment=   0.0000E+00 zmoment=   0.0000E+00
 nd#     792  xforce=   0.0000E+00   yforce=   0.0000E+00  zforce=  -4.9727E+00   energy=   3.0931E-05   setid =     792 xmoment=   0.0000E+00 ymoment=   0.0000E+00 zmoment=   0.0000E+00
 nd#     793  xforce=   0.0000E+00   yforce=   0.0000E+00  zforce=  -2.6084E-02   energy=   5.9784E-08   setid =     793 xmoment=   0.0000E+00 ymoment=   0.0000E+00 zmoment=   0.0000E+00
 nd#     794  xforce=   0.0000E+00   yforce=   0.0000E+00  zforce=   9.9201E-01   energy=  -6.7523E-06   setid =     794 xmoment=   0.0000E+00 ymoment=   0.0000E+00 zmoment=   0.0000E+00
 nd#     955  xforce=   0.0000E+00   yforce=   0.0000E+00  zforce=  -2.3168E+01   energy=   1.5057E-04   setid =     955 xmoment=   0.0000E+00 ymoment=   0.0000E+00 zmoment=   0.0000E+00
 nd#     956  xforce=   0.0000E+00   yforce=   0.0000E+00  zforce=  -1.4010E+01   energy=   9.1471E-05   setid =     956 xmoment=   0.0000E+00 ymoment=   0.0000E+00 zmoment=   0.0000E+00
 nd#     957  xforce=   0.0000E+00   yforce=   0.0000E+00  zforce=  -2.5241E+01   energy=   1.6273E-04   setid =     957 xmoment=   0.0000E+00 ymoment=   0.0000E+00 zmoment=   0.0000E+00
 nd#     958  xforce=   0.0000E+00   yforce=   0.0000E+00  zforce=  -1.6727E+01   energy=   1.0743E-04   setid =     958 xmoment=   0.0000E+00 ymoment=   0.0000E+00 zmoment=   0.0000E+00
 nd#     959  xforce=   0.0000E+00   yforce=   0.0000E+00  zforce=  -2.5295E+01   energy=   1.6261E-04   setid =     959 xmoment=   0.0000E+00 ymoment=   0.0000E+00 zmoment=   0.0000E+00
 nd#     960  xforce=   0.0000E+00   yforce=   0.0000E+00  zforce=  -1.6910E+01   energy=   1.0773E-04   setid =     960 xmoment=   0.0000E+00 ymoment=   0.0000E+00 zmoment=   0.0000E+00
 nd#     961  xforce=   0.0000E+00   yforce=   0.0000E+00  zforce=  -1.1737E+01   energy=   7.5124E-05   setid =     961 xmoment=   0.0000E+00 ymoment=   0.0000E+00 zmoment=   0.0000E+00
 nd#     962  xforce=   0.0000E+00   yforce=   0.0000E+00  zforce=  -7.4341E+00   energy=   4.7146E-05   setid =     962 xmoment=   0.0000E+00 ymoment=   0.0000E+00 zmoment=   0.0000E+00
 nd#     975  xforce=   0.0000E+00   yforce=   0.0000E+00  zforce=   3.0884E+00   energy=  -1.7513E-05   setid =     975 xmoment=   0.0000E+00 ymoment=   0.0000E+00 zmoment=   0.0000E+00
 nd#     977  xforce=   0.0000E+00   yforce=   0.0000E+00  zforce=   7.4350E+00   energy=  -4.3439E-05   setid =     977 xmoment=   0.0000E+00 ymoment=   0.0000E+00 zmoment=   0.0000E+00
 nd#     978  xforce=   0.0000E+00   yforce=   0.0000E+00  zforce=  -6.4732E-01   energy=   4.9438E-06   setid =     978 xmoment=   0.0000E+00 ymoment=   0.0000E+00 zmoment=   0.0000E+00
 nd#     980  xforce=   0.0000E+00   yforce=   0.0000E+00  zforce=   4.2981E+00   energy=  -2.5484E-05   setid =     980 xmoment=   0.0000E+00 ymoment=   0.0000E+00 zmoment=   0.0000E+00
 nd#     981  xforce=   0.0000E+00   yforce=   0.0000E+00  zforce=  -2.2731E+00   energy=   1.3563E-05   setid =     981 xmoment=   0.0000E+00 ymoment=   0.0000E+00 zmoment=   0.0000E+00
 nd#     983  xforce=   0.0000E+00   yforce=   0.0000E+00  zforce=   1.0152E+00   energy=  -6.1111E-06   setid =     983 xmoment=   0.0000E+00 ymoment=   0.0000E+00 zmoment=   0.0000E+00
 nd#     984  xforce=   0.0000E+00   yforce=   0.0000E+00  zforce=  -4.9199E-01   energy=   2.2005E-06   setid =     984 xmoment=   0.0000E+00 ymoment=   0.0000E+00 zmoment=   0.0000E+00
 nd#     986  xforce=   0.0000E+00   yforce=   0.0000E+00  zforce=   2.1613E-01   energy=  -1.6063E-06   setid =     986 xmoment=   0.0000E+00 ymoment=   0.0000E+00 zmoment=   0.0000E+00
 nd#    1059  xforce=   0.0000E+00   yforce=   0.0000E+00  zforce=  -3.3519E+01   energy=   2.1707E-04   setid =    1059 xmoment=   0.0000E+00 ymoment=   0.0000E+00 zmoment=   0.0000E+00
 nd#    1061  xforce=   0.0000E+00   yforce=   0.0000E+00  zforce=  -3.5145E+01   energy=   2.2663E-04   setid =    1061 xmoment=   0.0000E+00 ymoment=   0.0000E+00 zmoment=   0.0000E+00
 nd#    1063  xforce=   0.0000E+00   yforce=   0.0000E+00  zforce=  -3.5166E+01   energy=   2.2689E-04   setid =    1063 xmoment=   0.0000E+00 ymoment=   0.0000E+00 zmoment=   0.0000E+00
 nd#    1065  xforce=   0.0000E+00   yforce=   0.0000E+00  zforce=  -1.6893E+01   energy=   1.0832E-04   setid =    1065 xmoment=   0.0000E+00 ymoment=   0.0000E+00 zmoment=   0.0000E+00
 nd#    1071  xforce=   0.0000E+00   yforce=   0.0000E+00  zforce=  -5.9381E+00   energy=   3.9559E-05   setid =    1071 xmoment=   0.0000E+00 ymoment=   0.0000E+00 zmoment=   0.0000E+00
 nd#    1072  xforce=   0.0000E+00   yforce=   0.0000E+00  zforce=  -9.3568E+00   energy=   5.9714E-05   setid =    1072 xmoment=   0.0000E+00 ymoment=   0.0000E+00 zmoment=   0.0000E+00
 nd#    1073  xforce=   0.0000E+00   yforce=   0.0000E+00  zforce=  -9.6674E+00   energy=   6.0688E-05   setid =    1073 xmoment=   0.0000E+00 ymoment=   0.0000E+00 zmoment=   0.0000E+00
 nd#    1074  xforce=   0.0000E+00   yforce=   0.0000E+00  zforce=  -3.8223E+00   energy=   2.3635E-05   setid =    1074 xmoment=   0.0000E+00 ymoment=   0.0000E+00 zmoment=   0.0000E+00
 nd#    1111  xforce=   0.0000E+00   yforce=   0.0000E+00  zforce=  -4.3934E+01   energy=   2.8349E-04   setid =    1111 xmoment=   0.0000E+00 ymoment=   0.0000E+00 zmoment=   0.0000E+00
 nd#    1112  xforce=   0.0000E+00   yforce=   0.0000E+00  zforce=  -4.5451E+01   energy=   2.9243E-04   setid =    1112 xmoment=   0.0000E+00 ymoment=   0.0000E+00 zmoment=   0.0000E+00
 nd#    1113  xforce=   0.0000E+00   yforce=   0.0000E+00  zforce=  -4.5738E+01   energy=   2.9506E-04   setid =    1113 xmoment=   0.0000E+00 ymoment=   0.0000E+00 zmoment=   0.0000E+00
 nd#    1114  xforce=   0.0000E+00   yforce=   0.0000E+00  zforce=  -2.2598E+01   energy=   1.4447E-04   setid =    1114 xmoment=   0.0000E+00 ymoment=   0.0000E+00 zmoment=   0.0000E+00
 nd#    1135  xforce=   0.0000E+00   yforce=   0.0000E+00  zforce=  -5.2461E+01   energy=   3.3746E-04   setid =    1135 xmoment=   0.0000E+00 ymoment=   0.0000E+00 zmoment=   0.0000E+00
 nd#    1136  xforce=   0.0000E+00   yforce=   0.0000E+00  zforce=  -5.4255E+01   energy=   3.4782E-04   setid =    1136 xmoment=   0.0000E+00 ymoment=   0.0000E+00 zmoment=   0.0000E+00
 nd#    1137  xforce=   0.0000E+00   yforce=   0.0000E+00  zforce=  -5.5369E+01   energy=   3.5625E-04   setid =    1137 xmoment=   0.0000E+00 ymoment=   0.0000E+00 zmoment=   0.0000E+00
 nd#    1138  xforce=   0.0000E+00   yforce=   0.0000E+00  zforce=  -2.8040E+01   energy=   1.7810E-04   setid =    1138 xmoment=   0.0000E+00 ymoment=   0.0000E+00 zmoment=   0.0000E+00
              xtotal=   0.0000E+00   ytotal=   0.0000E+00  ztotal=  -1.5477E+03   etotal=   9.8799E-03

 n o d a l   f o r c e/e n e r g y    o u t p u t  t=   2.26946E+01

 velocity boundary condition forces/rigid body moments 

 nd#     105  xforce=   0.0000E+00   yforce=   0.0000E+00  zforce=  -8.7795E+01   energy=   1.0261E-03   setid =     105 xmoment=   0.0000E+00 ymoment=   0.0000E+00 zmoment=   0.0000E+00
 nd#     106  xforce=   0.0000E+00   yforce=   0.0000E+00  zforce=  -8.8180E+01   energy=   1.0233E-03   setid =     106 xmoment=   0.0000E+00 ymoment=   0.0000E+00 zmoment=   0.0000E+00
 nd#     107  xforce=   0.0000E+00   yforce=   0.0000E+00  zforce=  -1.0161E+02   energy=   1.1789E-03   setid =     107 xmoment=   0.0000E+00 ymoment=   0.0000E+00 zmoment=   0.0000E+00
 nd#     108  xforce=   0.0000E+00   yforce=   0.0000E+00  zforce=  -9.5278E+01   energy=   1.1147E-03   setid =     108 xmoment=   0.0000E+00 ymoment=   0.0000E+00 zmoment=   0.0000E+00
 nd#     137  xforce=   0.0000E+00   yforce=   0.0000E+00  zforce=  -1.0761E+02   energy=   1.2563E-03   setid =     137 xmoment=   0.0000E+00 ymoment=   0.0000E+00 zmoment=   0.0000E+00
 nd#     138  xforce=   0.0000E+00   yforce=   0.0000E+00  zforce=  -1.0070E+02   energy=   1.1777E-03   setid =     138 xmoment=   0.0000E+00 ymoment=   0.0000E+00 zmoment=   0.0000E+00
 nd#     139  xforce=   0.0000E+00   yforce=   0.0000E+00  zforce=  -6.3055E+01   energy=   7.0385E-04   setid =     139 xmoment=   0.0000E+00 ymoment=   0.0000E+00 zmoment=   0.0000E+00
 nd#     140  xforce=   0.0000E+00   yforce=   0.0000E+00  zforce=  -6.0234E+01   energy=   6.8610E-04   setid =     140 xmoment=   0.0000E+00 ymoment=   0.0000E+00 zmoment=   0.0000E+00
 nd#     162  xforce=   0.0000E+00   yforce=   0.0000E+00  zforce=  -5.2622E+01   energy=   5.9476E-04   setid =     162 xmoment=   0.0000E+00 ymoment=   0.0000E+00 zmoment=   0.0000E+00
 nd#     163  xforce=   0.0000E+00   yforce=   0.0000E+00  zforce=  -5.3960E+01   energy=   6.5784E-04   setid =     163 xmoment=   0.0000E+00 ymoment=   0.0000E+00 zmoment=   0.0000E+00
 nd#     164  xforce=   0.0000E+00   yforce=   0.0000E+00  zforce=  -6.3619E+01   energy=   7.1927E-04   setid =     164 xmoment=   0.0000E+00 ymoment=   0.0000E+00 zmoment=   0.0000E+00
 nd#     179  xforce=   0.0000E+00   yforce=   0.0000E+00  zforce=  -8.4873E+01   energy=   1.0084E-03   setid =     179 xmoment=   0.0000E+00 ymoment=   0.0000E+00 zmoment=   0.0000E+00
 nd#     180  xforce=   0.0000E+00   yforce=   0.0000E+00  zforce=  -7.0749E+01   energy=   7.9862E-04   setid =     180 xmoment=   0.0000E+00 ymoment=   0.0000E+00 zmoment=   0.0000E+00
 nd#     188  xforce=   0.0000E+00   yforce=   0.0000E+00  zforce=  -4.5844E+01   energy=   5.3907E-04   setid =     188 xmoment=   0.0000E+00 ymoment=   0.0000E+00 zmoment=   0.0000E+00
 nd#     210  xforce=   0.0000E+00   yforce=   0.0000E+00  zforce=  -7.1474E+01   energy=   7.8773E-04   setid =     210 xmoment=   0.0000E+00 ymoment=   0.0000E+00 zmoment=   0.0000E+00
 nd#     211  xforce=   0.0000E+00   yforce=   0.0000E+00  zforce=  -9.3509E+01   energy=   1.1054E-03   setid =     211 xmoment=   0.0000E+00 ymoment=   0.0000E+00 zmoment=   0.0000E+00
 nd#     212  xforce=   0.0000E+00   yforce=   0.0000E+00  zforce=  -5.8756E+01   energy=   6.4545E-04   setid =     212 xmoment=   0.0000E+00 ymoment=   0.0000E+00 zmoment=   0.0000E+00
 nd#     220  xforce=   0.0000E+00   yforce=   0.0000E+00  zforce=  -4.5349E+01   energy=   4.9104E-04   setid =     220 xmoment=   0.0000E+00 ymoment=   0.0000E+00 zmoment=   0.0000E+00
 nd#     228  xforce=   0.0000E+00   yforce=   0.0000E+00  zforce=  -6.3177E+01   energy=   7.2137E-04   setid =     228 xmoment=   0.0000E+00 ymoment=   0.0000E+00 zmoment=   0.0000E+00
 nd#     787  xforce=   0.0000E+00   yforce=   0.0000E+00  zforce=  -5.5419E+01   energy=   6.3541E-04   setid =     787 xmoment=   0.0000E+00 ymoment=   0.0000E+00 zmoment=   0.0000E+00
 nd#     788  xforce=   0.0000E+00   yforce=   0.0000E+00  zforce=  -4.6204E+01   energy=   5.3150E-04   setid =     788 xmoment=   0.0000E+00 ymoment=   0.0000E+00 zmoment=   0.0000E+00
 nd#     789  xforce=   0.0000E+00   yforce=   0.0000E+00  zforce=  -3.5635E+01   energy=   4.1110E-04   setid =     789 xmoment=   0.0000E+00 ymoment=   0.0000E+00 zmoment=   0.0000E+00
 nd#     790  xforce=   0.0000E+00   yforce=   0.0000E+00  zforce=  -2.5411E+01   energy=   2.9355E-04   setid =     790 xmoment=   0.0000E+00 ymoment=   0.0000E+00 zmoment=   0.0000E+00
 nd#     791  xforce=   0.0000E+00   yforce=   0.0000E+00  zforce=  -1.6382E+01   energy=   1.8934E-04   setid =     791 xmoment=   0.0000E+00 ymoment=   0.0000E+00 zmoment=   0.0000E+00
 nd#     792  xforce=   0.0000E+00   yforce=   0.0000E+00  zforce=  -8.3504E+00   energy=   9.7232E-05   setid =     792 xmoment=   0.0000E+00 ymoment=   0.0000E+00 zmoment=   0.0000E+00
 nd#     793  xforce=   0.0000E+00   yforce=   0.0000E+00  zforce=   5.1560E-01   energy=  -2.3762E-06   setid =     793 xmoment=   0.0000E+00 ymoment=   0.0000E+00 zmoment=   0.0000E+00
 nd#     794  xforce=   0.0000E+00   yforce=   0.0000E+00  zforce=   1.8874E+00   energy=  -2.1081E-05   setid =     794 xmoment=   0.0000E+00 ymoment=   0.0000E+00 zmoment=   0.0000E+00
 nd#     955  xforce=   0.0000E+00   yforce=   0.0000E+00  zforce=  -3.8046E+01   energy=   4.5519E-04   setid =     955 xmoment=   0.0000E+00 ymoment=   0.0000E+00 zmoment=   0.0000E+00
 nd#     956  xforce=   0.0000E+00   yforce=   0.0000E+00  zforce=  -2.2450E+01   energy=   2.7291E-04   setid =     956 xmoment=   0.0000E+00 ymoment=   0.0000E+00 zmoment=   0.0000E+00
 nd#     957  xforce=   0.0000E+00   yforce=   0.0000E+00  zforce=  -4.2108E+01   energy=   4.9789E-04   setid =     957 xmoment=   0.0000E+00 ymoment=   0.0000E+00 zmoment=   0.0000E+00
 nd#     958  xforce=   0.0000E+00   yforce=   0.0000E+00  zforce=  -2.7687E+01   energy=   3.2846E-04   setid =     958 xmoment=   0.0000E+00 ymoment=   0.0000E+00 zmoment=   0.0000E+00
 nd#     959  xforce=   0.0000E+00   yforce=   0.0000E+00  zforce=  -4.2156E+01   energy=   4.9827E-04   setid =     959 xmoment=   0.0000E+00 ymoment=   0.0000E+00 zmoment=   0.0000E+00
 nd#     960  xforce=   0.0000E+00   yforce=   0.0000E+00  zforce=  -2.8154E+01   energy=   3.3199E-04   setid =     960 xmoment=   0.0000E+00 ymoment=   0.0000E+00 zmoment=   0.0000E+00
 nd#     961  xforce=   0.0000E+00   yforce=   0.0000E+00  zforce=  -1.9904E+01   energy=   2.3258E-04   setid =     961 xmoment=   0.0000E+00 ymoment=   0.0000E+00 zmoment=   0.0000E+00
 nd#     962  xforce=   0.0000E+00   yforce=   0.0000E+00  zforce=  -1.2626E+01   energy=   1.4697E-04   setid =     962 xmoment=   0.0000E+00 ymoment=   0.0000E+00 zmoment=   0.0000E+00
 nd#     975  xforce=   0.0000E+00   yforce=   0.0000E+00  zforce=   7.2834E+00   energy=  -6.9127E-05   setid =     975 xmoment=   0.0000E+00 ymoment=   0.0000E+00 zmoment=   0.0000E+00
 nd#     977  xforce=   0.0000E+00   yforce=   0.0000E+00  zforce=   1.4944E+01   energy=  -1.5481E-04   setid =     977 xmoment=   0.0000E+00 ymoment=   0.0000E+00 zmoment=   0.0000E+00
 nd#     978  xforce=   0.0000E+00   yforce=   0.0000E+00  zforce=   4.0508E-01   energy=   6.1493E-06   setid =     978 xmoment=   0.0000E+00 ymoment=   0.0000E+00 zmoment=   0.0000E+00
 nd#     980  xforce=   0.0000E+00   yforce=   0.0000E+00  zforce=   8.7790E+00   energy=  -9.0561E-05   setid =     980 xmoment=   0.0000E+00 ymoment=   0.0000E+00 zmoment=   0.0000E+00
 nd#     981  xforce=   0.0000E+00   yforce=   0.0000E+00  zforce=  -2.8992E+00   energy=   3.9302E-05   setid =     981 xmoment=   0.0000E+00 ymoment=   0.0000E+00 zmoment=   0.0000E+00
 nd#     983  xforce=   0.0000E+00   yforce=   0.0000E+00  zforce=   2.7053E+00   energy=  -2.4625E-05   setid =     983 xmoment=   0.0000E+00 ymoment=   0.0000E+00 zmoment=   0.0000E+00
 nd#     984  xforce=   0.0000E+00   yforce=   0.0000E+00  zforce=  -6.6765E-01   energy=   7.9712E-06   setid =     984 xmoment=   0.0000E+00 ymoment=   0.0000E+00 zmoment=   0.0000E+00
 nd#     986  xforce=   0.0000E+00   yforce=   0.0000E+00  zforce=   6.2507E-01   energy=  -5.7924E-06   setid =     986 xmoment=   0.0000E+00 ymoment=   0.0000E+00 zmoment=   0.0000E+00
 nd#    1059  xforce=   0.0000E+00   yforce=   0.0000E+00  zforce=  -5.5749E+01   energy=   6.6130E-04   setid =    1059 xmoment=   0.0000E+00 ymoment=   0.0000E+00 zmoment=   0.0000E+00
 nd#    1061  xforce=   0.0000E+00   yforce=   0.0000E+00  zforce=  -5.8992E+01   energy=   6.9508E-04   setid =    1061 xmoment=   0.0000E+00 ymoment=   0.0000E+00 zmoment=   0.0000E+00
 nd#    1063  xforce=   0.0000E+00   yforce=   0.0000E+00  zforce=  -5.8690E+01   energy=   6.9395E-04   setid =    1063 xmoment=   0.0000E+00 ymoment=   0.0000E+00 zmoment=   0.0000E+00
 nd#    1065  xforce=   0.0000E+00   yforce=   0.0000E+00  zforce=  -2.8715E+01   energy=   3.3528E-04   setid =    1065 xmoment=   0.0000E+00 ymoment=   0.0000E+00 zmoment=   0.0000E+00
 nd#    1071  xforce=   0.0000E+00   yforce=   0.0000E+00  zforce=  -8.5916E+00   energy=   1.1186E-04   setid =    1071 xmoment=   0.0000E+00 ymoment=   0.0000E+00 zmoment=   0.0000E+00
 nd#    1072  xforce=   0.0000E+00   yforce=   0.0000E+00  zforce=  -1.5089E+01   energy=   1.8137E-04   setid =    1072 xmoment=   0.0000E+00 ymoment=   0.0000E+00 zmoment=   0.0000E+00
 nd#    1073  xforce=   0.0000E+00   yforce=   0.0000E+00  zforce=  -1.5855E+01   energy=   1.8769E-04   setid =    1073 xmoment=   0.0000E+00 ymoment=   0.0000E+00 zmoment=   0.0000E+00
 nd#    1074  xforce=   0.0000E+00   yforce=   0.0000E+00  zforce=  -6.4812E+00   energy=   7.4909E-05   setid =    1074 xmoment=   0.0000E+00 ymoment=   0.0000E+00 zmoment=   0.0000E+00
 nd#    1111  xforce=   0.0000E+00   yforce=   0.0000E+00  zforce=  -7.3744E+01   energy=   8.6910E-04   setid =    1111 xmoment=   0.0000E+00 ymoment=   0.0000E+00 zmoment=   0.0000E+00
 nd#    1112  xforce=   0.0000E+00   yforce=   0.0000E+00  zforce=  -7.6813E+01   energy=   9.0085E-04   setid =    1112 xmoment=   0.0000E+00 ymoment=   0.0000E+00 zmoment=   0.0000E+00
 nd#    1113  xforce=   0.0000E+00   yforce=   0.0000E+00  zforce=  -7.6612E+01   energy=   9.0391E-04   setid =    1113 xmoment=   0.0000E+00 ymoment=   0.0000E+00 zmoment=   0.0000E+00
 nd#    1114  xforce=   0.0000E+00   yforce=   0.0000E+00  zforce=  -3.8669E+01   energy=   4.4935E-04   setid =    1114 xmoment=   0.0000E+00 ymoment=   0.0000E+00 zmoment=   0.0000E+00
 nd#    1135  xforce=   0.0000E+00   yforce=   0.0000E+00  zforce=  -8.8672E+01   energy=   1.0398E-03   setid =    1135 xmoment=   0.0000E+00 ymoment=   0.0000E+00 zmoment=   0.0000E+00
 nd#    1136  xforce=   0.0000E+00   yforce=   0.0000E+00  zforce=  -9.2388E+01   energy=   1.0776E-03   setid =    1136 xmoment=   0.0000E+00 ymoment=   0.0000E+00 zmoment=   0.0000E+00
 nd#    1137  xforce=   0.0000E+00   yforce=   0.0000E+00  zforce=  -9.3244E+01   energy=   1.0958E-03   setid =    1137 xmoment=   0.0000E+00 ymoment=   0.0000E+00 zmoment=   0.0000E+00
 nd#    1138  xforce=   0.0000E+00   yforce=   0.0000E+00  zforce=  -4.8483E+01   energy=   5.5891E-04   setid =    1138 xmoment=   0.0000E+00 ymoment=   0.0000E+00 zmoment=   0.0000E+00
              xtotal=   0.0000E+00   ytotal=   0.0000E+00  ztotal=  -2.6321E+03   etotal=   3.0680E-02

 n o d a l   f o r c e/e n e r g y    o u t p u t  t=   3.00162E+01

 velocity boundary condition forces/rigid body moments 

 nd#     105  xforce=   0.0000E+00   yforce=   0.0000E+00  zforce=  -6.9390E+01   energy=   1.6016E-03   setid =     105 xmoment=   0.0000E+00 ymoment=   0.0000E+00 zmoment=   0.0000E+00
 nd#     106  xforce=   0.0000E+00   yforce=   0.0000E+00  zforce=  -1.3697E+02   energy=   1.8475E-03   setid =     106 xmoment=   0.0000E+00 ymoment=   0.0000E+00 zmoment=   0.0000E+00
 nd#     107  xforce=   0.0000E+00   yforce=   0.0000E+00  zforce=  -1.1638E+02   energy=   1.9769E-03   setid =     107 xmoment=   0.0000E+00 ymoment=   0.0000E+00 zmoment=   0.0000E+00
 nd#     108  xforce=   0.0000E+00   yforce=   0.0000E+00  zforce=  -7.2294E+01   energy=   1.7282E-03   setid =     108 xmoment=   0.0000E+00 ymoment=   0.0000E+00 zmoment=   0.0000E+00
 nd#     137  xforce=   0.0000E+00   yforce=   0.0000E+00  zforce=  -6.0960E+01   energy=   1.8734E-03   setid =     137 xmoment=   0.0000E+00 ymoment=   0.0000E+00 zmoment=   0.0000E+00
 nd#     138  xforce=   0.0000E+00   yforce=   0.0000E+00  zforce=  -7.1217E+01   energy=   1.8070E-03   setid =     138 xmoment=   0.0000E+00 ymoment=   0.0000E+00 zmoment=   0.0000E+00
 nd#     139  xforce=   0.0000E+00   yforce=   0.0000E+00  zforce=  -1.2256E+02   energy=   1.3833E-03   setid =     139 xmoment=   0.0000E+00 ymoment=   0.0000E+00 zmoment=   0.0000E+00
 nd#     140  xforce=   0.0000E+00   yforce=   0.0000E+00  zforce=  -7.8765E+01   energy=   1.1950E-03   setid =     140 xmoment=   0.0000E+00 ymoment=   0.0000E+00 zmoment=   0.0000E+00
 nd#     162  xforce=   0.0000E+00   yforce=   0.0000E+00  zforce=  -5.9187E+01   energy=   1.0041E-03   setid =     162 xmoment=   0.0000E+00 ymoment=   0.0000E+00 zmoment=   0.0000E+00
 nd#     163  xforce=   0.0000E+00   yforce=   0.0000E+00  zforce=  -1.9961E+01   energy=   9.2845E-04   setid =     163 xmoment=   0.0000E+00 ymoment=   0.0000E+00 zmoment=   0.0000E+00
 nd#     164  xforce=   0.0000E+00   yforce=   0.0000E+00  zforce=  -7.3938E+01   energy=   1.2228E-03   setid =     164 xmoment=   0.0000E+00 ymoment=   0.0000E+00 zmoment=   0.0000E+00
 nd#     179  xforce=   0.0000E+00   yforce=   0.0000E+00  zforce=   2.9375E+01   energy=   1.2116E-03   setid =     179 xmoment=   0.0000E+00 ymoment=   0.0000E+00 zmoment=   0.0000E+00
 nd#     180  xforce=   0.0000E+00   yforce=   0.0000E+00  zforce=  -6.1073E+01   energy=   1.2812E-03   setid =     180 xmoment=   0.0000E+00 ymoment=   0.0000E+00 zmoment=   0.0000E+00
 nd#     188  xforce=   0.0000E+00   yforce=   0.0000E+00  zforce=  -6.0030E+01   energy=   9.2666E-04   setid =     188 xmoment=   0.0000E+00 ymoment=   0.0000E+00 zmoment=   0.0000E+00
 nd#     210  xforce=   0.0000E+00   yforce=   0.0000E+00  zforce=  -1.0941E+02   energy=   1.4499E-03   setid =     210 xmoment=   0.0000E+00 ymoment=   0.0000E+00 zmoment=   0.0000E+00
 nd#     211  xforce=   0.0000E+00   yforce=   0.0000E+00  zforce=   6.2243E+01   energy=   1.2199E-03   setid =     211 xmoment=   0.0000E+00 ymoment=   0.0000E+00 zmoment=   0.0000E+00
 nd#     212  xforce=   0.0000E+00   yforce=   0.0000E+00  zforce=  -1.3154E+02   energy=   1.3421E-03   setid =     212 xmoment=   0.0000E+00 ymoment=   0.0000E+00 zmoment=   0.0000E+00
 nd#     220  xforce=   0.0000E+00   yforce=   0.0000E+00  zforce=  -1.0690E+02   energy=   1.0484E-03   setid =     220 xmoment=   0.0000E+00 ymoment=   0.0000E+00 zmoment=   0.0000E+00
 nd#     228  xforce=   0.0000E+00   yforce=   0.0000E+00  zforce=  -6.3677E+01   energy=   1.1858E-03   setid =     228 xmoment=   0.0000E+00 ymoment=   0.0000E+00 zmoment=   0.0000E+00
 nd#     787  xforce=   0.0000E+00   yforce=   0.0000E+00  zforce=  -5.7919E+01   energy=   1.0503E-03   setid =     787 xmoment=   0.0000E+00 ymoment=   0.0000E+00 zmoment=   0.0000E+00
 nd#     788  xforce=   0.0000E+00   yforce=   0.0000E+00  zforce=  -4.9817E+01   energy=   8.8301E-04   setid =     788 xmoment=   0.0000E+00 ymoment=   0.0000E+00 zmoment=   0.0000E+00
 nd#     789  xforce=   0.0000E+00   yforce=   0.0000E+00  zforce=  -4.0173E+01   energy=   6.8862E-04   setid =     789 xmoment=   0.0000E+00 ymoment=   0.0000E+00 zmoment=   0.0000E+00
 nd#     790  xforce=   0.0000E+00   yforce=   0.0000E+00  zforce=  -2.9586E+01   energy=   4.9489E-04   setid =     790 xmoment=   0.0000E+00 ymoment=   0.0000E+00 zmoment=   0.0000E+00
 nd#     791  xforce=   0.0000E+00   yforce=   0.0000E+00  zforce=  -2.2422E+01   energy=   3.3139E-04   setid =     791 xmoment=   0.0000E+00 ymoment=   0.0000E+00 zmoment=   0.0000E+00
 nd#     792  xforce=   0.0000E+00   yforce=   0.0000E+00  zforce=  -1.5668E+01   energy=   1.8516E-04   setid =     792 xmoment=   0.0000E+00 ymoment=   0.0000E+00 zmoment=   0.0000E+00
 nd#     793  xforce=   0.0000E+00   yforce=   0.0000E+00  zforce=  -3.8360E+00   energy=   9.7792E-06   setid =     793 xmoment=   0.0000E+00 ymoment=   0.0000E+00 zmoment=   0.0000E+00
 nd#     794  xforce=   0.0000E+00   yforce=   0.0000E+00  zforce=  -5.1455E+00   energy=  -9.1535E-06   setid =     794 xmoment=   0.0000E+00 ymoment=   0.0000E+00 zmoment=   0.0000E+00
 nd#     955  xforce=   0.0000E+00   yforce=   0.0000E+00  zforce=  -2.6487E+01   energy=   6.9144E-04   setid =     955 xmoment=   0.0000E+00 ymoment=   0.0000E+00 zmoment=   0.0000E+00
 nd#     956  xforce=   0.0000E+00   yforce=   0.0000E+00  zforce=  -1.7420E+01   energy=   4.1886E-04   setid =     956 xmoment=   0.0000E+00 ymoment=   0.0000E+00 zmoment=   0.0000E+00
 nd#     957  xforce=   0.0000E+00   yforce=   0.0000E+00  zforce=  -4.4291E+01   energy=   8.1418E-04   setid =     957 xmoment=   0.0000E+00 ymoment=   0.0000E+00 zmoment=   0.0000E+00
 nd#     958  xforce=   0.0000E+00   yforce=   0.0000E+00  zforce=  -3.4557E+01   energy=   5.5632E-04   setid =     958 xmoment=   0.0000E+00 ymoment=   0.0000E+00 zmoment=   0.0000E+00
 nd#     959  xforce=   0.0000E+00   yforce=   0.0000E+00  zforce=  -2.5978E+01   energy=   7.4770E-04   setid =     959 xmoment=   0.0000E+00 ymoment=   0.0000E+00 zmoment=   0.0000E+00
 nd#     960  xforce=   0.0000E+00   yforce=   0.0000E+00  zforce=  -2.2812E+01   energy=   5.1856E-04   setid =     960 xmoment=   0.0000E+00 ymoment=   0.0000E+00 zmoment=   0.0000E+00
 nd#     961  xforce=   0.0000E+00   yforce=   0.0000E+00  zforce=  -3.1308E+01   energy=   4.2006E-04   setid =     961 xmoment=   0.0000E+00 ymoment=   0.0000E+00 zmoment=   0.0000E+00
 nd#     962  xforce=   0.0000E+00   yforce=   0.0000E+00  zforce=  -2.6852E+01   energy=   2.9149E-04   setid =     962 xmoment=   0.0000E+00 ymoment=   0.0000E+00 zmoment=   0.0000E+00
 nd#     975  xforce=   0.0000E+00   yforce=   0.0000E+00  zforce=   1.0504E+00   energy=  -9.9636E-05   setid =     975 xmoment=   0.0000E+00 ymoment=   0.0000E+00 zmoment=   0.0000E+00
 nd#     977  xforce=   0.0000E+00   yforce=   0.0000E+00  zforce=   2.7600E+01   energy=  -3.1055E-04   setid =     977 xmoment=   0.0000E+00 ymoment=   0.0000E+00 zmoment=   0.0000E+00
 nd#     978  xforce=   0.0000E+00   yforce=   0.0000E+00  zforce=  -6.2500E+00   energy=   2.7546E-05   setid =     978 xmoment=   0.0000E+00 ymoment=   0.0000E+00 zmoment=   0.0000E+00
 nd#     980  xforce=   0.0000E+00   yforce=   0.0000E+00  zforce=   9.3796E+00   energy=  -1.5704E-04   setid =     980 xmoment=   0.0000E+00 ymoment=   0.0000E+00 zmoment=   0.0000E+00
 nd#     981  xforce=   0.0000E+00   yforce=   0.0000E+00  zforce=  -5.4699E+00   energy=   6.9939E-05   setid =     981 xmoment=   0.0000E+00 ymoment=   0.0000E+00 zmoment=   0.0000E+00
 nd#     983  xforce=   0.0000E+00   yforce=   0.0000E+00  zforce=   9.9936E+00   energy=  -7.1113E-05   setid =     983 xmoment=   0.0000E+00 ymoment=   0.0000E+00 zmoment=   0.0000E+00
 nd#     984  xforce=   0.0000E+00   yforce=   0.0000E+00  zforce=  -1.5474E+01   energy=   6.7062E-05   setid =     984 xmoment=   0.0000E+00 ymoment=   0.0000E+00 zmoment=   0.0000E+00
 nd#     986  xforce=   0.0000E+00   yforce=   0.0000E+00  zforce=  -2.3310E+00   energy=   4.5253E-07   setid =     986 xmoment=   0.0000E+00 ymoment=   0.0000E+00 zmoment=   0.0000E+00
 nd#    1059  xforce=   0.0000E+00   yforce=   0.0000E+00  zforce=  -3.9615E+01   energy=   1.0104E-03   setid =    1059 xmoment=   0.0000E+00 ymoment=   0.0000E+00 zmoment=   0.0000E+00
 nd#    1061  xforce=   0.0000E+00   yforce=   0.0000E+00  zforce=  -5.8484E+01   energy=   1.1251E-03   setid =    1061 xmoment=   0.0000E+00 ymoment=   0.0000E+00 zmoment=   0.0000E+00
 nd#    1063  xforce=   0.0000E+00   yforce=   0.0000E+00  zforce=  -3.0436E+01   energy=   1.0202E-03   setid =    1063 xmoment=   0.0000E+00 ymoment=   0.0000E+00 zmoment=   0.0000E+00
 nd#    1065  xforce=   0.0000E+00   yforce=   0.0000E+00  zforce=  -3.7481E+01   energy=   5.7761E-04   setid =    1065 xmoment=   0.0000E+00 ymoment=   0.0000E+00 zmoment=   0.0000E+00
 nd#    1071  xforce=   0.0000E+00   yforce=   0.0000E+00  zforce=  -9.3865E+00   energy=   1.7768E-04   setid =    1071 xmoment=   0.0000E+00 ymoment=   0.0000E+00 zmoment=   0.0000E+00
 nd#    1072  xforce=   0.0000E+00   yforce=   0.0000E+00  zforce=  -2.5420E+01   energy=   3.2966E-04   setid =    1072 xmoment=   0.0000E+00 ymoment=   0.0000E+00 zmoment=   0.0000E+00
 nd#    1073  xforce=   0.0000E+00   yforce=   0.0000E+00  zforce=  -1.7029E+01   energy=   3.0808E-04   setid =    1073 xmoment=   0.0000E+00 ymoment=   0.0000E+00 zmoment=   0.0000E+00
 nd#    1074  xforce=   0.0000E+00   yforce=   0.0000E+00  zforce=  -2.2501E+01   energy=   1.8101E-04   setid =    1074 xmoment=   0.0000E+00 ymoment=   0.0000E+00 zmoment=   0.0000E+00
 nd#    1111  xforce=   0.0000E+00   yforce=   0.0000E+00  zforce=  -5.1039E+01   energy=   1.3259E-03   setid =    1111 xmoment=   0.0000E+00 ymoment=   0.0000E+00 zmoment=   0.0000E+00
 nd#    1112  xforce=   0.0000E+00   yforce=   0.0000E+00  zforce=  -7.6953E+01   energy=   1.4638E-03   setid =    1112 xmoment=   0.0000E+00 ymoment=   0.0000E+00 zmoment=   0.0000E+00
 nd#    1113  xforce=   0.0000E+00   yforce=   0.0000E+00  zforce=  -3.6866E+01   energy=   1.3193E-03   setid =    1113 xmoment=   0.0000E+00 ymoment=   0.0000E+00 zmoment=   0.0000E+00
 nd#    1114  xforce=   0.0000E+00   yforce=   0.0000E+00  zforce=  -4.6159E+01   energy=   7.5989E-04   setid =    1114 xmoment=   0.0000E+00 ymoment=   0.0000E+00 zmoment=   0.0000E+00
 nd#    1135  xforce=   0.0000E+00   yforce=   0.0000E+00  zforce=  -6.4232E+01   energy=   1.5995E-03   setid =    1135 xmoment=   0.0000E+00 ymoment=   0.0000E+00 zmoment=   0.0000E+00
 nd#    1136  xforce=   0.0000E+00   yforce=   0.0000E+00  zforce=  -1.0060E+02   energy=   1.7841E-03   setid =    1136 xmoment=   0.0000E+00 ymoment=   0.0000E+00 zmoment=   0.0000E+00
 nd#    1137  xforce=   0.0000E+00   yforce=   0.0000E+00  zforce=  -4.9296E+01   energy=   1.6176E-03   setid =    1137 xmoment=   0.0000E+00 ymoment=   0.0000E+00 zmoment=   0.0000E+00
 nd#    1138  xforce=   0.0000E+00   yforce=   0.0000E+00  zforce=  -5.9188E+01   energy=   9.5307E-04   setid =    1138 xmoment=   0.0000E+00 ymoment=   0.0000E+00 zmoment=   0.0000E+00
              xtotal=   0.0000E+00   ytotal=   0.0000E+00  ztotal=  -2.4831E+03   etotal=   4.9406E-02

 n o d a l   f o r c e/e n e r g y    o u t p u t  t=   3.36857E+01

 velocity boundary condition forces/rigid body moments 

 nd#     105  xforce=   0.0000E+00   yforce=   0.0000E+00  zforce=  -8.0951E+01   energy=   1.8774E-03   setid =     105 xmoment=   0.0000E+00 ymoment=   0.0000E+00 zmoment=   0.0000E+00
 nd#     106  xforce=   0.0000E+00   yforce=   0.0000E+00  zforce=  -1.4364E+02   energy=   2.3624E-03   setid =     106 xmoment=   0.0000E+00 ymoment=   0.0000E+00 zmoment=   0.0000E+00
 nd#     107  xforce=   0.0000E+00   yforce=   0.0000E+00  zforce=  -1.2756E+02   energy=   2.4245E-03   setid =     107 xmoment=   0.0000E+00 ymoment=   0.0000E+00 zmoment=   0.0000E+00
 nd#     108  xforce=   0.0000E+00   yforce=   0.0000E+00  zforce=  -8.0337E+01   energy=   2.0082E-03   setid =     108 xmoment=   0.0000E+00 ymoment=   0.0000E+00 zmoment=   0.0000E+00
 nd#     137  xforce=   0.0000E+00   yforce=   0.0000E+00  zforce=  -6.7329E+01   energy=   2.1088E-03   setid =     137 xmoment=   0.0000E+00 ymoment=   0.0000E+00 zmoment=   0.0000E+00
 nd#     138  xforce=   0.0000E+00   yforce=   0.0000E+00  zforce=  -7.0349E+01   energy=   2.0668E-03   setid =     138 xmoment=   0.0000E+00 ymoment=   0.0000E+00 zmoment=   0.0000E+00
 nd#     139  xforce=   0.0000E+00   yforce=   0.0000E+00  zforce=  -1.2593E+02   energy=   1.8392E-03   setid =     139 xmoment=   0.0000E+00 ymoment=   0.0000E+00 zmoment=   0.0000E+00
 nd#     140  xforce=   0.0000E+00   yforce=   0.0000E+00  zforce=  -8.4366E+01   energy=   1.4943E-03   setid =     140 xmoment=   0.0000E+00 ymoment=   0.0000E+00 zmoment=   0.0000E+00
 nd#     162  xforce=   0.0000E+00   yforce=   0.0000E+00  zforce=  -6.2827E+01   energy=   1.2279E-03   setid =     162 xmoment=   0.0000E+00 ymoment=   0.0000E+00 zmoment=   0.0000E+00
 nd#     163  xforce=   0.0000E+00   yforce=   0.0000E+00  zforce=  -2.4879E+01   energy=   1.0107E-03   setid =     163 xmoment=   0.0000E+00 ymoment=   0.0000E+00 zmoment=   0.0000E+00
 nd#     164  xforce=   0.0000E+00   yforce=   0.0000E+00  zforce=  -8.2956E+01   energy=   1.5107E-03   setid =     164 xmoment=   0.0000E+00 ymoment=   0.0000E+00 zmoment=   0.0000E+00
 nd#     179  xforce=   0.0000E+00   yforce=   0.0000E+00  zforce=   2.5002E+01   energy=   1.1118E-03   setid =     179 xmoment=   0.0000E+00 ymoment=   0.0000E+00 zmoment=   0.0000E+00
 nd#     180  xforce=   0.0000E+00   yforce=   0.0000E+00  zforce=  -6.1810E+01   energy=   1.5067E-03   setid =     180 xmoment=   0.0000E+00 ymoment=   0.0000E+00 zmoment=   0.0000E+00
 nd#     188  xforce=   0.0000E+00   yforce=   0.0000E+00  zforce=  -6.3376E+01   energy=   1.1531E-03   setid =     188 xmoment=   0.0000E+00 ymoment=   0.0000E+00 zmoment=   0.0000E+00
 nd#     210  xforce=   0.0000E+00   yforce=   0.0000E+00  zforce=  -1.1536E+02   energy=   1.8623E-03   setid =     210 xmoment=   0.0000E+00 ymoment=   0.0000E+00 zmoment=   0.0000E+00
 nd#     211  xforce=   0.0000E+00   yforce=   0.0000E+00  zforce=   5.7255E+01   energy=   1.0006E-03   setid =     211 xmoment=   0.0000E+00 ymoment=   0.0000E+00 zmoment=   0.0000E+00
 nd#     212  xforce=   0.0000E+00   yforce=   0.0000E+00  zforce=  -1.3996E+02   energy=   1.8402E-03   setid =     212 xmoment=   0.0000E+00 ymoment=   0.0000E+00 zmoment=   0.0000E+00
 nd#     220  xforce=   0.0000E+00   yforce=   0.0000E+00  zforce=  -1.1013E+02   energy=   1.4466E-03   setid =     220 xmoment=   0.0000E+00 ymoment=   0.0000E+00 zmoment=   0.0000E+00
 nd#     228  xforce=   0.0000E+00   yforce=   0.0000E+00  zforce=  -7.0788E+01   energy=   1.4325E-03   setid =     228 xmoment=   0.0000E+00 ymoment=   0.0000E+00 zmoment=   0.0000E+00
 nd#     787  xforce=   0.0000E+00   yforce=   0.0000E+00  zforce=  -6.3510E+01   energy=   1.2731E-03   setid =     787 xmoment=   0.0000E+00 ymoment=   0.0000E+00 zmoment=   0.0000E+00
 nd#     788  xforce=   0.0000E+00   yforce=   0.0000E+00  zforce=  -5.3648E+01   energy=   1.0728E-03   setid =     788 xmoment=   0.0000E+00 ymoment=   0.0000E+00 zmoment=   0.0000E+00
 nd#     789  xforce=   0.0000E+00   yforce=   0.0000E+00  zforce=  -4.2333E+01   energy=   8.4000E-04   setid =     789 xmoment=   0.0000E+00 ymoment=   0.0000E+00 zmoment=   0.0000E+00
 nd#     790  xforce=   0.0000E+00   yforce=   0.0000E+00  zforce=  -2.9830E+01   energy=   6.0390E-04   setid =     790 xmoment=   0.0000E+00 ymoment=   0.0000E+00 zmoment=   0.0000E+00
 nd#     791  xforce=   0.0000E+00   yforce=   0.0000E+00  zforce=  -2.1010E+01   energy=   4.1108E-04   setid =     791 xmoment=   0.0000E+00 ymoment=   0.0000E+00 zmoment=   0.0000E+00
 nd#     792  xforce=   0.0000E+00   yforce=   0.0000E+00  zforce=  -1.2516E+01   energy=   2.3687E-04   setid =     792 xmoment=   0.0000E+00 ymoment=   0.0000E+00 zmoment=   0.0000E+00
 nd#     793  xforce=   0.0000E+00   yforce=   0.0000E+00  zforce=   1.7262E+00   energy=   1.3650E-05   setid =     793 xmoment=   0.0000E+00 ymoment=   0.0000E+00 zmoment=   0.0000E+00
 nd#     794  xforce=   0.0000E+00   yforce=   0.0000E+00  zforce=  -1.7089E+00   energy=   3.4225E-06   setid =     794 xmoment=   0.0000E+00 ymoment=   0.0000E+00 zmoment=   0.0000E+00
 nd#     955  xforce=   0.0000E+00   yforce=   0.0000E+00  zforce=  -2.5241E+01   energy=   7.8635E-04   setid =     955 xmoment=   0.0000E+00 ymoment=   0.0000E+00 zmoment=   0.0000E+00
 nd#     956  xforce=   0.0000E+00   yforce=   0.0000E+00  zforce=  -1.3297E+01   energy=   4.7522E-04   setid =     956 xmoment=   0.0000E+00 ymoment=   0.0000E+00 zmoment=   0.0000E+00
 nd#     957  xforce=   0.0000E+00   yforce=   0.0000E+00  zforce=  -4.4194E+01   energy=   9.7653E-04   setid =     957 xmoment=   0.0000E+00 ymoment=   0.0000E+00 zmoment=   0.0000E+00
 nd#     958  xforce=   0.0000E+00   yforce=   0.0000E+00  zforce=  -3.1115E+01   energy=   6.7681E-04   setid =     958 xmoment=   0.0000E+00 ymoment=   0.0000E+00 zmoment=   0.0000E+00
 nd#     959  xforce=   0.0000E+00   yforce=   0.0000E+00  zforce=  -2.4788E+01   energy=   8.4084E-04   setid =     959 xmoment=   0.0000E+00 ymoment=   0.0000E+00 zmoment=   0.0000E+00
 nd#     960  xforce=   0.0000E+00   yforce=   0.0000E+00  zforce=  -1.8753E+01   energy=   5.9482E-04   setid =     960 xmoment=   0.0000E+00 ymoment=   0.0000E+00 zmoment=   0.0000E+00
 nd#     961  xforce=   0.0000E+00   yforce=   0.0000E+00  zforce=  -3.1538E+01   energy=   5.3536E-04   setid =     961 xmoment=   0.0000E+00 ymoment=   0.0000E+00 zmoment=   0.0000E+00
 nd#     962  xforce=   0.0000E+00   yforce=   0.0000E+00  zforce=  -2.5396E+01   energy=   3.8735E-04   setid =     962 xmoment=   0.0000E+00 ymoment=   0.0000E+00 zmoment=   0.0000E+00
 nd#     975  xforce=   0.0000E+00   yforce=   0.0000E+00  zforce=   1.3109E+01   energy=  -1.2561E-04   setid =     975 xmoment=   0.0000E+00 ymoment=   0.0000E+00 zmoment=   0.0000E+00
 nd#     977  xforce=   0.0000E+00   yforce=   0.0000E+00  zforce=   3.5642E+01   energy=  -4.2659E-04   setid =     977 xmoment=   0.0000E+00 ymoment=   0.0000E+00 zmoment=   0.0000E+00
 nd#     978  xforce=   0.0000E+00   yforce=   0.0000E+00  zforce=   4.8080E+00   energy=   3.0192E-05   setid =     978 xmoment=   0.0000E+00 ymoment=   0.0000E+00 zmoment=   0.0000E+00
 nd#     980  xforce=   0.0000E+00   yforce=   0.0000E+00  zforce=   1.6848E+01   energy=  -2.0516E-04   setid =     980 xmoment=   0.0000E+00 ymoment=   0.0000E+00 zmoment=   0.0000E+00
 nd#     981  xforce=   0.0000E+00   yforce=   0.0000E+00  zforce=   5.2171E+00   energy=   7.0403E-05   setid =     981 xmoment=   0.0000E+00 ymoment=   0.0000E+00 zmoment=   0.0000E+00
 nd#     983  xforce=   0.0000E+00   yforce=   0.0000E+00  zforce=   1.6684E+01   energy=  -1.2006E-04   setid =     983 xmoment=   0.0000E+00 ymoment=   0.0000E+00 zmoment=   0.0000E+00
 nd#     984  xforce=   0.0000E+00   yforce=   0.0000E+00  zforce=  -1.0368E+01   energy=   1.1447E-04   setid =     984 xmoment=   0.0000E+00 ymoment=   0.0000E+00 zmoment=   0.0000E+00
 nd#     986  xforce=   0.0000E+00   yforce=   0.0000E+00  zforce=   8.1949E-01   energy=   3.2257E-06   setid =     986 xmoment=   0.0000E+00 ymoment=   0.0000E+00 zmoment=   0.0000E+00
 nd#    1059  xforce=   0.0000E+00   yforce=   0.0000E+00  zforce=  -4.1314E+01   energy=   1.1589E-03   setid =    1059 xmoment=   0.0000E+00 ymoment=   0.0000E+00 zmoment=   0.0000E+00
 nd#    1061  xforce=   0.0000E+00   yforce=   0.0000E+00  zforce=  -6.1745E+01   energy=   1.3457E-03   setid =    1061 xmoment=   0.0000E+00 ymoment=   0.0000E+00 zmoment=   0.0000E+00
 nd#    1063  xforce=   0.0000E+00   yforce=   0.0000E+00  zforce=  -3.1369E+01   energy=   1.1336E-03   setid =    1063 xmoment=   0.0000E+00 ymoment=   0.0000E+00 zmoment=   0.0000E+00
 nd#    1065  xforce=   0.0000E+00   yforce=   0.0000E+00  zforce=  -3.9385E+01   energy=   7.1864E-04   setid =    1065 xmoment=   0.0000E+00 ymoment=   0.0000E+00 zmoment=   0.0000E+00
 nd#    1071  xforce=   0.0000E+00   yforce=   0.0000E+00  zforce=  -1.7080E+00   energy=   1.9803E-04   setid =    1071 xmoment=   0.0000E+00 ymoment=   0.0000E+00 zmoment=   0.0000E+00
 nd#    1072  xforce=   0.0000E+00   yforce=   0.0000E+00  zforce=  -1.8744E+01   energy=   4.1069E-04   setid =    1072 xmoment=   0.0000E+00 ymoment=   0.0000E+00 zmoment=   0.0000E+00
 nd#    1073  xforce=   0.0000E+00   yforce=   0.0000E+00  zforce=  -1.0047E+01   energy=   3.5775E-04   setid =    1073 xmoment=   0.0000E+00 ymoment=   0.0000E+00 zmoment=   0.0000E+00
 nd#    1074  xforce=   0.0000E+00   yforce=   0.0000E+00  zforce=  -1.9305E+01   energy=   2.5771E-04   setid =    1074 xmoment=   0.0000E+00 ymoment=   0.0000E+00 zmoment=   0.0000E+00
 nd#    1111  xforce=   0.0000E+00   yforce=   0.0000E+00  zforce=  -5.6813E+01   energy=   1.5238E-03   setid =    1111 xmoment=   0.0000E+00 ymoment=   0.0000E+00 zmoment=   0.0000E+00
 nd#    1112  xforce=   0.0000E+00   yforce=   0.0000E+00  zforce=  -8.5436E+01   energy=   1.7617E-03   setid =    1112 xmoment=   0.0000E+00 ymoment=   0.0000E+00 zmoment=   0.0000E+00
 nd#    1113  xforce=   0.0000E+00   yforce=   0.0000E+00  zforce=  -4.0894E+01   energy=   1.4620E-03   setid =    1113 xmoment=   0.0000E+00 ymoment=   0.0000E+00 zmoment=   0.0000E+00
 nd#    1114  xforce=   0.0000E+00   yforce=   0.0000E+00  zforce=  -4.9675E+01   energy=   9.3572E-04   setid =    1114 xmoment=   0.0000E+00 ymoment=   0.0000E+00 zmoment=   0.0000E+00
 nd#    1135  xforce=   0.0000E+00   yforce=   0.0000E+00  zforce=  -7.2537E+01   energy=   1.8505E-03   setid =    1135 xmoment=   0.0000E+00 ymoment=   0.0000E+00 zmoment=   0.0000E+00
 nd#    1136  xforce=   0.0000E+00   yforce=   0.0000E+00  zforce=  -1.1100E+02   energy=   2.1723E-03   setid =    1136 xmoment=   0.0000E+00 ymoment=   0.0000E+00 zmoment=   0.0000E+00
 nd#    1137  xforce=   0.0000E+00   yforce=   0.0000E+00  zforce=  -5.4748E+01   energy=   1.8085E-03   setid =    1137 xmoment=   0.0000E+00 ymoment=   0.0000E+00 zmoment=   0.0000E+00
 nd#    1138  xforce=   0.0000E+00   yforce=   0.0000E+00  zforce=  -6.3606E+01   energy=   1.1784E-03   setid =    1138 xmoment=   0.0000E+00 ymoment=   0.0000E+00 zmoment=   0.0000E+00
              xtotal=   0.0000E+00   ytotal=   0.0000E+00  ztotal=  -2.5430E+03   etotal=   5.8628E-02

 n o d a l   f o r c e/e n e r g y    o u t p u t  t=   3.95015E+01

 velocity boundary condition forces/rigid body moments 

 nd#     105  xforce=   0.0000E+00   yforce=   0.0000E+00  zforce=  -6.6514E+01   energy=   2.3062E-03   setid =     105 xmoment=   0.0000E+00 ymoment=   0.0000E+00 zmoment=   0.0000E+00
 nd#     106  xforce=   0.0000E+00   yforce=   0.0000E+00  zforce=  -1.5710E+02   energy=   3.2369E-03   setid =     106 xmoment=   0.0000E+00 ymoment=   0.0000E+00 zmoment=   0.0000E+00
 nd#     107  xforce=   0.0000E+00   yforce=   0.0000E+00  zforce=  -1.3636E+02   energy=   3.1919E-03   setid =     107 xmoment=   0.0000E+00 ymoment=   0.0000E+00 zmoment=   0.0000E+00
 nd#     108  xforce=   0.0000E+00   yforce=   0.0000E+00  zforce=  -6.2133E+01   energy=   2.4225E-03   setid =     108 xmoment=   0.0000E+00 ymoment=   0.0000E+00 zmoment=   0.0000E+00
[...]
 nd#     188  xforce=   0.0000E+00   yforce=   0.0000E+00  zforce=  -6.0622E+01   energy=   4.5235E-03   setid =     188 xmoment=   0.0000E+00 ymoment=   0.0000E+00 zmoment=   0.0000E+00
 nd#     210  xforce=   0.0000E+00   yforce=   0.0000E+00  zforce=  -1.6203E+02   energy=   1.0554E-02   setid =     210 xmoment=   0.0000E+00 ymoment=   0.0000E+00 zmoment=   0.0000E+00
 nd#     211  xforce=   0.0000E+00   yforce=   0.0000E+00  zforce=   7.3556E+01   energy=  -4.3370E-03   setid =     211 xmoment=   0.0000E+00 ymoment=   0.0000E+00 zmoment=   0.0000E+00
 nd#     212  xforce=   0.0000E+00   yforce=   0.0000E+00  zforce=  -1.5990E+02   energy=   1.1474E-02   setid =     212 xmoment=   0.0000E+00 ymoment=   0.0000E+00 zmoment=   0.0000E+00
 nd#     220  xforce=   0.0000E+00   yforce=   0.0000E+00  zforce=  -1.5565E+02   energy=   9.6385E-03   setid =     220 xmoment=   0.0000E+00 ymoment=   0.0000E+00 zmoment=   0.0000E+00
 nd#     228  xforce=   0.0000E+00   yforce=   0.0000E+00  zforce=  -8.8167E+01   energy=   6.0325E-03   setid =     228 xmoment=   0.0000E+00 ymoment=   0.0000E+00 zmoment=   0.0000E+00
 nd#     787  xforce=   0.0000E+00   yforce=   0.0000E+00  zforce=  -8.0041E+01   energy=   5.4841E-03   setid =     787 xmoment=   0.0000E+00 ymoment=   0.0000E+00 zmoment=   0.0000E+00
 nd#     788  xforce=   0.0000E+00   yforce=   0.0000E+00  zforce=  -7.2002E+01   energy=   4.8108E-03   setid =     788 xmoment=   0.0000E+00 ymoment=   0.0000E+00 zmoment=   0.0000E+00
 nd#     789  xforce=   0.0000E+00   yforce=   0.0000E+00  zforce=  -6.0609E+01   energy=   3.9834E-03   setid =     789 xmoment=   0.0000E+00 ymoment=   0.0000E+00 zmoment=   0.0000E+00
 nd#     790  xforce=   0.0000E+00   yforce=   0.0000E+00  zforce=  -4.9030E+01   energy=   3.0742E-03   setid =     790 xmoment=   0.0000E+00 ymoment=   0.0000E+00 zmoment=   0.0000E+00
 nd#     791  xforce=   0.0000E+00   yforce=   0.0000E+00  zforce=  -3.7653E+01   energy=   2.2665E-03   setid =     791 xmoment=   0.0000E+00 ymoment=   0.0000E+00 zmoment=   0.0000E+00
 nd#     792  xforce=   0.0000E+00   yforce=   0.0000E+00  zforce=  -2.6728E+01   energy=   1.5839E-03   setid =     792 xmoment=   0.0000E+00 ymoment=   0.0000E+00 zmoment=   0.0000E+00
 nd#     793  xforce=   0.0000E+00   yforce=   0.0000E+00  zforce=  -1.2272E+01   energy=   5.5325E-04   setid =     793 xmoment=   0.0000E+00 ymoment=   0.0000E+00 zmoment=   0.0000E+00
 nd#     794  xforce=   0.0000E+00   yforce=   0.0000E+00  zforce=  -6.1728E+00   energy=   3.8581E-04   setid =     794 xmoment=   0.0000E+00 ymoment=   0.0000E+00 zmoment=   0.0000E+00
 nd#     955  xforce=   0.0000E+00   yforce=   0.0000E+00  zforce=  -4.5279E+01   energy=   2.8597E-03   setid =     955 xmoment=   0.0000E+00 ymoment=   0.0000E+00 zmoment=   0.0000E+00
 nd#     956  xforce=   0.0000E+00   yforce=   0.0000E+00  zforce=  -3.4463E+01   energy=   1.9672E-03   setid =     956 xmoment=   0.0000E+00 ymoment=   0.0000E+00 zmoment=   0.0000E+00
 nd#     957  xforce=   0.0000E+00   yforce=   0.0000E+00  zforce=  -7.7700E+01   energy=   4.6117E-03   setid =     957 xmoment=   0.0000E+00 ymoment=   0.0000E+00 zmoment=   0.0000E+00
 nd#     958  xforce=   0.0000E+00   yforce=   0.0000E+00  zforce=  -6.0938E+01   energy=   3.5488E-03   setid =     958 xmoment=   0.0000E+00 ymoment=   0.0000E+00 zmoment=   0.0000E+00
 nd#     959  xforce=   0.0000E+00   yforce=   0.0000E+00  zforce=  -4.1615E+01   energy=   2.6995E-03   setid =     959 xmoment=   0.0000E+00 ymoment=   0.0000E+00 zmoment=   0.0000E+00
 nd#     960  xforce=   0.0000E+00   yforce=   0.0000E+00  zforce=  -3.7099E+01   energy=   2.3203E-03   setid =     960 xmoment=   0.0000E+00 ymoment=   0.0000E+00 zmoment=   0.0000E+00
 nd#     961  xforce=   0.0000E+00   yforce=   0.0000E+00  zforce=  -5.1794E+01   energy=   3.0128E-03   setid =     961 xmoment=   0.0000E+00 ymoment=   0.0000E+00 zmoment=   0.0000E+00
 nd#     962  xforce=   0.0000E+00   yforce=   0.0000E+00  zforce=  -4.4595E+01   energy=   2.5362E-03   setid =     962 xmoment=   0.0000E+00 ymoment=   0.0000E+00 zmoment=   0.0000E+00
 nd#     975  xforce=   0.0000E+00   yforce=   0.0000E+00  zforce=  -1.3161E+01   energy=   2.3763E-04   setid =     975 xmoment=   0.0000E+00 ymoment=   0.0000E+00 zmoment=   0.0000E+00
 nd#     977  xforce=   0.0000E+00   yforce=   0.0000E+00  zforce=   3.7030E+01   energy=  -2.4977E-03   setid =     977 xmoment=   0.0000E+00 ymoment=   0.0000E+00 zmoment=   0.0000E+00
 nd#     978  xforce=   0.0000E+00   yforce=   0.0000E+00  zforce=  -2.2908E+01   energy=   9.6112E-04   setid =     978 xmoment=   0.0000E+00 ymoment=   0.0000E+00 zmoment=   0.0000E+00
 nd#     980  xforce=   0.0000E+00   yforce=   0.0000E+00  zforce=   7.9737E+00   energy=  -7.6031E-04   setid =     980 xmoment=   0.0000E+00 ymoment=   0.0000E+00 zmoment=   0.0000E+00
 nd#     981  xforce=   0.0000E+00   yforce=   0.0000E+00  zforce=  -1.6026E+01   energy=   7.8442E-04   setid =     981 xmoment=   0.0000E+00 ymoment=   0.0000E+00 zmoment=   0.0000E+00
 nd#     983  xforce=   0.0000E+00   yforce=   0.0000E+00  zforce=   1.3879E+01   energy=  -8.0829E-04   setid =     983 xmoment=   0.0000E+00 ymoment=   0.0000E+00 zmoment=   0.0000E+00
 nd#     984  xforce=   0.0000E+00   yforce=   0.0000E+00  zforce=  -2.7828E+01   energy=   1.4682E-03   setid =     984 xmoment=   0.0000E+00 ymoment=   0.0000E+00 zmoment=   0.0000E+00
 nd#     986  xforce=   0.0000E+00   yforce=   0.0000E+00  zforce=  -4.0622E+00   energy=   2.2515E-04   setid =     986 xmoment=   0.0000E+00 ymoment=   0.0000E+00 zmoment=   0.0000E+00
 nd#    1059  xforce=   0.0000E+00   yforce=   0.0000E+00  zforce=  -5.5026E+01   energy=   3.8312E-03   setid =    1059 xmoment=   0.0000E+00 ymoment=   0.0000E+00 zmoment=   0.0000E+00
 nd#    1061  xforce=   0.0000E+00   yforce=   0.0000E+00  zforce=  -9.7945E+01   energy=   6.0213E-03   setid =    1061 xmoment=   0.0000E+00 ymoment=   0.0000E+00 zmoment=   0.0000E+00
 nd#    1063  xforce=   0.0000E+00   yforce=   0.0000E+00  zforce=  -4.6799E+01   energy=   3.2118E-03   setid =    1063 xmoment=   0.0000E+00 ymoment=   0.0000E+00 zmoment=   0.0000E+00
 nd#    1065  xforce=   0.0000E+00   yforce=   0.0000E+00  zforce=  -5.8519E+01   energy=   3.6084E-03   setid =    1065 xmoment=   0.0000E+00 ymoment=   0.0000E+00 zmoment=   0.0000E+00
 nd#    1071  xforce=   0.0000E+00   yforce=   0.0000E+00  zforce=  -2.5508E+01   energy=   1.2404E-03   setid =    1071 xmoment=   0.0000E+00 ymoment=   0.0000E+00 zmoment=   0.0000E+00
 nd#    1072  xforce=   0.0000E+00   yforce=   0.0000E+00  zforce=  -4.8110E+01   energy=   2.6724E-03   setid =    1072 xmoment=   0.0000E+00 ymoment=   0.0000E+00 zmoment=   0.0000E+00
 nd#    1073  xforce=   0.0000E+00   yforce=   0.0000E+00  zforce=  -3.0501E+01   energy=   1.7950E-03   setid =    1073 xmoment=   0.0000E+00 ymoment=   0.0000E+00 zmoment=   0.0000E+00
 nd#    1074  xforce=   0.0000E+00   yforce=   0.0000E+00  zforce=  -3.8334E+01   energy=   2.1121E-03   setid =    1074 xmoment=   0.0000E+00 ymoment=   0.0000E+00 zmoment=   0.0000E+00
 nd#    1111  xforce=   0.0000E+00   yforce=   0.0000E+00  zforce=  -6.8231E+01   energy=   4.9580E-03   setid =    1111 xmoment=   0.0000E+00 ymoment=   0.0000E+00 zmoment=   0.0000E+00
 nd#    1112  xforce=   0.0000E+00   yforce=   0.0000E+00  zforce=  -1.2139E+02   energy=   7.7330E-03   setid =    1112 xmoment=   0.0000E+00 ymoment=   0.0000E+00 zmoment=   0.0000E+00
 nd#    1113  xforce=   0.0000E+00   yforce=   0.0000E+00  zforce=  -5.4198E+01   energy=   4.0614E-03   setid =    1113 xmoment=   0.0000E+00 ymoment=   0.0000E+00 zmoment=   0.0000E+00
 nd#    1114  xforce=   0.0000E+00   yforce=   0.0000E+00  zforce=  -6.7827E+01   energy=   4.4527E-03   setid =    1114 xmoment=   0.0000E+00 ymoment=   0.0000E+00 zmoment=   0.0000E+00
 nd#    1135  xforce=   0.0000E+00   yforce=   0.0000E+00  zforce=  -7.5937E+01   energy=   5.8848E-03   setid =    1135 xmoment=   0.0000E+00 ymoment=   0.0000E+00 zmoment=   0.0000E+00
 nd#    1136  xforce=   0.0000E+00   yforce=   0.0000E+00  zforce=  -1.4985E+02   energy=   9.6784E-03   setid =    1136 xmoment=   0.0000E+00 ymoment=   0.0000E+00 zmoment=   0.0000E+00
 nd#    1137  xforce=   0.0000E+00   yforce=   0.0000E+00  zforce=  -6.2504E+01   energy=   4.8928E-03   setid =    1137 xmoment=   0.0000E+00 ymoment=   0.0000E+00 zmoment=   0.0000E+00
 nd#    1138  xforce=   0.0000E+00   yforce=   0.0000E+00  zforce=  -8.3760E+01   energy=   5.5577E-03   setid =    1138 xmoment=   0.0000E+00 ymoment=   0.0000E+00 zmoment=   0.0000E+00
              xtotal=   0.0000E+00   ytotal=   0.0000E+00  ztotal=  -3.4429E+03   etotal=   2.3353E-01

 n o d a l   f o r c e/e n e r g y    o u t p u t  t=   1.00000E+02

 velocity boundary condition forces/rigid body moments 

 nd#     105  xforce=   0.0000E+00   yforce=   0.0000E+00  zforce=  -6.4802E+01   energy=   6.7839E-03   setid =     105 xmoment=   0.0000E+00 ymoment=   0.0000E+00 zmoment=   0.0000E+00
 nd#     106  xforce=   0.0000E+00   yforce=   0.0000E+00  zforce=  -1.6506E+02   energy=   1.3364E-02   setid =     106 xmoment=   0.0000E+00 ymoment=   0.0000E+00 zmoment=   0.0000E+00
 nd#     107  xforce=   0.0000E+00   yforce=   0.0000E+00  zforce=  -1.5948E+02   energy=   1.2579E-02   setid =     107 xmoment=   0.0000E+00 ymoment=   0.0000E+00 zmoment=   0.0000E+00
 nd#     108  xforce=   0.0000E+00   yforce=   0.0000E+00  zforce=  -6.8828E+01   energy=   6.8601E-03   setid =     108 xmoment=   0.0000E+00 ymoment=   0.0000E+00 zmoment=   0.0000E+00
 nd#     137  xforce=   0.0000E+00   yforce=   0.0000E+00  zforce=  -7.9696E+01   energy=   6.3901E-03   setid =     137 xmoment=   0.0000E+00 ymoment=   0.0000E+00 zmoment=   0.0000E+00
 nd#     138  xforce=   0.0000E+00   yforce=   0.0000E+00  zforce=  -6.6824E+01   energy=   5.5374E-03   setid =     138 xmoment=   0.0000E+00 ymoment=   0.0000E+00 zmoment=   0.0000E+00
 nd#     139  xforce=   0.0000E+00   yforce=   0.0000E+00  zforce=  -1.6048E+02   energy=   1.2659E-02   setid =     139 xmoment=   0.0000E+00 ymoment=   0.0000E+00 zmoment=   0.0000E+00
 nd#     140  xforce=   0.0000E+00   yforce=   0.0000E+00  zforce=  -1.0460E+02   energy=   8.4089E-03   setid =     140 xmoment=   0.0000E+00 ymoment=   0.0000E+00 zmoment=   0.0000E+00
 nd#     162  xforce=   0.0000E+00   yforce=   0.0000E+00  zforce=  -5.0640E+01   energy=   5.1882E-03   setid =     162 xmoment=   0.0000E+00 ymoment=   0.0000E+00 zmoment=   0.0000E+00
 nd#     163  xforce=   0.0000E+00   yforce=   0.0000E+00  zforce=   9.5231E+01   energy=  -1.6086E-03   setid =     163 xmoment=   0.0000E+00 ymoment=   0.0000E+00 zmoment=   0.0000E+00
 nd#     164  xforce=   0.0000E+00   yforce=   0.0000E+00  zforce=  -1.1640E+02   energy=   8.3736E-03   setid =     164 xmoment=   0.0000E+00 ymoment=   0.0000E+00 zmoment=   0.0000E+00
 nd#     179  xforce=   0.0000E+00   yforce=   0.0000E+00  zforce=   6.9211E+01   energy=  -4.0114E-03   setid =     179 xmoment=   0.0000E+00 ymoment=   0.0000E+00 zmoment=   0.0000E+00
 nd#     180  xforce=   0.0000E+00   yforce=   0.0000E+00  zforce=  -7.8568E+01   energy=   5.7810E-03   setid =     180 xmoment=   0.0000E+00 ymoment=   0.0000E+00 zmoment=   0.0000E+00
 nd#     188  xforce=   0.0000E+00   yforce=   0.0000E+00  zforce=  -5.0512E+01   energy=   4.9515E-03   setid =     188 xmoment=   0.0000E+00 ymoment=   0.0000E+00 zmoment=   0.0000E+00
 nd#     210  xforce=   0.0000E+00   yforce=   0.0000E+00  zforce=  -1.4770E+02   energy=   1.1747E-02   setid =     210 xmoment=   0.0000E+00 ymoment=   0.0000E+00 zmoment=   0.0000E+00
 nd#     211  xforce=   0.0000E+00   yforce=   0.0000E+00  zforce=   4.6983E+01   energy=  -4.8013E-03   setid =     211 xmoment=   0.0000E+00 ymoment=   0.0000E+00 zmoment=   0.0000E+00
 nd#     212  xforce=   0.0000E+00   yforce=   0.0000E+00  zforce=  -1.2652E+02   energy=   1.2577E-02   setid =     212 xmoment=   0.0000E+00 ymoment=   0.0000E+00 zmoment=   0.0000E+00
 nd#     220  xforce=   0.0000E+00   yforce=   0.0000E+00  zforce=  -1.4542E+02   energy=   1.0798E-02   setid =     220 xmoment=   0.0000E+00 ymoment=   0.0000E+00 zmoment=   0.0000E+00
 nd#     228  xforce=   0.0000E+00   yforce=   0.0000E+00  zforce=  -8.6577E+01   energy=   6.7056E-03   setid =     228 xmoment=   0.0000E+00 ymoment=   0.0000E+00 zmoment=   0.0000E+00
 nd#     787  xforce=   0.0000E+00   yforce=   0.0000E+00  zforce=  -7.7959E+01   energy=   6.0927E-03   setid =     787 xmoment=   0.0000E+00 ymoment=   0.0000E+00 zmoment=   0.0000E+00
 nd#     788  xforce=   0.0000E+00   yforce=   0.0000E+00  zforce=  -6.9847E+01   energy=   5.3572E-03   setid =     788 xmoment=   0.0000E+00 ymoment=   0.0000E+00 zmoment=   0.0000E+00
 nd#     789  xforce=   0.0000E+00   yforce=   0.0000E+00  zforce=  -5.9959E+01   energy=   4.4478E-03   setid =     789 xmoment=   0.0000E+00 ymoment=   0.0000E+00 zmoment=   0.0000E+00
 nd#     790  xforce=   0.0000E+00   yforce=   0.0000E+00  zforce=  -4.9224E+01   energy=   3.4527E-03   setid =     790 xmoment=   0.0000E+00 ymoment=   0.0000E+00 zmoment=   0.0000E+00
 nd#     791  xforce=   0.0000E+00   yforce=   0.0000E+00  zforce=  -3.6788E+01   energy=   2.5532E-03   setid =     791 xmoment=   0.0000E+00 ymoment=   0.0000E+00 zmoment=   0.0000E+00
 nd#     792  xforce=   0.0000E+00   yforce=   0.0000E+00  zforce=  -2.6033E+01   energy=   1.7872E-03   setid =     792 xmoment=   0.0000E+00 ymoment=   0.0000E+00 zmoment=   0.0000E+00
 nd#     793  xforce=   0.0000E+00   yforce=   0.0000E+00  zforce=  -1.0240E+01   energy=   6.3997E-04   setid =     793 xmoment=   0.0000E+00 ymoment=   0.0000E+00 zmoment=   0.0000E+00
 nd#     794  xforce=   0.0000E+00   yforce=   0.0000E+00  zforce=  -4.4819E+00   energy=   4.2685E-04   setid =     794 xmoment=   0.0000E+00 ymoment=   0.0000E+00 zmoment=   0.0000E+00
 nd#     955  xforce=   0.0000E+00   yforce=   0.0000E+00  zforce=  -3.7738E+01   energy=   3.1795E-03   setid =     955 xmoment=   0.0000E+00 ymoment=   0.0000E+00 zmoment=   0.0000E+00
 nd#     956  xforce=   0.0000E+00   yforce=   0.0000E+00  zforce=  -2.7560E+01   energy=   2.2062E-03   setid =     956 xmoment=   0.0000E+00 ymoment=   0.0000E+00 zmoment=   0.0000E+00
 nd#     957  xforce=   0.0000E+00   yforce=   0.0000E+00  zforce=  -6.9926E+01   energy=   5.1804E-03   setid =     957 xmoment=   0.0000E+00 ymoment=   0.0000E+00 zmoment=   0.0000E+00
 nd#     958  xforce=   0.0000E+00   yforce=   0.0000E+00  zforce=  -5.6652E+01   energy=   4.0018E-03   setid =     958 xmoment=   0.0000E+00 ymoment=   0.0000E+00 zmoment=   0.0000E+00
 nd#     959  xforce=   0.0000E+00   yforce=   0.0000E+00  zforce=  -3.5979E+01   energy=   2.9984E-03   setid =     959 xmoment=   0.0000E+00 ymoment=   0.0000E+00 zmoment=   0.0000E+00
 nd#     960  xforce=   0.0000E+00   yforce=   0.0000E+00  zforce=  -3.4287E+01   energy=   2.5953E-03   setid =     960 xmoment=   0.0000E+00 ymoment=   0.0000E+00 zmoment=   0.0000E+00
 nd#     961  xforce=   0.0000E+00   yforce=   0.0000E+00  zforce=  -4.3129E+01   energy=   3.3784E-03   setid =     961 xmoment=   0.0000E+00 ymoment=   0.0000E+00 zmoment=   0.0000E+00
 nd#     962  xforce=   0.0000E+00   yforce=   0.0000E+00  zforce=  -3.8099E+01   energy=   2.8548E-03   setid =     962 xmoment=   0.0000E+00 ymoment=   0.0000E+00 zmoment=   0.0000E+00
 nd#     975  xforce=   0.0000E+00   yforce=   0.0000E+00  zforce=  -7.8053E+00   energy=   3.1839E-04   setid =     975 xmoment=   0.0000E+00 ymoment=   0.0000E+00 zmoment=   0.0000E+00
 nd#     977  xforce=   0.0000E+00   yforce=   0.0000E+00  zforce=   4.2449E+01   energy=  -2.8039E-03   setid =     977 xmoment=   0.0000E+00 ymoment=   0.0000E+00 zmoment=   0.0000E+00
 nd#     978  xforce=   0.0000E+00   yforce=   0.0000E+00  zforce=  -2.0485E+01   energy=   1.1283E-03   setid =     978 xmoment=   0.0000E+00 ymoment=   0.0000E+00 zmoment=   0.0000E+00
 nd#     980  xforce=   0.0000E+00   yforce=   0.0000E+00  zforce=   1.1920E+01   energy=  -8.3694E-04   setid =     980 xmoment=   0.0000E+00 ymoment=   0.0000E+00 zmoment=   0.0000E+00
 nd#     981  xforce=   0.0000E+00   yforce=   0.0000E+00  zforce=  -1.6074E+01   energy=   9.0807E-04   setid =     981 xmoment=   0.0000E+00 ymoment=   0.0000E+00 zmoment=   0.0000E+00
 nd#     983  xforce=   0.0000E+00   yforce=   0.0000E+00  zforce=   1.2230E+01   energy=  -9.0885E-04   setid =     983 xmoment=   0.0000E+00 ymoment=   0.0000E+00 zmoment=   0.0000E+00
 nd#     984  xforce=   0.0000E+00   yforce=   0.0000E+00  zforce=  -2.4199E+01   energy=   1.6686E-03   setid =     984 xmoment=   0.0000E+00 ymoment=   0.0000E+00 zmoment=   0.0000E+00
 nd#     986  xforce=   0.0000E+00   yforce=   0.0000E+00  zforce=  -3.8953E+00   energy=   2.5580E-04   setid =     986 xmoment=   0.0000E+00 ymoment=   0.0000E+00 zmoment=   0.0000E+00
 nd#    1059  xforce=   0.0000E+00   yforce=   0.0000E+00  zforce=  -4.6715E+01   energy=   4.2231E-03   setid =    1059 xmoment=   0.0000E+00 ymoment=   0.0000E+00 zmoment=   0.0000E+00
 nd#    1061  xforce=   0.0000E+00   yforce=   0.0000E+00  zforce=  -8.8794E+01   energy=   6.7406E-03   setid =    1061 xmoment=   0.0000E+00 ymoment=   0.0000E+00 zmoment=   0.0000E+00
 nd#    1063  xforce=   0.0000E+00   yforce=   0.0000E+00  zforce=  -4.4331E+01   energy=   3.5628E-03   setid =    1063 xmoment=   0.0000E+00 ymoment=   0.0000E+00 zmoment=   0.0000E+00
 nd#    1065  xforce=   0.0000E+00   yforce=   0.0000E+00  zforce=  -5.1278E+01   energy=   4.0313E-03   setid =    1065 xmoment=   0.0000E+00 ymoment=   0.0000E+00 zmoment=   0.0000E+00
 nd#    1071  xforce=   0.0000E+00   yforce=   0.0000E+00  zforce=  -2.0397E+01   energy=   1.4172E-03   setid =    1071 xmoment=   0.0000E+00 ymoment=   0.0000E+00 zmoment=   0.0000E+00
 nd#    1072  xforce=   0.0000E+00   yforce=   0.0000E+00  zforce=  -4.4891E+01   energy=   3.0306E-03   setid =    1072 xmoment=   0.0000E+00 ymoment=   0.0000E+00 zmoment=   0.0000E+00
 nd#    1073  xforce=   0.0000E+00   yforce=   0.0000E+00  zforce=  -2.8653E+01   energy=   2.0229E-03   setid =    1073 xmoment=   0.0000E+00 ymoment=   0.0000E+00 zmoment=   0.0000E+00
 nd#    1074  xforce=   0.0000E+00   yforce=   0.0000E+00  zforce=  -3.2664E+01   energy=   2.3856E-03   setid =    1074 xmoment=   0.0000E+00 ymoment=   0.0000E+00 zmoment=   0.0000E+00
 nd#    1111  xforce=   0.0000E+00   yforce=   0.0000E+00  zforce=  -5.9193E+01   energy=   5.4489E-03   setid =    1111 xmoment=   0.0000E+00 ymoment=   0.0000E+00 zmoment=   0.0000E+00
 nd#    1112  xforce=   0.0000E+00   yforce=   0.0000E+00  zforce=  -1.0909E+02   energy=   8.6208E-03   setid =    1112 xmoment=   0.0000E+00 ymoment=   0.0000E+00 zmoment=   0.0000E+00
 nd#    1113  xforce=   0.0000E+00   yforce=   0.0000E+00  zforce=  -5.3925E+01   energy=   4.4779E-03   setid =    1113 xmoment=   0.0000E+00 ymoment=   0.0000E+00 zmoment=   0.0000E+00
 nd#    1114  xforce=   0.0000E+00   yforce=   0.0000E+00  zforce=  -6.1326E+01   energy=   4.9502E-03   setid =    1114 xmoment=   0.0000E+00 ymoment=   0.0000E+00 zmoment=   0.0000E+00
 nd#    1135  xforce=   0.0000E+00   yforce=   0.0000E+00  zforce=  -6.7896E+01   energy=   6.4388E-03   setid =    1135 xmoment=   0.0000E+00 ymoment=   0.0000E+00 zmoment=   0.0000E+00
 nd#    1136  xforce=   0.0000E+00   yforce=   0.0000E+00  zforce=  -1.3552E+02   energy=   1.0778E-02   setid =    1136 xmoment=   0.0000E+00 ymoment=   0.0000E+00 zmoment=   0.0000E+00
 nd#    1137  xforce=   0.0000E+00   yforce=   0.0000E+00  zforce=  -6.2210E+01   energy=   5.3731E-03   setid =    1137 xmoment=   0.0000E+00 ymoment=   0.0000E+00 zmoment=   0.0000E+00
 nd#    1138  xforce=   0.0000E+00   yforce=   0.0000E+00  zforce=  -7.4981E+01   energy=   6.1691E-03   setid =    1138 xmoment=   0.0000E+00 ymoment=   0.0000E+00 zmoment=   0.0000E+00
              xtotal=   0.0000E+00   ytotal=   0.0000E+00  ztotal=  -3.1263E+03   etotal=   2.5884E-01
