 LS-DYNA keyword deck by LS-PrePost                                      
                    ls-dyna smp d R14 R14.1.1s_1_ef50e1 date 06/16/2024

{BEGIN LEGEND}
 Entity #        Title
        1                                                                                     
        2                                                                                     
        3                                                                                     
        4                                                                                     
        5                                                                                     
        6                                                                                     
        7                                                                                     
        8                                                                                     
        9                                                                                     
       10                                                                                     
       11                                                                                     
       12                                                                                     
       13                                                                                     
       14                                                                                     
       15                                                                                     
       16                                                                                     
       17                                                                                     
       18                                                                                     
       19                                                                                     
      105                                                                                     
      106                                                                                     
      107                                                                                     
      108                                                                                     
      137                                                                                     
      138                                                                                     
      139                                                                                     
      140                                                                                     
      162                                                                                     
      163                                                                                     
      164                                                                                     
      179                                                                                     
      180                                                                                     
      188                                                                                     
      210                                                                                     
      211                                                                                     
      212                                                                                     
      220                                                                                     
      228                                                                                     
      787                                                                                     
      788                                                                                     
      789                                                                                     
      790                                                                                     
      791                                                                                     
      792                                                                                     
      793                                                                                     
      794                                                                                     
      955                                                                                     
      956                                                                                     
      957                                                                                     
      958                                                                                     
      959                                                                                     
      960                                                                                     
      961                                                                                     
      962                                                                                     
      975                                                                                     
      977                                                                                     
      978                                                                                     
      980                                                                                     
      981                                                                                     
      983                                                                                     
      984                                                                                     
      986                                                                                     
     1059                                                                                     
     1061                                                                                     
     1063                                                                                     
     1065                                                                                     
     1071                                                                                     
     1072                                                                                     
     1073                                                                                     
     1074                                                                                     
     1111                                                                                     
     1112                                                                                     
     1113                                                                                     
     1114                                                                                     
     1135                                                                                     
     1136                                                                                     
     1137                                                                                     
     1138                                                                                     
{END LEGEND}




 n o d a l   p r i n t   o u t   f o r   t i m e  s t e p       1                              ( at time 0.0000000E+00 )

 nodal point  x-disp     y-disp      z-disp      x-vel       y-vel       z-vel      x-accl      y-accl      z-accl      x-coor      y-coor      z-coor
        1  0.00000E+00 0.00000E+00 0.00000E+00 0.00000E+00 0.00000E+00 0.00000E+00 0.00000E+00 0.00000E+00 0.00000E+00 3.17500E-03 0.00000E+00-8.88000E-19
        2  0.00000E+00 0.00000E+00 0.00000E+00 0.00000E+00 0.00000E+00 0.00000E+00 0.00000E+00 0.00000E+00 0.00000E+00 2.38130E-03 0.00000E+00 0.00000E+00
        3  0.00000E+00 0.00000E+00 0.00000E+00 0.00000E+00 0.00000E+00 0.00000E+00 0.00000E+00 0.00000E+00 0.00000E+00 1.58750E-03 0.00000E+00 0.00000E+00
        4  0.00000E+00 0.00000E+00 0.00000E+00 0.00000E+00 0.00000E+00 0.00000E+00 0.00000E+00 0.00000E+00 0.00000E+00 7.93750E-04 0.00000E+00 0.00000E+00
        5  0.00000E+00 0.00000E+00 0.00000E+00 0.00000E+00 0.00000E+00 0.00000E+00 0.00000E+00 0.00000E+00 0.00000E+00 0.00000E+00 0.00000E+00 0.00000E+00
        6  0.00000E+00 0.00000E+00 0.00000E+00 0.00000E+00 0.00000E+00 0.00000E+00 0.00000E+00 0.00000E+00 0.00000E+00 4.86000E-20 7.93750E-04 0.00000E+00
        7  0.00000E+00 0.00000E+00 0.00000E+00 0.00000E+00 0.00000E+00 0.00000E+00 0.00000E+00 0.00000E+00 0.00000E+00 9.72100E-20 1.58750E-03 0.00000E+00
        8  0.00000E+00 0.00000E+00 0.00000E+00 0.00000E+00 0.00000E+00 0.00000E+00 0.00000E+00 0.00000E+00 0.00000E+00 1.45800E-19 2.38130E-03 0.00000E+00
        9  0.00000E+00 0.00000E+00 0.00000E+00 0.00000E+00 0.00000E+00 0.00000E+00 0.00000E+00 0.00000E+00 0.00000E+00 1.94400E-19 3.17500E-03 0.00000E+00
       10  0.00000E+00 0.00000E+00 0.00000E+00 0.00000E+00 0.00000E+00 0.00000E+00 0.00000E+00 0.00000E+00 0.00000E+00 1.21500E-03 2.93330E-03 0.00000E+00
       11  0.00000E+00 0.00000E+00 0.00000E+00 0.00000E+00 0.00000E+00 0.00000E+00 0.00000E+00 0.00000E+00 0.00000E+00 2.24510E-03 2.24510E-03 0.00000E+00
       12  0.00000E+00 0.00000E+00 0.00000E+00 0.00000E+00 0.00000E+00 0.00000E+00 0.00000E+00 0.00000E+00 0.00000E+00 2.93330E-03 1.21500E-03 0.00000E+00
       13  0.00000E+00 0.00000E+00 0.00000E+00 0.00000E+00 0.00000E+00 0.00000E+00 0.00000E+00 0.00000E+00 0.00000E+00 1.30830E-03 1.35190E-03 0.00000E+00
       14  0.00000E+00 0.00000E+00 0.00000E+00 0.00000E+00 0.00000E+00 0.00000E+00 0.00000E+00 0.00000E+00 0.00000E+00 1.48830E-03 7.06977E-04 0.00000E+00
       15  0.00000E+00 0.00000E+00 0.00000E+00 0.00000E+00 0.00000E+00 0.00000E+00 0.00000E+00 0.00000E+00 0.00000E+00 6.69510E-04 1.50700E-03 0.00000E+00
       16  0.00000E+00 0.00000E+00 0.00000E+00 0.00000E+00 0.00000E+00 0.00000E+00 0.00000E+00 0.00000E+00 0.00000E+00 7.53638E-04 7.82337E-04 0.00000E+00
       17  0.00000E+00 0.00000E+00 0.00000E+00 0.00000E+00 0.00000E+00 0.00000E+00 0.00000E+00 0.00000E+00 0.00000E+00 1.73630E-03 1.76750E-03 0.00000E+00
       18  0.00000E+00 0.00000E+00 0.00000E+00 0.00000E+00 0.00000E+00 0.00000E+00 0.00000E+00 0.00000E+00 0.00000E+00 9.20131E-04 2.19110E-03 0.00000E+00
       19  0.00000E+00 0.00000E+00 0.00000E+00 0.00000E+00 0.00000E+00 0.00000E+00 0.00000E+00 0.00000E+00 0.00000E+00 2.16330E-03 9.50859E-04 0.00000E+00
      105  0.00000E+00 0.00000E+00 0.00000E+00 0.00000E+00 0.00000E+00 0.00000E+00 0.00000E+00 0.00000E+00 0.00000E+00 1.28740E-03 3.06620E-03 1.01600E-02
      106  0.00000E+00 0.00000E+00 0.00000E+00 0.00000E+00 0.00000E+00 0.00000E+00 0.00000E+00 0.00000E+00 0.00000E+00 2.43000E-03 2.47360E-03 1.01600E-02
      107  0.00000E+00 0.00000E+00 0.00000E+00 0.00000E+00 0.00000E+00 0.00000E+00 0.00000E+00 0.00000E+00 0.00000E+00 3.14300E-03 3.14320E-03 1.01600E-02
      108  0.00000E+00 0.00000E+00 0.00000E+00 0.00000E+00 0.00000E+00 0.00000E+00 0.00000E+00 0.00000E+00 0.00000E+00 1.70080E-03 4.10680E-03 1.01600E-02
      137  0.00000E+00 0.00000E+00 0.00000E+00 0.00000E+00 0.00000E+00 0.00000E+00 0.00000E+00 0.00000E+00 0.00000E+00 4.10670E-03 1.70080E-03 1.01600E-02
      138  0.00000E+00 0.00000E+00 0.00000E+00 0.00000E+00 0.00000E+00 0.00000E+00 0.00000E+00 0.00000E+00 0.00000E+00 3.02720E-03 1.33050E-03 1.01600E-02
      139  0.00000E+00 0.00000E+00 0.00000E+00 0.00000E+00 0.00000E+00 0.00000E+00 0.00000E+00 0.00000E+00 0.00000E+00 3.33380E-03 0.00000E+00 1.01600E-02
      140  0.00000E+00 0.00000E+00 0.00000E+00 0.00000E+00 0.00000E+00 0.00000E+00 0.00000E+00 0.00000E+00 0.00000E+00 4.44500E-03 0.00000E+00 1.01600E-02
      162  0.00000E+00 0.00000E+00 0.00000E+00 0.00000E+00 0.00000E+00 0.00000E+00 0.00000E+00 0.00000E+00 0.00000E+00 1.36100E-19 2.22250E-03 1.01600E-02
      163  0.00000E+00 0.00000E+00 0.00000E+00 0.00000E+00 0.00000E+00 0.00000E+00 0.00000E+00 0.00000E+00 0.00000E+00 9.36731E-04 2.10870E-03 1.01600E-02
      164  0.00000E+00 0.00000E+00 0.00000E+00 0.00000E+00 0.00000E+00 0.00000E+00 0.00000E+00 0.00000E+00 0.00000E+00 2.04100E-19 3.33380E-03 1.01600E-02
      179  0.00000E+00 0.00000E+00 0.00000E+00 0.00000E+00 0.00000E+00 0.00000E+00 0.00000E+00 0.00000E+00 0.00000E+00 1.05430E-03 1.09450E-03 1.01600E-02
      180  0.00000E+00 0.00000E+00 0.00000E+00 0.00000E+00 0.00000E+00 0.00000E+00 0.00000E+00 0.00000E+00 0.00000E+00 6.80400E-20 1.11130E-03 1.01600E-02
      188  0.00000E+00 0.00000E+00 0.00000E+00 0.00000E+00 0.00000E+00 0.00000E+00 0.00000E+00 0.00000E+00 0.00000E+00 1.83090E-03 1.89190E-03 1.01600E-02
      210  0.00000E+00 0.00000E+00 0.00000E+00 0.00000E+00 0.00000E+00 0.00000E+00 0.00000E+00 0.00000E+00 0.00000E+00 2.22250E-03 0.00000E+00 1.01600E-02
      211  0.00000E+00 0.00000E+00 0.00000E+00 0.00000E+00 0.00000E+00 0.00000E+00 0.00000E+00 0.00000E+00 0.00000E+00 2.08260E-03 9.89152E-04 1.01600E-02
      212  0.00000E+00 0.00000E+00 0.00000E+00 0.00000E+00 0.00000E+00 0.00000E+00 0.00000E+00 0.00000E+00 0.00000E+00 1.11130E-03 0.00000E+00 1.01600E-02
      220  0.00000E+00 0.00000E+00 0.00000E+00 0.00000E+00 0.00000E+00 0.00000E+00 0.00000E+00 0.00000E+00 0.00000E+00 0.00000E+00 0.00000E+00 1.01600E-02
      228  0.00000E+00 0.00000E+00 0.00000E+00 0.00000E+00 0.00000E+00 0.00000E+00 0.00000E+00 0.00000E+00 0.00000E+00 2.72200E-19 4.44500E-03 1.01600E-02
      787  0.00000E+00 0.00000E+00 0.00000E+00 0.00000E+00 0.00000E+00 0.00000E+00 0.00000E+00 0.00000E+00 0.00000E+00 3.35400E-19 5.47690E-03 1.01600E-02
      788  0.00000E+00 0.00000E+00 0.00000E+00 0.00000E+00 0.00000E+00 0.00000E+00 0.00000E+00 0.00000E+00 0.00000E+00 3.98500E-19 6.50880E-03 1.01600E-02
      789  0.00000E+00 0.00000E+00 0.00000E+00 0.00000E+00 0.00000E+00 0.00000E+00 0.00000E+00 0.00000E+00 0.00000E+00 4.61700E-19 7.54060E-03 1.01600E-02
      790  0.00000E+00 0.00000E+00 0.00000E+00 0.00000E+00 0.00000E+00 0.00000E+00 0.00000E+00 0.00000E+00 0.00000E+00 5.24900E-19 8.57250E-03 1.01600E-02
      791  0.00000E+00 0.00000E+00 0.00000E+00 0.00000E+00 0.00000E+00 0.00000E+00 0.00000E+00 0.00000E+00 0.00000E+00 5.88100E-19 9.60440E-03 1.01600E-02
      792  0.00000E+00 0.00000E+00 0.00000E+00 0.00000E+00 0.00000E+00 0.00000E+00 0.00000E+00 0.00000E+00 0.00000E+00 6.51300E-19 1.06363E-02 1.01600E-02
      793  0.00000E+00 0.00000E+00 0.00000E+00 0.00000E+00 0.00000E+00 0.00000E+00 0.00000E+00 0.00000E+00 0.00000E+00 7.14500E-19 1.16681E-02 1.01600E-02
      794  0.00000E+00 0.00000E+00 0.00000E+00 0.00000E+00 0.00000E+00 0.00000E+00 0.00000E+00 0.00000E+00 0.00000E+00 7.77700E-19 1.27000E-02 1.01600E-02
      955  0.00000E+00 0.00000E+00 0.00000E+00 0.00000E+00 0.00000E+00 0.00000E+00 0.00000E+00 0.00000E+00 0.00000E+00 3.24950E-03 7.93270E-03 1.01600E-02
      956  0.00000E+00 0.00000E+00 0.00000E+00 0.00000E+00 0.00000E+00 0.00000E+00 0.00000E+00 0.00000E+00 0.00000E+00 3.63660E-03 8.88920E-03 1.01600E-02
      957  0.00000E+00 0.00000E+00 0.00000E+00 0.00000E+00 0.00000E+00 0.00000E+00 0.00000E+00 0.00000E+00 0.00000E+00 6.06600E-03 6.05740E-03 1.01600E-02
      958  0.00000E+00 0.00000E+00 0.00000E+00 0.00000E+00 0.00000E+00 0.00000E+00 0.00000E+00 0.00000E+00 0.00000E+00 6.79670E-03 6.78600E-03 1.01600E-02
      959  0.00000E+00 0.00000E+00 0.00000E+00 0.00000E+00 0.00000E+00 0.00000E+00 0.00000E+00 0.00000E+00 0.00000E+00 7.92980E-03 3.25680E-03 1.01600E-02
      960  0.00000E+00 0.00000E+00 0.00000E+00 0.00000E+00 0.00000E+00 0.00000E+00 0.00000E+00 0.00000E+00 0.00000E+00 8.88550E-03 3.64580E-03 1.01600E-02
      961  0.00000E+00 0.00000E+00 0.00000E+00 0.00000E+00 0.00000E+00 0.00000E+00 0.00000E+00 0.00000E+00 0.00000E+00 8.57250E-03 0.00000E+00 1.01600E-02
      962  0.00000E+00 0.00000E+00 0.00000E+00 0.00000E+00 0.00000E+00 0.00000E+00 0.00000E+00 0.00000E+00 0.00000E+00 9.60440E-03 0.00000E+00 1.01600E-02
      975  0.00000E+00 0.00000E+00 0.00000E+00 0.00000E+00 0.00000E+00 0.00000E+00 0.00000E+00 0.00000E+00 0.00000E+00 4.41090E-03 1.08023E-02 1.01600E-02
      977  0.00000E+00 0.00000E+00 0.00000E+00 0.00000E+00 0.00000E+00 0.00000E+00 0.00000E+00 0.00000E+00 0.00000E+00 4.79810E-03 1.17588E-02 1.01600E-02
      978  0.00000E+00 0.00000E+00 0.00000E+00 0.00000E+00 0.00000E+00 0.00000E+00 0.00000E+00 0.00000E+00 0.00000E+00 8.25800E-03 8.24320E-03 1.01600E-02
      980  0.00000E+00 0.00000E+00 0.00000E+00 0.00000E+00 0.00000E+00 0.00000E+00 0.00000E+00 0.00000E+00 0.00000E+00 8.98870E-03 8.97180E-03 1.01600E-02
      981  0.00000E+00 0.00000E+00 0.00000E+00 0.00000E+00 0.00000E+00 0.00000E+00 0.00000E+00 0.00000E+00 0.00000E+00 1.07969E-02 4.42390E-03 1.01600E-02
      983  0.00000E+00 0.00000E+00 0.00000E+00 0.00000E+00 0.00000E+00 0.00000E+00 0.00000E+00 0.00000E+00 0.00000E+00 1.17527E-02 4.81300E-03 1.01600E-02
      984  0.00000E+00 0.00000E+00 0.00000E+00 0.00000E+00 0.00000E+00 0.00000E+00 0.00000E+00 0.00000E+00 0.00000E+00 1.16681E-02 0.00000E+00 1.01600E-02
      986  0.00000E+00 0.00000E+00 0.00000E+00 0.00000E+00 0.00000E+00 0.00000E+00 0.00000E+00 0.00000E+00 0.00000E+00 1.27000E-02 0.00000E+00 1.01600E-02
     1059  0.00000E+00 0.00000E+00 0.00000E+00 0.00000E+00 0.00000E+00 0.00000E+00 0.00000E+00 0.00000E+00 0.00000E+00 2.86230E-03 6.97620E-03 1.01600E-02
     1061  0.00000E+00 0.00000E+00 0.00000E+00 0.00000E+00 0.00000E+00 0.00000E+00 0.00000E+00 0.00000E+00 0.00000E+00 5.33520E-03 5.32880E-03 1.01600E-02
     1063  0.00000E+00 0.00000E+00 0.00000E+00 0.00000E+00 0.00000E+00 0.00000E+00 0.00000E+00 0.00000E+00 0.00000E+00 6.97400E-03 2.86770E-03 1.01600E-02
     1065  0.00000E+00 0.00000E+00 0.00000E+00 0.00000E+00 0.00000E+00 0.00000E+00 0.00000E+00 0.00000E+00 0.00000E+00 7.54060E-03 0.00000E+00 1.01600E-02
     1071  0.00000E+00 0.00000E+00 0.00000E+00 0.00000E+00 0.00000E+00 0.00000E+00 0.00000E+00 0.00000E+00 0.00000E+00 4.02380E-03 9.84570E-03 1.01600E-02
     1072  0.00000E+00 0.00000E+00 0.00000E+00 0.00000E+00 0.00000E+00 0.00000E+00 0.00000E+00 0.00000E+00 0.00000E+00 7.52740E-03 7.51460E-03 1.01600E-02
     1073  0.00000E+00 0.00000E+00 0.00000E+00 0.00000E+00 0.00000E+00 0.00000E+00 0.00000E+00 0.00000E+00 0.00000E+00 9.84120E-03 4.03480E-03 1.01600E-02
     1074  0.00000E+00 0.00000E+00 0.00000E+00 0.00000E+00 0.00000E+00 0.00000E+00 0.00000E+00 0.00000E+00 0.00000E+00 1.06363E-02 0.00000E+00 1.01600E-02
     1111  0.00000E+00 0.00000E+00 0.00000E+00 0.00000E+00 0.00000E+00 0.00000E+00 0.00000E+00 0.00000E+00 0.00000E+00 2.47510E-03 6.01970E-03 1.01600E-02
     1112  0.00000E+00 0.00000E+00 0.00000E+00 0.00000E+00 0.00000E+00 0.00000E+00 0.00000E+00 0.00000E+00 0.00000E+00 4.60450E-03 4.60030E-03 1.01600E-02
     1113  0.00000E+00 0.00000E+00 0.00000E+00 0.00000E+00 0.00000E+00 0.00000E+00 0.00000E+00 0.00000E+00 0.00000E+00 6.01830E-03 2.47880E-03 1.01600E-02
     1114  0.00000E+00 0.00000E+00 0.00000E+00 0.00000E+00 0.00000E+00 0.00000E+00 0.00000E+00 0.00000E+00 0.00000E+00 6.50880E-03 0.00000E+00 1.01600E-02
     1135  0.00000E+00 0.00000E+00 0.00000E+00 0.00000E+00 0.00000E+00 0.00000E+00 0.00000E+00 0.00000E+00 0.00000E+00 2.08800E-03 5.06320E-03 1.01600E-02
     1136  0.00000E+00 0.00000E+00 0.00000E+00 0.00000E+00 0.00000E+00 0.00000E+00 0.00000E+00 0.00000E+00 0.00000E+00 3.87380E-03 3.87170E-03 1.01600E-02
     1137  0.00000E+00 0.00000E+00 0.00000E+00 0.00000E+00 0.00000E+00 0.00000E+00 0.00000E+00 0.00000E+00 0.00000E+00 5.06250E-03 2.08980E-03 1.01600E-02
     1138  0.00000E+00 0.00000E+00 0.00000E+00 0.00000E+00 0.00000E+00 0.00000E+00 0.00000E+00 0.00000E+00 0.00000E+00 5.47690E-03 0.00000E+00 1.01600E-02



 n o d a l   p r i n t   o u t   f o r   t i m e  s t e p       6                              ( at time 2.5000000E+00 )

 nodal point  x-disp     y-disp      z-disp      x-vel       y-vel       z-vel      x-accl      y-accl      z-accl      x-coor      y-coor      z-coor
        1  3.19911E-07 0.00000E+00 0.00000E+00 0.00000E+00 0.00000E+00 0.00000E+00 0.00000E+00 0.00000E+00 0.00000E+00 3.17532E-03 0.00000E+00-8.88000E-19
        2  1.32152E-07 0.00000E+00 0.00000E+00 0.00000E+00 0.00000E+00 0.00000E+00 0.00000E+00 0.00000E+00 0.00000E+00 2.38143E-03 0.00000E+00 0.00000E+00
        3  5.65961E-08 0.00000E+00 0.00000E+00 0.00000E+00 0.00000E+00 0.00000E+00 0.00000E+00 0.00000E+00 0.00000E+00 1.58756E-03 0.00000E+00 0.00000E+00
        4  2.19253E-08 0.00000E+00 0.00000E+00 0.00000E+00 0.00000E+00 0.00000E+00 0.00000E+00 0.00000E+00 0.00000E+00 7.93772E-04 0.00000E+00 0.00000E+00
        5  0.00000E+00 0.00000E+00 0.00000E+00 0.00000E+00 0.00000E+00 0.00000E+00 0.00000E+00 0.00000E+00 0.00000E+00 0.00000E+00 0.00000E+00 0.00000E+00
        6  0.00000E+00 1.53464E-08 0.00000E+00 0.00000E+00 0.00000E+00 0.00000E+00 0.00000E+00 0.00000E+00 0.00000E+00 4.86000E-20 7.93765E-04 0.00000E+00
        7  0.00000E+00 4.47129E-08 0.00000E+00 0.00000E+00 0.00000E+00 0.00000E+00 0.00000E+00 0.00000E+00 0.00000E+00 9.72100E-20 1.58754E-03 0.00000E+00
        8  0.00000E+00 1.34660E-07 0.00000E+00 0.00000E+00 0.00000E+00 0.00000E+00 0.00000E+00 0.00000E+00 0.00000E+00 1.45800E-19 2.38143E-03 0.00000E+00
        9  0.00000E+00 3.45477E-07 0.00000E+00 0.00000E+00 0.00000E+00 0.00000E+00 0.00000E+00 0.00000E+00 0.00000E+00 1.94400E-19 3.17535E-03 0.00000E+00
       10  1.24278E-07 3.52973E-07 0.00000E+00 0.00000E+00 0.00000E+00 0.00000E+00 0.00000E+00 0.00000E+00 0.00000E+00 1.21512E-03 2.93365E-03 0.00000E+00
       11  2.40526E-07 3.05874E-07 0.00000E+00 0.00000E+00 0.00000E+00 0.00000E+00 0.00000E+00 0.00000E+00 0.00000E+00 2.24534E-03 2.24541E-03 0.00000E+00
       12  2.91812E-07 1.68318E-07 0.00000E+00 0.00000E+00 0.00000E+00 0.00000E+00 0.00000E+00 0.00000E+00 0.00000E+00 2.93359E-03 1.21517E-03 0.00000E+00
       13  7.66400E-08 7.14120E-08 0.00000E+00 0.00000E+00 0.00000E+00 0.00000E+00 0.00000E+00 0.00000E+00 0.00000E+00 1.30838E-03 1.35197E-03 0.00000E+00
       14  5.15442E-08 2.87270E-08 0.00000E+00 0.00000E+00 0.00000E+00 0.00000E+00 0.00000E+00 0.00000E+00 0.00000E+00 1.48835E-03 7.07006E-04 0.00000E+00
       15  3.52631E-08 6.95393E-08 0.00000E+00 0.00000E+00 0.00000E+00 0.00000E+00 0.00000E+00 0.00000E+00 0.00000E+00 6.69546E-04 1.50707E-03 0.00000E+00
       16  2.23915E-08 3.07817E-08 0.00000E+00 0.00000E+00 0.00000E+00 0.00000E+00 0.00000E+00 0.00000E+00 0.00000E+00 7.53660E-04 7.82368E-04 0.00000E+00
       17  1.41625E-07 1.24540E-07 0.00000E+00 0.00000E+00 0.00000E+00 0.00000E+00 0.00000E+00 0.00000E+00 0.00000E+00 1.73644E-03 1.76762E-03 0.00000E+00
       18  7.43105E-08 1.41071E-07 0.00000E+00 0.00000E+00 0.00000E+00 0.00000E+00 0.00000E+00 0.00000E+00 0.00000E+00 9.20205E-04 2.19124E-03 0.00000E+00
       19  1.19871E-07 4.88525E-08 0.00000E+00 0.00000E+00 0.00000E+00 0.00000E+00 0.00000E+00 0.00000E+00 0.00000E+00 2.16342E-03 9.50907E-04 0.00000E+00
      105  7.58306E-08 1.74281E-07-2.50000E-06 0.00000E+00 0.00000E+00 0.00000E+00 0.00000E+00 0.00000E+00 0.00000E+00 1.28748E-03 3.06637E-03 1.01575E-02
      106  1.45554E-07 1.55188E-07-2.50000E-06 0.00000E+00 0.00000E+00 0.00000E+00 0.00000E+00 0.00000E+00 0.00000E+00 2.43015E-03 2.47376E-03 1.01575E-02
      107  1.70897E-07 1.76681E-07-2.50000E-06 0.00000E+00 0.00000E+00 0.00000E+00 0.00000E+00 0.00000E+00 0.00000E+00 3.14317E-03 3.14338E-03 1.01575E-02
      108  9.21717E-08 2.34977E-07-2.50000E-06 0.00000E+00 0.00000E+00 0.00000E+00 0.00000E+00 0.00000E+00 0.00000E+00 1.70089E-03 4.10703E-03 1.01575E-02
      137  2.25690E-07 9.75695E-08-2.50000E-06 0.00000E+00 0.00000E+00 0.00000E+00 0.00000E+00 0.00000E+00 0.00000E+00 4.10693E-03 1.70090E-03 1.01575E-02
      138  1.67544E-07 8.45309E-08-2.50000E-06 0.00000E+00 0.00000E+00 0.00000E+00 0.00000E+00 0.00000E+00 0.00000E+00 3.02737E-03 1.33058E-03 1.01575E-02
      139  2.03092E-07 0.00000E+00-2.50000E-06 0.00000E+00 0.00000E+00 0.00000E+00 0.00000E+00 0.00000E+00 0.00000E+00 3.33400E-03 0.00000E+00 1.01575E-02
      140  2.44311E-07 0.00000E+00-2.50000E-06 0.00000E+00 0.00000E+00 0.00000E+00 0.00000E+00 0.00000E+00 0.00000E+00 4.44524E-03 0.00000E+00 1.01575E-02
      162  0.00000E+00 1.50521E-07-2.50000E-06 0.00000E+00 0.00000E+00 0.00000E+00 0.00000E+00 0.00000E+00 0.00000E+00 1.36100E-19 2.22265E-03 1.01575E-02
      163  4.89627E-08 1.33179E-07-2.50000E-06 0.00000E+00 0.00000E+00 0.00000E+00 0.00000E+00 0.00000E+00 0.00000E+00 9.36780E-04 2.10883E-03 1.01575E-02
      164  0.00000E+00 2.14521E-07-2.50000E-06 0.00000E+00 0.00000E+00 0.00000E+00 0.00000E+00 0.00000E+00 0.00000E+00 2.04100E-19 3.33401E-03 1.01575E-02
      179  7.41806E-08 8.53307E-08-2.50000E-06 0.00000E+00 0.00000E+00 0.00000E+00 0.00000E+00 0.00000E+00 0.00000E+00 1.05437E-03 1.09459E-03 1.01575E-02
      180  0.00000E+00 7.91218E-08-2.50000E-06 0.00000E+00 0.00000E+00 0.00000E+00 0.00000E+00 0.00000E+00 0.00000E+00 6.80400E-20 1.11138E-03 1.01575E-02
      188  1.10503E-07 1.20948E-07-2.50000E-06 0.00000E+00 0.00000E+00 0.00000E+00 0.00000E+00 0.00000E+00 0.00000E+00 1.83101E-03 1.89202E-03 1.01575E-02
      210  1.42877E-07 0.00000E+00-2.50000E-06 0.00000E+00 0.00000E+00 0.00000E+00 0.00000E+00 0.00000E+00 0.00000E+00 2.22264E-03 0.00000E+00 1.01575E-02
      211  1.28413E-07 5.35325E-08-2.50000E-06 0.00000E+00 0.00000E+00 0.00000E+00 0.00000E+00 0.00000E+00 0.00000E+00 2.08273E-03 9.89205E-04 1.01575E-02
      212  7.53747E-08 0.00000E+00-2.50000E-06 0.00000E+00 0.00000E+00 0.00000E+00 0.00000E+00 0.00000E+00 0.00000E+00 1.11138E-03 0.00000E+00 1.01575E-02
      220  0.00000E+00 0.00000E+00-2.50000E-06 0.00000E+00 0.00000E+00 0.00000E+00 0.00000E+00 0.00000E+00 0.00000E+00 0.00000E+00 0.00000E+00 1.01575E-02
      228  0.00000E+00 2.61438E-07-2.50000E-06 0.00000E+00 0.00000E+00 0.00000E+00 0.00000E+00 0.00000E+00 0.00000E+00 2.72200E-19 4.44526E-03 1.01575E-02
      787  0.00000E+00 2.84939E-07-2.50000E-06 0.00000E+00 0.00000E+00 0.00000E+00 0.00000E+00 0.00000E+00 0.00000E+00 3.35400E-19 5.47718E-03 1.01575E-02
      788  0.00000E+00 2.97003E-07-2.50000E-06 0.00000E+00 0.00000E+00 0.00000E+00 0.00000E+00 0.00000E+00 0.00000E+00 3.98500E-19 6.50910E-03 1.01575E-02
      789  0.00000E+00 2.99182E-07-2.50000E-06 0.00000E+00 0.00000E+00 0.00000E+00 0.00000E+00 0.00000E+00 0.00000E+00 4.61700E-19 7.54090E-03 1.01575E-02
      790  0.00000E+00 2.94362E-07-2.50000E-06 0.00000E+00 0.00000E+00 0.00000E+00 0.00000E+00 0.00000E+00 0.00000E+00 5.24900E-19 8.57279E-03 1.01575E-02
      791  0.00000E+00 2.85452E-07-2.50000E-06 0.00000E+00 0.00000E+00 0.00000E+00 0.00000E+00 0.00000E+00 0.00000E+00 5.88100E-19 9.60469E-03 1.01575E-02
      792  0.00000E+00 2.74648E-07-2.50000E-06 0.00000E+00 0.00000E+00 0.00000E+00 0.00000E+00 0.00000E+00 0.00000E+00 6.51300E-19 1.06366E-02 1.01575E-02
      793  0.00000E+00 2.63199E-07-2.50000E-06 0.00000E+00 0.00000E+00 0.00000E+00 0.00000E+00 0.00000E+00 0.00000E+00 7.14500E-19 1.16684E-02 1.01575E-02
      794  0.00000E+00 2.49894E-07-2.50000E-06 0.00000E+00 0.00000E+00 0.00000E+00 0.00000E+00 0.00000E+00 0.00000E+00 7.77700E-19 1.27002E-02 1.01575E-02
      955  1.07487E-07 2.71663E-07-2.50000E-06 0.00000E+00 0.00000E+00 0.00000E+00 0.00000E+00 0.00000E+00 0.00000E+00 3.24961E-03 7.93297E-03 1.01575E-02
      956  1.04556E-07 2.64202E-07-2.50000E-06 0.00000E+00 0.00000E+00 0.00000E+00 0.00000E+00 0.00000E+00 0.00000E+00 3.63670E-03 8.88946E-03 1.01575E-02
      957  2.02742E-07 2.07730E-07-2.50000E-06 0.00000E+00 0.00000E+00 0.00000E+00 0.00000E+00 0.00000E+00 0.00000E+00 6.06620E-03 6.05761E-03 1.01575E-02
      958  1.97560E-07 2.02001E-07-2.50000E-06 0.00000E+00 0.00000E+00 0.00000E+00 0.00000E+00 0.00000E+00 0.00000E+00 6.79690E-03 6.78620E-03 1.01575E-02
      959  2.66295E-07 1.11693E-07-2.50000E-06 0.00000E+00 0.00000E+00 0.00000E+00 0.00000E+00 0.00000E+00 0.00000E+00 7.93007E-03 3.25691E-03 1.01575E-02
      960  2.60253E-07 1.07370E-07-2.50000E-06 0.00000E+00 0.00000E+00 0.00000E+00 0.00000E+00 0.00000E+00 0.00000E+00 8.88576E-03 3.64591E-03 1.01575E-02
      961  2.88455E-07 0.00000E+00-2.50000E-06 0.00000E+00 0.00000E+00 0.00000E+00 0.00000E+00 0.00000E+00 0.00000E+00 8.57279E-03 0.00000E+00 1.01575E-02
      962  2.81838E-07 0.00000E+00-2.50000E-06 0.00000E+00 0.00000E+00 0.00000E+00 0.00000E+00 0.00000E+00 0.00000E+00 9.60468E-03 0.00000E+00 1.01575E-02
      975  9.73312E-08 2.47347E-07-2.50000E-06 0.00000E+00 0.00000E+00 0.00000E+00 0.00000E+00 0.00000E+00 0.00000E+00 4.41100E-03 1.08025E-02 1.01575E-02
      977  9.34619E-08 2.39104E-07-2.50000E-06 0.00000E+00 0.00000E+00 0.00000E+00 0.00000E+00 0.00000E+00 0.00000E+00 4.79819E-03 1.17590E-02 1.01575E-02
      978  1.84605E-07 1.89295E-07-2.50000E-06 0.00000E+00 0.00000E+00 0.00000E+00 0.00000E+00 0.00000E+00 0.00000E+00 8.25818E-03 8.24339E-03 1.01575E-02
      980  1.76223E-07 1.79886E-07-2.50000E-06 0.00000E+00 0.00000E+00 0.00000E+00 0.00000E+00 0.00000E+00 0.00000E+00 8.98888E-03 8.97198E-03 1.01575E-02
      981  2.43340E-07 9.63959E-08-2.50000E-06 0.00000E+00 0.00000E+00 0.00000E+00 0.00000E+00 0.00000E+00 0.00000E+00 1.07971E-02 4.42400E-03 1.01575E-02
      983  2.32561E-07 9.24252E-08-2.50000E-06 0.00000E+00 0.00000E+00 0.00000E+00 0.00000E+00 0.00000E+00 0.00000E+00 1.17529E-02 4.81309E-03 1.01575E-02
      984  2.61448E-07 0.00000E+00-2.50000E-06 0.00000E+00 0.00000E+00 0.00000E+00 0.00000E+00 0.00000E+00 0.00000E+00 1.16684E-02 0.00000E+00 1.01575E-02
      986  2.53513E-07 0.00000E+00-2.50000E-06 0.00000E+00 0.00000E+00 0.00000E+00 0.00000E+00 0.00000E+00 0.00000E+00 1.27003E-02 0.00000E+00 1.01575E-02
     1059  1.08739E-07 2.75545E-07-2.50000E-06 0.00000E+00 0.00000E+00 0.00000E+00 0.00000E+00 0.00000E+00 0.00000E+00 2.86241E-03 6.97648E-03 1.01575E-02
     1061  2.04764E-07 2.10712E-07-2.50000E-06 0.00000E+00 0.00000E+00 0.00000E+00 0.00000E+00 0.00000E+00 0.00000E+00 5.33540E-03 5.32901E-03 1.01575E-02
     1063  2.68151E-07 1.14036E-07-2.50000E-06 0.00000E+00 0.00000E+00 0.00000E+00 0.00000E+00 0.00000E+00 0.00000E+00 6.97427E-03 2.86781E-03 1.01575E-02
     1065  2.90326E-07 0.00000E+00-2.50000E-06 0.00000E+00 0.00000E+00 0.00000E+00 0.00000E+00 0.00000E+00 0.00000E+00 7.54089E-03 0.00000E+00 1.01575E-02
     1071  1.00937E-07 2.55596E-07-2.50000E-06 0.00000E+00 0.00000E+00 0.00000E+00 0.00000E+00 0.00000E+00 0.00000E+00 4.02390E-03 9.84596E-03 1.01575E-02
     1072  1.91050E-07 1.95466E-07-2.50000E-06 0.00000E+00 0.00000E+00 0.00000E+00 0.00000E+00 0.00000E+00 0.00000E+00 7.52759E-03 7.51480E-03 1.01575E-02
     1073  2.52134E-07 1.02082E-07-2.50000E-06 0.00000E+00 0.00000E+00 0.00000E+00 0.00000E+00 0.00000E+00 0.00000E+00 9.84145E-03 4.03490E-03 1.01575E-02
     1074  2.72458E-07 0.00000E+00-2.50000E-06 0.00000E+00 0.00000E+00 0.00000E+00 0.00000E+00 0.00000E+00 0.00000E+00 1.06366E-02 0.00000E+00 1.01575E-02
     1111  1.07198E-07 2.72863E-07-2.50000E-06 0.00000E+00 0.00000E+00 0.00000E+00 0.00000E+00 0.00000E+00 0.00000E+00 2.47521E-03 6.01997E-03 1.01575E-02
     1112  2.01583E-07 2.08582E-07-2.50000E-06 0.00000E+00 0.00000E+00 0.00000E+00 0.00000E+00 0.00000E+00 0.00000E+00 4.60470E-03 4.60051E-03 1.01575E-02
     1113  2.63305E-07 1.13203E-07-2.50000E-06 0.00000E+00 0.00000E+00 0.00000E+00 0.00000E+00 0.00000E+00 0.00000E+00 6.01856E-03 2.47891E-03 1.01575E-02
     1114  2.84855E-07 0.00000E+00-2.50000E-06 0.00000E+00 0.00000E+00 0.00000E+00 0.00000E+00 0.00000E+00 0.00000E+00 6.50908E-03 0.00000E+00 1.01575E-02
     1135  1.01873E-07 2.60640E-07-2.50000E-06 0.00000E+00 0.00000E+00 0.00000E+00 0.00000E+00 0.00000E+00 0.00000E+00 2.08810E-03 5.06346E-03 1.01575E-02
     1136  1.90823E-07 1.98511E-07-2.50000E-06 0.00000E+00 0.00000E+00 0.00000E+00 0.00000E+00 0.00000E+00 0.00000E+00 3.87399E-03 3.87190E-03 1.01575E-02
     1137  2.49723E-07 1.08341E-07-2.50000E-06 0.00000E+00 0.00000E+00 0.00000E+00 0.00000E+00 0.00000E+00 0.00000E+00 5.06275E-03 2.08991E-03 1.01575E-02
     1138  2.69707E-07 0.00000E+00-2.50000E-06 0.00000E+00 0.00000E+00 0.00000E+00 0.00000E+00 0.00000E+00 0.00000E+00 5.47717E-03 0.00000E+00 1.01575E-02



 n o d a l   p r i n t   o u t   f o r   t i m e  s t e p      10                              ( at time 6.4622330E+00 )

 nodal point  x-disp     y-disp      z-disp      x-vel       y-vel       z-vel      x-accl      y-accl      z-accl      x-coor      y-coor      z-coor
        1  7.71528E-07 0.00000E+00 0.00000E+00 0.00000E+00 0.00000E+00 0.00000E+00 0.00000E+00 0.00000E+00 0.00000E+00 3.17577E-03 0.00000E+00-8.88000E-19
        2  2.93768E-07 0.00000E+00 0.00000E+00 0.00000E+00 0.00000E+00 0.00000E+00 0.00000E+00 0.00000E+00 0.00000E+00 2.38159E-03 0.00000E+00 0.00000E+00
        3  1.14298E-07 0.00000E+00 0.00000E+00 0.00000E+00 0.00000E+00 0.00000E+00 0.00000E+00 0.00000E+00 0.00000E+00 1.58761E-03 0.00000E+00 0.00000E+00
        4  4.10472E-08 0.00000E+00 0.00000E+00 0.00000E+00 0.00000E+00 0.00000E+00 0.00000E+00 0.00000E+00 0.00000E+00 7.93791E-04 0.00000E+00 0.00000E+00
        5  0.00000E+00 0.00000E+00 0.00000E+00 0.00000E+00 0.00000E+00 0.00000E+00 0.00000E+00 0.00000E+00 0.00000E+00 0.00000E+00 0.00000E+00 0.00000E+00
        6  0.00000E+00 1.46282E-08 0.00000E+00 0.00000E+00 0.00000E+00 0.00000E+00 0.00000E+00 0.00000E+00 0.00000E+00 4.86000E-20 7.93765E-04 0.00000E+00
        7  0.00000E+00 6.89308E-08 0.00000E+00 0.00000E+00 0.00000E+00 0.00000E+00 0.00000E+00 0.00000E+00 0.00000E+00 9.72100E-20 1.58757E-03 0.00000E+00
        8  0.00000E+00 3.01827E-07 0.00000E+00 0.00000E+00 0.00000E+00 0.00000E+00 0.00000E+00 0.00000E+00 0.00000E+00 1.45800E-19 2.38160E-03 0.00000E+00
        9  0.00000E+00 8.64659E-07 0.00000E+00 0.00000E+00 0.00000E+00 0.00000E+00 0.00000E+00 0.00000E+00 0.00000E+00 1.94400E-19 3.17586E-03 0.00000E+00
       10  3.23614E-07 9.37568E-07 0.00000E+00 0.00000E+00 0.00000E+00 0.00000E+00 0.00000E+00 0.00000E+00 0.00000E+00 1.21532E-03 2.93424E-03 0.00000E+00
       11  6.24102E-07 8.41385E-07 0.00000E+00 0.00000E+00 0.00000E+00 0.00000E+00 0.00000E+00 0.00000E+00 0.00000E+00 2.24572E-03 2.24594E-03 0.00000E+00
       12  7.29514E-07 4.67430E-07 0.00000E+00 0.00000E+00 0.00000E+00 0.00000E+00 0.00000E+00 0.00000E+00 0.00000E+00 2.93403E-03 1.21547E-03 0.00000E+00
       13  2.24099E-07 2.01511E-07 0.00000E+00 0.00000E+00 0.00000E+00 0.00000E+00 0.00000E+00 0.00000E+00 0.00000E+00 1.30852E-03 1.35210E-03 0.00000E+00
       14  1.26871E-07 7.91797E-08 0.00000E+00 0.00000E+00 0.00000E+00 0.00000E+00 0.00000E+00 0.00000E+00 0.00000E+00 1.48843E-03 7.07056E-04 0.00000E+00
       15  1.06945E-07 1.90948E-07 0.00000E+00 0.00000E+00 0.00000E+00 0.00000E+00 0.00000E+00 0.00000E+00 0.00000E+00 6.69617E-04 1.50719E-03 0.00000E+00
       16  5.49586E-08 8.43847E-08 0.00000E+00 0.00000E+00 0.00000E+00 0.00000E+00 0.00000E+00 0.00000E+00 0.00000E+00 7.53693E-04 7.82422E-04 0.00000E+00
       17  3.93563E-07 3.45514E-07 0.00000E+00 0.00000E+00 0.00000E+00 0.00000E+00 0.00000E+00 0.00000E+00 0.00000E+00 1.73669E-03 1.76785E-03 0.00000E+00
       18  2.11033E-07 3.81001E-07 0.00000E+00 0.00000E+00 0.00000E+00 0.00000E+00 0.00000E+00 0.00000E+00 0.00000E+00 9.20342E-04 2.19148E-03 0.00000E+00
       19  3.00229E-07 1.29464E-07 0.00000E+00 0.00000E+00 0.00000E+00 0.00000E+00 0.00000E+00 0.00000E+00 0.00000E+00 2.16360E-03 9.50988E-04 0.00000E+00
      105  1.92332E-07 4.53494E-07-6.46223E-06 0.00000E+00 0.00000E+00 0.00000E+00 0.00000E+00 0.00000E+00 0.00000E+00 1.28759E-03 3.06665E-03 1.01535E-02
      106  3.74736E-07 4.12944E-07-6.46223E-06 0.00000E+00 0.00000E+00 0.00000E+00 0.00000E+00 0.00000E+00 0.00000E+00 2.43037E-03 2.47401E-03 1.01535E-02
      107  4.38762E-07 4.69402E-07-6.46223E-06 0.00000E+00 0.00000E+00 0.00000E+00 0.00000E+00 0.00000E+00 0.00000E+00 3.14344E-03 3.14367E-03 1.01535E-02
      108  2.33722E-07 6.19056E-07-6.46223E-06 0.00000E+00 0.00000E+00 0.00000E+00 0.00000E+00 0.00000E+00 0.00000E+00 1.70103E-03 4.10742E-03 1.01535E-02
      137  5.76274E-07 2.61701E-07-6.46223E-06 0.00000E+00 0.00000E+00 0.00000E+00 0.00000E+00 0.00000E+00 0.00000E+00 4.10728E-03 1.70106E-03 1.01535E-02
      138  4.26007E-07 2.25416E-07-6.46223E-06 0.00000E+00 0.00000E+00 0.00000E+00 0.00000E+00 0.00000E+00 0.00000E+00 3.02763E-03 1.33073E-03 1.01535E-02
      139  5.19063E-07 0.00000E+00-6.46223E-06 0.00000E+00 0.00000E+00 0.00000E+00 0.00000E+00 0.00000E+00 0.00000E+00 3.33432E-03 0.00000E+00 1.01535E-02
      140  6.24032E-07 0.00000E+00-6.46223E-06 0.00000E+00 0.00000E+00 0.00000E+00 0.00000E+00 0.00000E+00 0.00000E+00 4.44562E-03 0.00000E+00 1.01535E-02
      162  0.00000E+00 4.04443E-07-6.46223E-06 0.00000E+00 0.00000E+00 0.00000E+00 0.00000E+00 0.00000E+00 0.00000E+00 1.36100E-19 2.22290E-03 1.01535E-02
      163  1.24347E-07 3.47328E-07-6.46223E-06 0.00000E+00 0.00000E+00 0.00000E+00 0.00000E+00 0.00000E+00 0.00000E+00 9.36855E-04 2.10905E-03 1.01535E-02
      164  0.00000E+00 5.73654E-07-6.46223E-06 0.00000E+00 0.00000E+00 0.00000E+00 0.00000E+00 0.00000E+00 0.00000E+00 2.04100E-19 3.33437E-03 1.01535E-02
      179  1.88271E-07 2.26542E-07-6.46223E-06 0.00000E+00 0.00000E+00 0.00000E+00 0.00000E+00 0.00000E+00 0.00000E+00 1.05449E-03 1.09473E-03 1.01535E-02
      180  0.00000E+00 2.16027E-07-6.46223E-06 0.00000E+00 0.00000E+00 0.00000E+00 0.00000E+00 0.00000E+00 0.00000E+00 6.80400E-20 1.11152E-03 1.01535E-02
      188  2.80712E-07 3.21181E-07-6.46223E-06 0.00000E+00 0.00000E+00 0.00000E+00 0.00000E+00 0.00000E+00 0.00000E+00 1.83118E-03 1.89222E-03 1.01535E-02
      210  3.62564E-07 0.00000E+00-6.46223E-06 0.00000E+00 0.00000E+00 0.00000E+00 0.00000E+00 0.00000E+00 0.00000E+00 2.22286E-03 0.00000E+00 1.01535E-02
      211  3.25618E-07 1.43658E-07-6.46223E-06 0.00000E+00 0.00000E+00 0.00000E+00 0.00000E+00 0.00000E+00 0.00000E+00 2.08293E-03 9.89295E-04 1.01535E-02
      212  1.89879E-07 0.00000E+00-6.46223E-06 0.00000E+00 0.00000E+00 0.00000E+00 0.00000E+00 0.00000E+00 0.00000E+00 1.11149E-03 0.00000E+00 1.01535E-02
      220  0.00000E+00 0.00000E+00-6.46223E-06 0.00000E+00 0.00000E+00 0.00000E+00 0.00000E+00 0.00000E+00 0.00000E+00 0.00000E+00 0.00000E+00 1.01535E-02
      228  0.00000E+00 7.00351E-07-6.46223E-06 0.00000E+00 0.00000E+00 0.00000E+00 0.00000E+00 0.00000E+00 0.00000E+00 2.72200E-19 4.44570E-03 1.01535E-02
      787  0.00000E+00 7.57792E-07-6.46223E-06 0.00000E+00 0.00000E+00 0.00000E+00 0.00000E+00 0.00000E+00 0.00000E+00 3.35400E-19 5.47766E-03 1.01535E-02
      788  0.00000E+00 7.84823E-07-6.46223E-06 0.00000E+00 0.00000E+00 0.00000E+00 0.00000E+00 0.00000E+00 0.00000E+00 3.98500E-19 6.50958E-03 1.01535E-02
      789  0.00000E+00 7.85855E-07-6.46223E-06 0.00000E+00 0.00000E+00 0.00000E+00 0.00000E+00 0.00000E+00 0.00000E+00 4.61700E-19 7.54139E-03 1.01535E-02
      790  0.00000E+00 7.69062E-07-6.46223E-06 0.00000E+00 0.00000E+00 0.00000E+00 0.00000E+00 0.00000E+00 0.00000E+00 5.24900E-19 8.57327E-03 1.01535E-02
      791  0.00000E+00 7.42352E-07-6.46223E-06 0.00000E+00 0.00000E+00 0.00000E+00 0.00000E+00 0.00000E+00 0.00000E+00 5.88100E-19 9.60514E-03 1.01535E-02
      792  0.00000E+00 7.11269E-07-6.46223E-06 0.00000E+00 0.00000E+00 0.00000E+00 0.00000E+00 0.00000E+00 0.00000E+00 6.51300E-19 1.06370E-02 1.01535E-02
      793  0.00000E+00 6.78433E-07-6.46223E-06 0.00000E+00 0.00000E+00 0.00000E+00 0.00000E+00 0.00000E+00 0.00000E+00 7.14500E-19 1.16688E-02 1.01535E-02
      794  0.00000E+00 6.39828E-07-6.46223E-06 0.00000E+00 0.00000E+00 0.00000E+00 0.00000E+00 0.00000E+00 0.00000E+00 7.77700E-19 1.27006E-02 1.01535E-02
      955  2.74871E-07 7.08127E-07-6.46223E-06 0.00000E+00 0.00000E+00 0.00000E+00 0.00000E+00 0.00000E+00 0.00000E+00 3.24977E-03 7.93341E-03 1.01535E-02
      956  2.67340E-07 6.87057E-07-6.46223E-06 0.00000E+00 0.00000E+00 0.00000E+00 0.00000E+00 0.00000E+00 0.00000E+00 3.63687E-03 8.88989E-03 1.01535E-02
      957  5.20522E-07 5.43542E-07-6.46223E-06 0.00000E+00 0.00000E+00 0.00000E+00 0.00000E+00 0.00000E+00 0.00000E+00 6.06652E-03 6.05794E-03 1.01535E-02
      958  5.07648E-07 5.27837E-07-6.46223E-06 0.00000E+00 0.00000E+00 0.00000E+00 0.00000E+00 0.00000E+00 0.00000E+00 6.79721E-03 6.78653E-03 1.01535E-02
      959  6.84225E-07 2.95317E-07-6.46223E-06 0.00000E+00 0.00000E+00 0.00000E+00 0.00000E+00 0.00000E+00 0.00000E+00 7.93048E-03 3.25710E-03 1.01535E-02
      960  6.69632E-07 2.82384E-07-6.46223E-06 0.00000E+00 0.00000E+00 0.00000E+00 0.00000E+00 0.00000E+00 0.00000E+00 8.88617E-03 3.64608E-03 1.01535E-02
      961  7.42467E-07 0.00000E+00-6.46223E-06 0.00000E+00 0.00000E+00 0.00000E+00 0.00000E+00 0.00000E+00 0.00000E+00 8.57324E-03 0.00000E+00 1.01535E-02
      962  7.26132E-07 0.00000E+00-6.46223E-06 0.00000E+00 0.00000E+00 0.00000E+00 0.00000E+00 0.00000E+00 0.00000E+00 9.60513E-03 0.00000E+00 1.01535E-02
      975  2.49103E-07 6.42964E-07-6.46223E-06 0.00000E+00 0.00000E+00 0.00000E+00 0.00000E+00 0.00000E+00 0.00000E+00 4.41115E-03 1.08029E-02 1.01535E-02
      977  2.40091E-07 6.25366E-07-6.46223E-06 0.00000E+00 0.00000E+00 0.00000E+00 0.00000E+00 0.00000E+00 0.00000E+00 4.79834E-03 1.17594E-02 1.01535E-02
      978  4.75827E-07 4.95541E-07-6.46223E-06 0.00000E+00 0.00000E+00 0.00000E+00 0.00000E+00 0.00000E+00 0.00000E+00 8.25848E-03 8.24370E-03 1.01535E-02
      980  4.52307E-07 4.67660E-07-6.46223E-06 0.00000E+00 0.00000E+00 0.00000E+00 0.00000E+00 0.00000E+00 0.00000E+00 8.98915E-03 8.97227E-03 1.01535E-02
      981  6.26581E-07 2.50226E-07-6.46223E-06 0.00000E+00 0.00000E+00 0.00000E+00 0.00000E+00 0.00000E+00 0.00000E+00 1.07975E-02 4.42415E-03 1.01535E-02
      983  5.97771E-07 2.39810E-07-6.46223E-06 0.00000E+00 0.00000E+00 0.00000E+00 0.00000E+00 0.00000E+00 0.00000E+00 1.17533E-02 4.81324E-03 1.01535E-02
      984  6.73413E-07 0.00000E+00-6.46223E-06 0.00000E+00 0.00000E+00 0.00000E+00 0.00000E+00 0.00000E+00 0.00000E+00 1.16688E-02 0.00000E+00 1.01535E-02
      986  6.54876E-07 0.00000E+00-6.46223E-06 0.00000E+00 0.00000E+00 0.00000E+00 0.00000E+00 0.00000E+00 0.00000E+00 1.27007E-02 0.00000E+00 1.01535E-02
     1059  2.78119E-07 7.20654E-07-6.46223E-06 0.00000E+00 0.00000E+00 0.00000E+00 0.00000E+00 0.00000E+00 0.00000E+00 2.86258E-03 6.97692E-03 1.01535E-02
     1061  5.25415E-07 5.52843E-07-6.46223E-06 0.00000E+00 0.00000E+00 0.00000E+00 0.00000E+00 0.00000E+00 0.00000E+00 5.33573E-03 5.32935E-03 1.01535E-02
     1063  6.87859E-07 3.02979E-07-6.46223E-06 0.00000E+00 0.00000E+00 0.00000E+00 0.00000E+00 0.00000E+00 0.00000E+00 6.97469E-03 2.86800E-03 1.01535E-02
     1065  7.46085E-07 0.00000E+00-6.46223E-06 0.00000E+00 0.00000E+00 0.00000E+00 0.00000E+00 0.00000E+00 0.00000E+00 7.54135E-03 0.00000E+00 1.01535E-02
     1071  2.58121E-07 6.63941E-07-6.46223E-06 0.00000E+00 0.00000E+00 0.00000E+00 0.00000E+00 0.00000E+00 0.00000E+00 4.02406E-03 9.84636E-03 1.01535E-02
     1072  4.91572E-07 5.10885E-07-6.46223E-06 0.00000E+00 0.00000E+00 0.00000E+00 0.00000E+00 0.00000E+00 0.00000E+00 7.52789E-03 7.51511E-03 1.01535E-02
     1073  6.49282E-07 2.66863E-07-6.46223E-06 0.00000E+00 0.00000E+00 0.00000E+00 0.00000E+00 0.00000E+00 0.00000E+00 9.84185E-03 4.03507E-03 1.01535E-02
     1074  7.02086E-07 0.00000E+00-6.46223E-06 0.00000E+00 0.00000E+00 0.00000E+00 0.00000E+00 0.00000E+00 0.00000E+00 1.06370E-02 0.00000E+00 1.01535E-02
     1111  2.74047E-07 7.16385E-07-6.46223E-06 0.00000E+00 0.00000E+00 0.00000E+00 0.00000E+00 0.00000E+00 0.00000E+00 2.47537E-03 6.02042E-03 1.01535E-02
     1112  5.17131E-07 5.49425E-07-6.46223E-06 0.00000E+00 0.00000E+00 0.00000E+00 0.00000E+00 0.00000E+00 0.00000E+00 4.60502E-03 4.60085E-03 1.01535E-02
     1113  6.74248E-07 3.02121E-07-6.46223E-06 0.00000E+00 0.00000E+00 0.00000E+00 0.00000E+00 0.00000E+00 0.00000E+00 6.01897E-03 2.47910E-03 1.01535E-02
     1114  7.30472E-07 0.00000E+00-6.46223E-06 0.00000E+00 0.00000E+00 0.00000E+00 0.00000E+00 0.00000E+00 0.00000E+00 6.50953E-03 0.00000E+00 1.01535E-02
     1135  2.59738E-07 6.86387E-07-6.46223E-06 0.00000E+00 0.00000E+00 0.00000E+00 0.00000E+00 0.00000E+00 0.00000E+00 2.08826E-03 5.06389E-03 1.01535E-02
     1136  4.89623E-07 5.25397E-07-6.46223E-06 0.00000E+00 0.00000E+00 0.00000E+00 0.00000E+00 0.00000E+00 0.00000E+00 3.87429E-03 3.87223E-03 1.01535E-02
     1137  6.38484E-07 2.90223E-07-6.46223E-06 0.00000E+00 0.00000E+00 0.00000E+00 0.00000E+00 0.00000E+00 0.00000E+00 5.06314E-03 2.09009E-03 1.01535E-02
     1138  6.89878E-07 0.00000E+00-6.46223E-06 0.00000E+00 0.00000E+00 0.00000E+00 0.00000E+00 0.00000E+00 0.00000E+00 5.47759E-03 0.00000E+00 1.01535E-02



 n o d a l   p r i n t   o u t   f o r   t i m e  s t e p      14                              ( at time 1.2741949E+01 )

 nodal point  x-disp     y-disp      z-disp      x-vel       y-vel       z-vel      x-accl      y-accl      z-accl      x-coor      y-coor      z-coor
        1  1.43067E-06 0.00000E+00 0.00000E+00 0.00000E+00 0.00000E+00 0.00000E+00 0.00000E+00 0.00000E+00 0.00000E+00 3.17643E-03 0.00000E+00-8.88000E-19
        2  4.96549E-07 0.00000E+00 0.00000E+00 0.00000E+00 0.00000E+00 0.00000E+00 0.00000E+00 0.00000E+00 0.00000E+00 2.38180E-03 0.00000E+00 0.00000E+00
        3  1.67519E-07 0.00000E+00 0.00000E+00 0.00000E+00 0.00000E+00 0.00000E+00 0.00000E+00 0.00000E+00 0.00000E+00 1.58767E-03 0.00000E+00 0.00000E+00
        4  5.28587E-08 0.00000E+00 0.00000E+00 0.00000E+00 0.00000E+00 0.00000E+00 0.00000E+00 0.00000E+00 0.00000E+00 7.93803E-04 0.00000E+00 0.00000E+00
        5  0.00000E+00 0.00000E+00 0.00000E+00 0.00000E+00 0.00000E+00 0.00000E+00 0.00000E+00 0.00000E+00 0.00000E+00 0.00000E+00 0.00000E+00 0.00000E+00
        6  0.00000E+00-1.17219E-08 0.00000E+00 0.00000E+00 0.00000E+00 0.00000E+00 0.00000E+00 0.00000E+00 0.00000E+00 4.86000E-20 7.93738E-04 0.00000E+00
        7  0.00000E+00 6.28500E-08 0.00000E+00 0.00000E+00 0.00000E+00 0.00000E+00 0.00000E+00 0.00000E+00 0.00000E+00 9.72100E-20 1.58756E-03 0.00000E+00
        8  0.00000E+00 5.19219E-07 0.00000E+00 0.00000E+00 0.00000E+00 0.00000E+00 0.00000E+00 0.00000E+00 0.00000E+00 1.45800E-19 2.38182E-03 0.00000E+00
        9  0.00000E+00 1.64916E-06 0.00000E+00 0.00000E+00 0.00000E+00 0.00000E+00 0.00000E+00 0.00000E+00 0.00000E+00 1.94400E-19 3.17665E-03 0.00000E+00
       10  6.51679E-07 1.87067E-06 0.00000E+00 0.00000E+00 0.00000E+00 0.00000E+00 0.00000E+00 0.00000E+00 0.00000E+00 1.21565E-03 2.93517E-03 0.00000E+00
       11  1.24553E-06 1.71204E-06 0.00000E+00 0.00000E+00 0.00000E+00 0.00000E+00 0.00000E+00 0.00000E+00 0.00000E+00 2.24635E-03 2.24681E-03 0.00000E+00
       12  1.42251E-06 9.60885E-07 0.00000E+00 0.00000E+00 0.00000E+00 0.00000E+00 0.00000E+00 0.00000E+00 0.00000E+00 2.93472E-03 1.21596E-03 0.00000E+00
       13  4.76801E-07 4.30084E-07 0.00000E+00 0.00000E+00 0.00000E+00 0.00000E+00 0.00000E+00 0.00000E+00 0.00000E+00 1.30878E-03 1.35233E-03 0.00000E+00
       14  2.52805E-07 1.73027E-07 0.00000E+00 0.00000E+00 0.00000E+00 0.00000E+00 0.00000E+00 0.00000E+00 0.00000E+00 1.48855E-03 7.07150E-04 0.00000E+00
       15  2.30821E-07 3.87763E-07 0.00000E+00 0.00000E+00 0.00000E+00 0.00000E+00 0.00000E+00 0.00000E+00 0.00000E+00 6.69741E-04 1.50739E-03 0.00000E+00
       16  1.09410E-07 1.70856E-07 0.00000E+00 0.00000E+00 0.00000E+00 0.00000E+00 0.00000E+00 0.00000E+00 0.00000E+00 7.53747E-04 7.82508E-04 0.00000E+00
       17  8.10378E-07 7.18848E-07 0.00000E+00 0.00000E+00 0.00000E+00 0.00000E+00 0.00000E+00 0.00000E+00 0.00000E+00 1.73711E-03 1.76822E-03 0.00000E+00
       18  4.38448E-07 7.68565E-07 0.00000E+00 0.00000E+00 0.00000E+00 0.00000E+00 0.00000E+00 0.00000E+00 0.00000E+00 9.20569E-04 2.19187E-03 0.00000E+00
       19  5.91377E-07 2.71973E-07 0.00000E+00 0.00000E+00 0.00000E+00 0.00000E+00 0.00000E+00 0.00000E+00 0.00000E+00 2.16389E-03 9.51131E-04 0.00000E+00
      105  3.73599E-07 9.01508E-07-1.27419E-05 0.00000E+00 0.00000E+00 0.00000E+00 0.00000E+00 0.00000E+00 0.00000E+00 1.28777E-03 3.06710E-03 1.01473E-02
      106  7.35730E-07 8.34382E-07-1.27419E-05 0.00000E+00 0.00000E+00 0.00000E+00 0.00000E+00 0.00000E+00 0.00000E+00 2.43074E-03 2.47443E-03 1.01473E-02
      107  8.60229E-07 9.46259E-07-1.27419E-05 0.00000E+00 0.00000E+00 0.00000E+00 0.00000E+00 0.00000E+00 0.00000E+00 3.14386E-03 3.14415E-03 1.01473E-02
      108  4.54473E-07 1.23790E-06-1.27419E-05 0.00000E+00 0.00000E+00 0.00000E+00 0.00000E+00 0.00000E+00 0.00000E+00 1.70125E-03 4.10804E-03 1.01473E-02
      137  1.12529E-06 5.33175E-07-1.27419E-05 0.00000E+00 0.00000E+00 0.00000E+00 0.00000E+00 0.00000E+00 0.00000E+00 4.10783E-03 1.70133E-03 1.01473E-02
      138  8.29159E-07 4.59101E-07-1.27419E-05 0.00000E+00 0.00000E+00 0.00000E+00 0.00000E+00 0.00000E+00 0.00000E+00 3.02803E-03 1.33096E-03 1.01473E-02
      139  1.01549E-06 0.00000E+00-1.27419E-05 0.00000E+00 0.00000E+00 0.00000E+00 0.00000E+00 0.00000E+00 0.00000E+00 3.33482E-03 0.00000E+00 1.01473E-02
      140  1.22054E-06 0.00000E+00-1.27419E-05 0.00000E+00 0.00000E+00 0.00000E+00 0.00000E+00 0.00000E+00 0.00000E+00 4.44622E-03 0.00000E+00 1.01473E-02
      162  0.00000E+00 8.24020E-07-1.27419E-05 0.00000E+00 0.00000E+00 0.00000E+00 0.00000E+00 0.00000E+00 0.00000E+00 1.36100E-19 2.22332E-03 1.01473E-02
      163  2.41184E-07 6.92542E-07-1.27419E-05 0.00000E+00 0.00000E+00 0.00000E+00 0.00000E+00 0.00000E+00 0.00000E+00 9.36972E-04 2.10939E-03 1.01473E-02
      164  0.00000E+00 1.16170E-06-1.27419E-05 0.00000E+00 0.00000E+00 0.00000E+00 0.00000E+00 0.00000E+00 0.00000E+00 2.04100E-19 3.33496E-03 1.01473E-02
      179  3.65330E-07 4.58846E-07-1.27419E-05 0.00000E+00 0.00000E+00 0.00000E+00 0.00000E+00 0.00000E+00 0.00000E+00 1.05467E-03 1.09496E-03 1.01473E-02
      180  0.00000E+00 4.47797E-07-1.27419E-05 0.00000E+00 0.00000E+00 0.00000E+00 0.00000E+00 0.00000E+00 0.00000E+00 6.80400E-20 1.11175E-03 1.01473E-02
      188  5.46092E-07 6.49868E-07-1.27419E-05 0.00000E+00 0.00000E+00 0.00000E+00 0.00000E+00 0.00000E+00 0.00000E+00 1.83145E-03 1.89255E-03 1.01473E-02
      210  7.04960E-07 0.00000E+00-1.27419E-05 0.00000E+00 0.00000E+00 0.00000E+00 0.00000E+00 0.00000E+00 0.00000E+00 2.22320E-03 0.00000E+00 1.01473E-02
      211  6.31684E-07 2.97398E-07-1.27419E-05 0.00000E+00 0.00000E+00 0.00000E+00 0.00000E+00 0.00000E+00 0.00000E+00 2.08323E-03 9.89449E-04 1.01473E-02
      212  3.66405E-07 0.00000E+00-1.27419E-05 0.00000E+00 0.00000E+00 0.00000E+00 0.00000E+00 0.00000E+00 0.00000E+00 1.11167E-03 0.00000E+00 1.01473E-02
      220  0.00000E+00 0.00000E+00-1.27419E-05 0.00000E+00 0.00000E+00 0.00000E+00 0.00000E+00 0.00000E+00 0.00000E+00 0.00000E+00 0.00000E+00 1.01473E-02
      228  0.00000E+00 1.41851E-06-1.27419E-05 0.00000E+00 0.00000E+00 0.00000E+00 0.00000E+00 0.00000E+00 0.00000E+00 2.72200E-19 4.44642E-03 1.01473E-02
      787  0.00000E+00 1.52726E-06-1.27419E-05 0.00000E+00 0.00000E+00 0.00000E+00 0.00000E+00 0.00000E+00 0.00000E+00 3.35400E-19 5.47843E-03 1.01473E-02
      788  0.00000E+00 1.57453E-06-1.27419E-05 0.00000E+00 0.00000E+00 0.00000E+00 0.00000E+00 0.00000E+00 0.00000E+00 3.98500E-19 6.51037E-03 1.01473E-02
      789  0.00000E+00 1.56933E-06-1.27419E-05 0.00000E+00 0.00000E+00 0.00000E+00 0.00000E+00 0.00000E+00 0.00000E+00 4.61700E-19 7.54217E-03 1.01473E-02
      790  0.00000E+00 1.52912E-06-1.27419E-05 0.00000E+00 0.00000E+00 0.00000E+00 0.00000E+00 0.00000E+00 0.00000E+00 5.24900E-19 8.57403E-03 1.01473E-02
      791  0.00000E+00 1.47035E-06-1.27419E-05 0.00000E+00 0.00000E+00 0.00000E+00 0.00000E+00 0.00000E+00 0.00000E+00 5.88100E-19 9.60587E-03 1.01473E-02
      792  0.00000E+00 1.40401E-06-1.27419E-05 0.00000E+00 0.00000E+00 0.00000E+00 0.00000E+00 0.00000E+00 0.00000E+00 6.51300E-19 1.06377E-02 1.01473E-02
      793  0.00000E+00 1.33443E-06-1.27419E-05 0.00000E+00 0.00000E+00 0.00000E+00 0.00000E+00 0.00000E+00 0.00000E+00 7.14500E-19 1.16694E-02 1.01473E-02
      794  0.00000E+00 1.25236E-06-1.27419E-05 0.00000E+00 0.00000E+00 0.00000E+00 0.00000E+00 0.00000E+00 0.00000E+00 7.77700E-19 1.27013E-02 1.01473E-02
      955  5.38024E-07 1.40454E-06-1.27419E-05 0.00000E+00 0.00000E+00 0.00000E+00 0.00000E+00 0.00000E+00 0.00000E+00 3.25004E-03 7.93410E-03 1.01473E-02
      956  5.23300E-07 1.36020E-06-1.27419E-05 0.00000E+00 0.00000E+00 0.00000E+00 0.00000E+00 0.00000E+00 0.00000E+00 3.63712E-03 8.89056E-03 1.01473E-02
      957  1.02196E-06 1.08223E-06-1.27419E-05 0.00000E+00 0.00000E+00 0.00000E+00 0.00000E+00 0.00000E+00 0.00000E+00 6.06702E-03 6.05848E-03 1.01473E-02
      958  9.97732E-07 1.04983E-06-1.27419E-05 0.00000E+00 0.00000E+00 0.00000E+00 0.00000E+00 0.00000E+00 0.00000E+00 6.79770E-03 6.78705E-03 1.01473E-02
      959  1.34240E-06 5.95630E-07-1.27419E-05 0.00000E+00 0.00000E+00 0.00000E+00 0.00000E+00 0.00000E+00 0.00000E+00 7.93114E-03 3.25740E-03 1.01473E-02
      960  1.31504E-06 5.68345E-07-1.27419E-05 0.00000E+00 0.00000E+00 0.00000E+00 0.00000E+00 0.00000E+00 0.00000E+00 8.88682E-03 3.64637E-03 1.01473E-02
      961  1.45782E-06 0.00000E+00-1.27419E-05 0.00000E+00 0.00000E+00 0.00000E+00 0.00000E+00 0.00000E+00 0.00000E+00 8.57396E-03 0.00000E+00 1.01473E-02
      962  1.42637E-06 0.00000E+00-1.27419E-05 0.00000E+00 0.00000E+00 0.00000E+00 0.00000E+00 0.00000E+00 0.00000E+00 9.60583E-03 0.00000E+00 1.01473E-02
      975  4.87997E-07 1.27161E-06-1.27419E-05 0.00000E+00 0.00000E+00 0.00000E+00 0.00000E+00 0.00000E+00 0.00000E+00 4.41139E-03 1.08036E-02 1.01473E-02
      977  4.72139E-07 1.24341E-06-1.27419E-05 0.00000E+00 0.00000E+00 0.00000E+00 0.00000E+00 0.00000E+00 0.00000E+00 4.79857E-03 1.17600E-02 1.01473E-02
      978  9.37743E-07 9.85904E-07-1.27419E-05 0.00000E+00 0.00000E+00 0.00000E+00 0.00000E+00 0.00000E+00 0.00000E+00 8.25894E-03 8.24419E-03 1.01473E-02
      980  8.88180E-07 9.25636E-07-1.27419E-05 0.00000E+00 0.00000E+00 0.00000E+00 0.00000E+00 0.00000E+00 0.00000E+00 8.98959E-03 8.97273E-03 1.01473E-02
      981  1.23141E-06 5.01205E-07-1.27419E-05 0.00000E+00 0.00000E+00 0.00000E+00 0.00000E+00 0.00000E+00 0.00000E+00 1.07981E-02 4.42440E-03 1.01473E-02
      983  1.17351E-06 4.79827E-07-1.27419E-05 0.00000E+00 0.00000E+00 0.00000E+00 0.00000E+00 0.00000E+00 0.00000E+00 1.17539E-02 4.81348E-03 1.01473E-02
      984  1.32285E-06 0.00000E+00-1.27419E-05 0.00000E+00 0.00000E+00 0.00000E+00 0.00000E+00 0.00000E+00 0.00000E+00 1.16694E-02 0.00000E+00 1.01473E-02
      986  1.28823E-06 0.00000E+00-1.27419E-05 0.00000E+00 0.00000E+00 0.00000E+00 0.00000E+00 0.00000E+00 0.00000E+00 1.27013E-02 0.00000E+00 1.01473E-02
     1059  5.44440E-07 1.43297E-06-1.27419E-05 0.00000E+00 0.00000E+00 0.00000E+00 0.00000E+00 0.00000E+00 0.00000E+00 2.86284E-03 6.97763E-03 1.01473E-02
     1061  1.03074E-06 1.10289E-06-1.27419E-05 0.00000E+00 0.00000E+00 0.00000E+00 0.00000E+00 0.00000E+00 0.00000E+00 5.33623E-03 5.32990E-03 1.01473E-02
     1063  1.34799E-06 6.12547E-07-1.27419E-05 0.00000E+00 0.00000E+00 0.00000E+00 0.00000E+00 0.00000E+00 0.00000E+00 6.97535E-03 2.86831E-03 1.01473E-02
     1065  1.46376E-06 0.00000E+00-1.27419E-05 0.00000E+00 0.00000E+00 0.00000E+00 0.00000E+00 0.00000E+00 0.00000E+00 7.54206E-03 0.00000E+00 1.01473E-02
     1071  5.05376E-07 1.31295E-06-1.27419E-05 0.00000E+00 0.00000E+00 0.00000E+00 0.00000E+00 0.00000E+00 0.00000E+00 4.02431E-03 9.84701E-03 1.01473E-02
     1072  9.67445E-07 1.01592E-06-1.27419E-05 0.00000E+00 0.00000E+00 0.00000E+00 0.00000E+00 0.00000E+00 0.00000E+00 7.52837E-03 7.51562E-03 1.01473E-02
     1073  1.27588E-06 5.35946E-07-1.27419E-05 0.00000E+00 0.00000E+00 0.00000E+00 0.00000E+00 0.00000E+00 0.00000E+00 9.84248E-03 4.03534E-03 1.01473E-02
     1074  1.37927E-06 0.00000E+00-1.27419E-05 0.00000E+00 0.00000E+00 0.00000E+00 0.00000E+00 0.00000E+00 0.00000E+00 1.06377E-02 0.00000E+00 1.01473E-02
     1111  5.36307E-07 1.42847E-06-1.27419E-05 0.00000E+00 0.00000E+00 0.00000E+00 0.00000E+00 0.00000E+00 0.00000E+00 2.47564E-03 6.02113E-03 1.01473E-02
     1112  1.01403E-06 1.09923E-06-1.27419E-05 0.00000E+00 0.00000E+00 0.00000E+00 0.00000E+00 0.00000E+00 0.00000E+00 4.60551E-03 4.60140E-03 1.01473E-02
     1113  1.31967E-06 6.12473E-07-1.27419E-05 0.00000E+00 0.00000E+00 0.00000E+00 0.00000E+00 0.00000E+00 0.00000E+00 6.01962E-03 2.47941E-03 1.01473E-02
     1114  1.43146E-06 0.00000E+00-1.27419E-05 0.00000E+00 0.00000E+00 0.00000E+00 0.00000E+00 0.00000E+00 0.00000E+00 6.51023E-03 0.00000E+00 1.01473E-02
     1135  5.07218E-07 1.37162E-06-1.27419E-05 0.00000E+00 0.00000E+00 0.00000E+00 0.00000E+00 0.00000E+00 0.00000E+00 2.08851E-03 5.06457E-03 1.01473E-02
     1136  9.59954E-07 1.05510E-06-1.27419E-05 0.00000E+00 0.00000E+00 0.00000E+00 0.00000E+00 0.00000E+00 0.00000E+00 3.87476E-03 3.87276E-03 1.01473E-02
     1137  1.24823E-06 5.90043E-07-1.27419E-05 0.00000E+00 0.00000E+00 0.00000E+00 0.00000E+00 0.00000E+00 0.00000E+00 5.06375E-03 2.09039E-03 1.01473E-02
     1138  1.34986E-06 0.00000E+00-1.27419E-05 0.00000E+00 0.00000E+00 0.00000E+00 0.00000E+00 0.00000E+00 0.00000E+00 5.47825E-03 0.00000E+00 1.01473E-02



 n o d a l   p r i n t   o u t   f o r   t i m e  s t e p      18                              ( at time 2.2694628E+01 )

 nodal point  x-disp     y-disp      z-disp      x-vel       y-vel       z-vel      x-accl      y-accl      z-accl      x-coor      y-coor      z-coor
        1  3.22444E-06 0.00000E+00 0.00000E+00 0.00000E+00 0.00000E+00 0.00000E+00 0.00000E+00 0.00000E+00 0.00000E+00 3.17822E-03 0.00000E+00-8.88000E-19
        2  9.97660E-07 0.00000E+00 0.00000E+00 0.00000E+00 0.00000E+00 0.00000E+00 0.00000E+00 0.00000E+00 0.00000E+00 2.38230E-03 0.00000E+00 0.00000E+00
        3  2.63661E-07 0.00000E+00 0.00000E+00 0.00000E+00 0.00000E+00 0.00000E+00 0.00000E+00 0.00000E+00 0.00000E+00 1.58776E-03 0.00000E+00 0.00000E+00
        4  6.86352E-08 0.00000E+00 0.00000E+00 0.00000E+00 0.00000E+00 0.00000E+00 0.00000E+00 0.00000E+00 0.00000E+00 7.93819E-04 0.00000E+00 0.00000E+00
        5  0.00000E+00 0.00000E+00 0.00000E+00 0.00000E+00 0.00000E+00 0.00000E+00 0.00000E+00 0.00000E+00 0.00000E+00 0.00000E+00 0.00000E+00 0.00000E+00
        6  0.00000E+00-4.34003E-08 0.00000E+00 0.00000E+00 0.00000E+00 0.00000E+00 0.00000E+00 0.00000E+00 0.00000E+00 4.86000E-20 7.93707E-04 0.00000E+00
        7  0.00000E+00 1.20665E-07 0.00000E+00 0.00000E+00 0.00000E+00 0.00000E+00 0.00000E+00 0.00000E+00 0.00000E+00 9.72100E-20 1.58762E-03 0.00000E+00
        8  0.00000E+00 1.10208E-06 0.00000E+00 0.00000E+00 0.00000E+00 0.00000E+00 0.00000E+00 0.00000E+00 0.00000E+00 1.45800E-19 2.38240E-03 0.00000E+00
        9  0.00000E+00 3.56902E-06 0.00000E+00 0.00000E+00 0.00000E+00 0.00000E+00 0.00000E+00 0.00000E+00 0.00000E+00 1.94400E-19 3.17857E-03 0.00000E+00
       10  1.53595E-06 4.06207E-06 0.00000E+00 0.00000E+00 0.00000E+00 0.00000E+00 0.00000E+00 0.00000E+00 0.00000E+00 1.21654E-03 2.93736E-03 0.00000E+00
       11  2.84491E-06 3.67186E-06 0.00000E+00 0.00000E+00 0.00000E+00 0.00000E+00 0.00000E+00 0.00000E+00 0.00000E+00 2.24794E-03 2.24877E-03 0.00000E+00
       12  3.25010E-06 2.07965E-06 0.00000E+00 0.00000E+00 0.00000E+00 0.00000E+00 0.00000E+00 0.00000E+00 0.00000E+00 2.93655E-03 1.21708E-03 0.00000E+00
       13  9.67200E-07 9.03469E-07 0.00000E+00 0.00000E+00 0.00000E+00 0.00000E+00 0.00000E+00 0.00000E+00 0.00000E+00 1.30927E-03 1.35280E-03 0.00000E+00
       14  5.28334E-07 3.70501E-07 0.00000E+00 0.00000E+00 0.00000E+00 0.00000E+00 0.00000E+00 0.00000E+00 0.00000E+00 1.48883E-03 7.07347E-04 0.00000E+00
       15  4.72110E-07 7.98120E-07 0.00000E+00 0.00000E+00 0.00000E+00 0.00000E+00 0.00000E+00 0.00000E+00 0.00000E+00 6.69982E-04 1.50780E-03 0.00000E+00
       16  2.20532E-07 3.43205E-07 0.00000E+00 0.00000E+00 0.00000E+00 0.00000E+00 0.00000E+00 0.00000E+00 0.00000E+00 7.53858E-04 7.82680E-04 0.00000E+00
       17  1.64051E-06 1.60078E-06 0.00000E+00 0.00000E+00 0.00000E+00 0.00000E+00 0.00000E+00 0.00000E+00 0.00000E+00 1.73794E-03 1.76910E-03 0.00000E+00
       18  8.62771E-07 1.66107E-06 0.00000E+00 0.00000E+00 0.00000E+00 0.00000E+00 0.00000E+00 0.00000E+00 0.00000E+00 9.20994E-04 2.19276E-03 0.00000E+00
       19  1.26344E-06 6.62419E-07 0.00000E+00 0.00000E+00 0.00000E+00 0.00000E+00 0.00000E+00 0.00000E+00 0.00000E+00 2.16456E-03 9.51521E-04 0.00000E+00
      105  6.36939E-07 1.57035E-06-2.26946E-05 0.00000E+00 0.00000E+00 0.00000E+00 0.00000E+00 0.00000E+00 0.00000E+00 1.28804E-03 3.06777E-03 1.01373E-02
      106  1.26539E-06 1.47291E-06-2.26946E-05 0.00000E+00 0.00000E+00 0.00000E+00 0.00000E+00 0.00000E+00 0.00000E+00 2.43127E-03 2.47507E-03 1.01373E-02
      107  1.47747E-06 1.66519E-06-2.26946E-05 0.00000E+00 0.00000E+00 0.00000E+00 0.00000E+00 0.00000E+00 0.00000E+00 3.14448E-03 3.14487E-03 1.01373E-02
      108  7.75223E-07 2.16309E-06-2.26946E-05 0.00000E+00 0.00000E+00 0.00000E+00 0.00000E+00 0.00000E+00 0.00000E+00 1.70158E-03 4.10896E-03 1.01373E-02
      137  1.92608E-06 9.48652E-07-2.26946E-05 0.00000E+00 0.00000E+00 0.00000E+00 0.00000E+00 0.00000E+00 0.00000E+00 4.10863E-03 1.70175E-03 1.01373E-02
      138  1.41657E-06 8.19108E-07-2.26946E-05 0.00000E+00 0.00000E+00 0.00000E+00 0.00000E+00 0.00000E+00 0.00000E+00 3.02862E-03 1.33132E-03 1.01373E-02
      139  1.74321E-06 0.00000E+00-2.26946E-05 0.00000E+00 0.00000E+00 0.00000E+00 0.00000E+00 0.00000E+00 0.00000E+00 3.33554E-03 0.00000E+00 1.01373E-02
      140  2.09287E-06 0.00000E+00-2.26946E-05 0.00000E+00 0.00000E+00 0.00000E+00 0.00000E+00 0.00000E+00 0.00000E+00 4.44709E-03 0.00000E+00 1.01373E-02
      162  0.00000E+00 1.46652E-06-2.26946E-05 0.00000E+00 0.00000E+00 0.00000E+00 0.00000E+00 0.00000E+00 0.00000E+00 1.36100E-19 2.22397E-03 1.01373E-02
      163  4.11494E-07 1.21162E-06-2.26946E-05 0.00000E+00 0.00000E+00 0.00000E+00 0.00000E+00 0.00000E+00 0.00000E+00 9.37142E-04 2.10991E-03 1.01373E-02
      164  0.00000E+00 2.05582E-06-2.26946E-05 0.00000E+00 0.00000E+00 0.00000E+00 0.00000E+00 0.00000E+00 0.00000E+00 2.04100E-19 3.33586E-03 1.01373E-02
      179  6.22816E-07 8.15638E-07-2.26946E-05 0.00000E+00 0.00000E+00 0.00000E+00 0.00000E+00 0.00000E+00 0.00000E+00 1.05492E-03 1.09532E-03 1.01373E-02
      180  0.00000E+00 8.09870E-07-2.26946E-05 0.00000E+00 0.00000E+00 0.00000E+00 0.00000E+00 0.00000E+00 0.00000E+00 6.80400E-20 1.11211E-03 1.01373E-02
      188  9.33447E-07 1.14961E-06-2.26946E-05 0.00000E+00 0.00000E+00 0.00000E+00 0.00000E+00 0.00000E+00 0.00000E+00 1.83183E-03 1.89305E-03 1.01373E-02
      210  1.20435E-06 0.00000E+00-2.26946E-05 0.00000E+00 0.00000E+00 0.00000E+00 0.00000E+00 0.00000E+00 0.00000E+00 2.22370E-03 0.00000E+00 1.01373E-02
      211  1.07634E-06 5.39142E-07-2.26946E-05 0.00000E+00 0.00000E+00 0.00000E+00 0.00000E+00 0.00000E+00 0.00000E+00 2.08368E-03 9.89691E-04 1.01373E-02
      212  6.21461E-07 0.00000E+00-2.26946E-05 0.00000E+00 0.00000E+00 0.00000E+00 0.00000E+00 0.00000E+00 0.00000E+00 1.11192E-03 0.00000E+00 1.01373E-02
      220  0.00000E+00 0.00000E+00-2.26946E-05 0.00000E+00 0.00000E+00 0.00000E+00 0.00000E+00 0.00000E+00 0.00000E+00 0.00000E+00 0.00000E+00 1.01373E-02
      228  0.00000E+00 2.50691E-06-2.26946E-05 0.00000E+00 0.00000E+00 0.00000E+00 0.00000E+00 0.00000E+00 0.00000E+00 2.72200E-19 4.44751E-03 1.01373E-02
      787  0.00000E+00 2.68597E-06-2.26946E-05 0.00000E+00 0.00000E+00 0.00000E+00 0.00000E+00 0.00000E+00 0.00000E+00 3.35400E-19 5.47959E-03 1.01373E-02
      788  0.00000E+00 2.75693E-06-2.26946E-05 0.00000E+00 0.00000E+00 0.00000E+00 0.00000E+00 0.00000E+00 0.00000E+00 3.98500E-19 6.51156E-03 1.01373E-02
      789  0.00000E+00 2.73565E-06-2.26946E-05 0.00000E+00 0.00000E+00 0.00000E+00 0.00000E+00 0.00000E+00 0.00000E+00 4.61700E-19 7.54334E-03 1.01373E-02
      790  0.00000E+00 2.65441E-06-2.26946E-05 0.00000E+00 0.00000E+00 0.00000E+00 0.00000E+00 0.00000E+00 0.00000E+00 5.24900E-19 8.57515E-03 1.01373E-02
      791  0.00000E+00 2.54309E-06-2.26946E-05 0.00000E+00 0.00000E+00 0.00000E+00 0.00000E+00 0.00000E+00 0.00000E+00 5.88100E-19 9.60694E-03 1.01373E-02
      792  0.00000E+00 2.42068E-06-2.26946E-05 0.00000E+00 0.00000E+00 0.00000E+00 0.00000E+00 0.00000E+00 0.00000E+00 6.51300E-19 1.06387E-02 1.01373E-02
      793  0.00000E+00 2.29338E-06-2.26946E-05 0.00000E+00 0.00000E+00 0.00000E+00 0.00000E+00 0.00000E+00 0.00000E+00 7.14500E-19 1.16704E-02 1.01373E-02
      794  0.00000E+00 2.14281E-06-2.26946E-05 0.00000E+00 0.00000E+00 0.00000E+00 0.00000E+00 0.00000E+00 0.00000E+00 7.77700E-19 1.27021E-02 1.01373E-02
      955  9.20966E-07 2.43207E-06-2.26946E-05 0.00000E+00 0.00000E+00 0.00000E+00 0.00000E+00 0.00000E+00 0.00000E+00 3.25042E-03 7.93513E-03 1.01373E-02
      956  8.95597E-07 2.35123E-06-2.26946E-05 0.00000E+00 0.00000E+00 0.00000E+00 0.00000E+00 0.00000E+00 0.00000E+00 3.63750E-03 8.89155E-03 1.01373E-02
      957  1.75526E-06 1.88134E-06-2.26946E-05 0.00000E+00 0.00000E+00 0.00000E+00 0.00000E+00 0.00000E+00 0.00000E+00 6.06776E-03 6.05928E-03 1.01373E-02
      958  1.71512E-06 1.82294E-06-2.26946E-05 0.00000E+00 0.00000E+00 0.00000E+00 0.00000E+00 0.00000E+00 0.00000E+00 6.79842E-03 6.78782E-03 1.01373E-02
      959  2.30362E-06 1.04971E-06-2.26946E-05 0.00000E+00 0.00000E+00 0.00000E+00 0.00000E+00 0.00000E+00 0.00000E+00 7.93210E-03 3.25785E-03 1.01373E-02
      960  2.25838E-06 1.00031E-06-2.26946E-05 0.00000E+00 0.00000E+00 0.00000E+00 0.00000E+00 0.00000E+00 0.00000E+00 8.88776E-03 3.64680E-03 1.01373E-02
      961  2.50310E-06 0.00000E+00-2.26946E-05 0.00000E+00 0.00000E+00 0.00000E+00 0.00000E+00 0.00000E+00 0.00000E+00 8.57500E-03 0.00000E+00 1.01373E-02
      962  2.44972E-06 0.00000E+00-2.26946E-05 0.00000E+00 0.00000E+00 0.00000E+00 0.00000E+00 0.00000E+00 0.00000E+00 9.60685E-03 0.00000E+00 1.01373E-02
      975  8.35463E-07 2.19601E-06-2.26946E-05 0.00000E+00 0.00000E+00 0.00000E+00 0.00000E+00 0.00000E+00 0.00000E+00 4.41174E-03 1.08045E-02 1.01373E-02
      977  8.11221E-07 2.15806E-06-2.26946E-05 0.00000E+00 0.00000E+00 0.00000E+00 0.00000E+00 0.00000E+00 0.00000E+00 4.79891E-03 1.17610E-02 1.01373E-02
      978  1.61570E-06 1.71189E-06-2.26946E-05 0.00000E+00 0.00000E+00 0.00000E+00 0.00000E+00 0.00000E+00 0.00000E+00 8.25962E-03 8.24491E-03 1.01373E-02
      980  1.52495E-06 1.60009E-06-2.26946E-05 0.00000E+00 0.00000E+00 0.00000E+00 0.00000E+00 0.00000E+00 0.00000E+00 8.99022E-03 8.97340E-03 1.01373E-02
      981  2.11644E-06 8.79707E-07-2.26946E-05 0.00000E+00 0.00000E+00 0.00000E+00 0.00000E+00 0.00000E+00 0.00000E+00 1.07990E-02 4.42478E-03 1.01373E-02
      983  2.01502E-06 8.41417E-07-2.26946E-05 0.00000E+00 0.00000E+00 0.00000E+00 0.00000E+00 0.00000E+00 0.00000E+00 1.17547E-02 4.81384E-03 1.01373E-02
      984  2.27164E-06 0.00000E+00-2.26946E-05 0.00000E+00 0.00000E+00 0.00000E+00 0.00000E+00 0.00000E+00 0.00000E+00 1.16704E-02 0.00000E+00 1.01373E-02
      986  2.21531E-06 0.00000E+00-2.26946E-05 0.00000E+00 0.00000E+00 0.00000E+00 0.00000E+00 0.00000E+00 0.00000E+00 1.27022E-02 0.00000E+00 1.01373E-02
     1059  9.32364E-07 2.48730E-06-2.26946E-05 0.00000E+00 0.00000E+00 0.00000E+00 0.00000E+00 0.00000E+00 0.00000E+00 2.86323E-03 6.97869E-03 1.01373E-02
     1061  1.76929E-06 1.92091E-06-2.26946E-05 0.00000E+00 0.00000E+00 0.00000E+00 0.00000E+00 0.00000E+00 0.00000E+00 5.33697E-03 5.33072E-03 1.01373E-02
     1063  2.31135E-06 1.08145E-06-2.26946E-05 0.00000E+00 0.00000E+00 0.00000E+00 0.00000E+00 0.00000E+00 0.00000E+00 6.97631E-03 2.86878E-03 1.01373E-02
     1065  2.51218E-06 0.00000E+00-2.26946E-05 0.00000E+00 0.00000E+00 0.00000E+00 0.00000E+00 0.00000E+00 0.00000E+00 7.54311E-03 0.00000E+00 1.01373E-02
     1071  8.64966E-07 2.26726E-06-2.26946E-05 0.00000E+00 0.00000E+00 0.00000E+00 0.00000E+00 0.00000E+00 0.00000E+00 4.02466E-03 9.84797E-03 1.01373E-02
     1072  1.66496E-06 1.76343E-06-2.26946E-05 0.00000E+00 0.00000E+00 0.00000E+00 0.00000E+00 0.00000E+00 0.00000E+00 7.52906E-03 7.51636E-03 1.01373E-02
     1073  2.19240E-06 9.42183E-07-2.26946E-05 0.00000E+00 0.00000E+00 0.00000E+00 0.00000E+00 0.00000E+00 0.00000E+00 9.84339E-03 4.03574E-03 1.01373E-02
     1074  2.36887E-06 0.00000E+00-2.26946E-05 0.00000E+00 0.00000E+00 0.00000E+00 0.00000E+00 0.00000E+00 0.00000E+00 1.06387E-02 0.00000E+00 1.01373E-02
     1111  9.18680E-07 2.48648E-06-2.26946E-05 0.00000E+00 0.00000E+00 0.00000E+00 0.00000E+00 0.00000E+00 0.00000E+00 2.47602E-03 6.02219E-03 1.01373E-02
     1112  1.74032E-06 1.91983E-06-2.26946E-05 0.00000E+00 0.00000E+00 0.00000E+00 0.00000E+00 0.00000E+00 0.00000E+00 4.60624E-03 4.60222E-03 1.01373E-02
     1113  2.26102E-06 1.08383E-06-2.26946E-05 0.00000E+00 0.00000E+00 0.00000E+00 0.00000E+00 0.00000E+00 0.00000E+00 6.02056E-03 2.47988E-03 1.01373E-02
     1114  2.45521E-06 0.00000E+00-2.26946E-05 0.00000E+00 0.00000E+00 0.00000E+00 0.00000E+00 0.00000E+00 0.00000E+00 6.51126E-03 0.00000E+00 1.01373E-02
     1135  8.67796E-07 2.39337E-06-2.26946E-05 0.00000E+00 0.00000E+00 0.00000E+00 0.00000E+00 0.00000E+00 0.00000E+00 2.08887E-03 5.06559E-03 1.01373E-02
     1136  1.64789E-06 1.84937E-06-2.26946E-05 0.00000E+00 0.00000E+00 0.00000E+00 0.00000E+00 0.00000E+00 0.00000E+00 3.87545E-03 3.87355E-03 1.01373E-02
     1137  2.13745E-06 1.04701E-06-2.26946E-05 0.00000E+00 0.00000E+00 0.00000E+00 0.00000E+00 0.00000E+00 0.00000E+00 5.06464E-03 2.09085E-03 1.01373E-02
     1138  2.31341E-06 0.00000E+00-2.26946E-05 0.00000E+00 0.00000E+00 0.00000E+00 0.00000E+00 0.00000E+00 0.00000E+00 5.47921E-03 0.00000E+00 1.01373E-02



 n o d a l   p r i n t   o u t   f o r   t i m e  s t e p     298                              ( at time 3.0016240E+01 )

 nodal point  x-disp     y-disp      z-disp      x-vel       y-vel       z-vel      x-accl      y-accl      z-accl      x-coor      y-coor      z-coor
        1  3.92031E-06 0.00000E+00 0.00000E+00 0.00000E+00 0.00000E+00 0.00000E+00 0.00000E+00 0.00000E+00 0.00000E+00 3.17892E-03 0.00000E+00-8.88000E-19
        2 -5.81884E-06 0.00000E+00 0.00000E+00 0.00000E+00 0.00000E+00 0.00000E+00 0.00000E+00 0.00000E+00 0.00000E+00 2.37548E-03 0.00000E+00 0.00000E+00
        3 -7.74348E-06 0.00000E+00 0.00000E+00 0.00000E+00 0.00000E+00 0.00000E+00 0.00000E+00 0.00000E+00 0.00000E+00 1.57976E-03 0.00000E+00 0.00000E+00
        4 -4.15855E-06 0.00000E+00 0.00000E+00 0.00000E+00 0.00000E+00 0.00000E+00 0.00000E+00 0.00000E+00 0.00000E+00 7.89591E-04 0.00000E+00 0.00000E+00
        5  0.00000E+00 0.00000E+00 0.00000E+00 0.00000E+00 0.00000E+00 0.00000E+00 0.00000E+00 0.00000E+00 0.00000E+00 0.00000E+00 0.00000E+00 0.00000E+00
        6  0.00000E+00-2.09175E-06 0.00000E+00 0.00000E+00 0.00000E+00 0.00000E+00 0.00000E+00 0.00000E+00 0.00000E+00 4.86000E-20 7.91658E-04 0.00000E+00
        7  0.00000E+00-1.96837E-06 0.00000E+00 0.00000E+00 0.00000E+00 0.00000E+00 0.00000E+00 0.00000E+00 0.00000E+00 9.72100E-20 1.58553E-03 0.00000E+00
        8  0.00000E+00 2.25598E-06 0.00000E+00 0.00000E+00 0.00000E+00 0.00000E+00 0.00000E+00 0.00000E+00 0.00000E+00 1.45800E-19 2.38356E-03 0.00000E+00
        9  0.00000E+00 9.34595E-06 0.00000E+00 0.00000E+00 0.00000E+00 0.00000E+00 0.00000E+00 0.00000E+00 0.00000E+00 1.94400E-19 3.18435E-03 0.00000E+00
       10  6.58575E-06 1.18203E-05 0.00000E+00 0.00000E+00 0.00000E+00 0.00000E+00 0.00000E+00 0.00000E+00 0.00000E+00 1.22159E-03 2.94512E-03 0.00000E+00
       11  1.09408E-05 1.25164E-05 0.00000E+00 0.00000E+00 0.00000E+00 0.00000E+00 0.00000E+00 0.00000E+00 0.00000E+00 2.25604E-03 2.25762E-03 0.00000E+00
       12  1.24003E-05 1.03387E-05 0.00000E+00 0.00000E+00 0.00000E+00 0.00000E+00 0.00000E+00 0.00000E+00 0.00000E+00 2.94570E-03 1.22534E-03 0.00000E+00
       13  6.28938E-06 7.11435E-06 0.00000E+00 0.00000E+00 0.00000E+00 0.00000E+00 0.00000E+00 0.00000E+00 0.00000E+00 1.31459E-03 1.35901E-03 0.00000E+00
       14  5.82290E-06 5.60223E-06 0.00000E+00 0.00000E+00 0.00000E+00 0.00000E+00 0.00000E+00 0.00000E+00 0.00000E+00 1.49412E-03 7.12579E-04 0.00000E+00
       15  3.23003E-06 3.86990E-06 0.00000E+00 0.00000E+00 0.00000E+00 0.00000E+00 0.00000E+00 0.00000E+00 0.00000E+00 6.72740E-04 1.51087E-03 0.00000E+00
       16  2.36834E-06 1.93207E-06 0.00000E+00 0.00000E+00 0.00000E+00 0.00000E+00 0.00000E+00 0.00000E+00 0.00000E+00 7.56006E-04 7.84269E-04 0.00000E+00
       17  8.72872E-06 9.33865E-06 0.00000E+00 0.00000E+00 0.00000E+00 0.00000E+00 0.00000E+00 0.00000E+00 0.00000E+00 1.74503E-03 1.77684E-03 0.00000E+00
       18  4.65410E-06 7.16968E-06 0.00000E+00 0.00000E+00 0.00000E+00 0.00000E+00 0.00000E+00 0.00000E+00 0.00000E+00 9.24785E-04 2.19827E-03 0.00000E+00
       19  9.38881E-06 6.75928E-06 0.00000E+00 0.00000E+00 0.00000E+00 0.00000E+00 0.00000E+00 0.00000E+00 0.00000E+00 2.17269E-03 9.57618E-04 0.00000E+00
      105  6.42528E-07 2.49575E-06-3.00162E-05 0.00000E+00 0.00000E+00 0.00000E+00 0.00000E+00 0.00000E+00 0.00000E+00 1.28804E-03 3.06870E-03 1.01300E-02
      106  1.31673E-06 2.46126E-06-3.00162E-05 0.00000E+00 0.00000E+00 0.00000E+00 0.00000E+00 0.00000E+00 0.00000E+00 2.43132E-03 2.47606E-03 1.01300E-02
      107  1.54920E-06 2.63442E-06-3.00162E-05 0.00000E+00 0.00000E+00 0.00000E+00 0.00000E+00 0.00000E+00 0.00000E+00 3.14455E-03 3.14583E-03 1.01300E-02
      108  7.93912E-07 3.03946E-06-3.00162E-05 0.00000E+00 0.00000E+00 0.00000E+00 0.00000E+00 0.00000E+00 0.00000E+00 1.70159E-03 4.10984E-03 1.01300E-02
      137  1.88762E-06 1.78960E-06-3.00162E-05 0.00000E+00 0.00000E+00 0.00000E+00 0.00000E+00 0.00000E+00 0.00000E+00 4.10859E-03 1.70259E-03 1.01300E-02
      138  1.32336E-06 1.74269E-06-3.00162E-05 0.00000E+00 0.00000E+00 0.00000E+00 0.00000E+00 0.00000E+00 0.00000E+00 3.02852E-03 1.33224E-03 1.01300E-02
      139  3.12771E-06 0.00000E+00-3.00162E-05 0.00000E+00 0.00000E+00 0.00000E+00 0.00000E+00 0.00000E+00 0.00000E+00 3.33693E-03 0.00000E+00 1.01300E-02
      140  2.72287E-06 0.00000E+00-3.00162E-05 0.00000E+00 0.00000E+00 0.00000E+00 0.00000E+00 0.00000E+00 0.00000E+00 4.44772E-03 0.00000E+00 1.01300E-02
      162  0.00000E+00 2.97909E-06-3.00162E-05 0.00000E+00 0.00000E+00 0.00000E+00 0.00000E+00 0.00000E+00 0.00000E+00 1.36100E-19 2.22548E-03 1.01300E-02
      163  6.56308E-07 1.94928E-06-3.00162E-05 0.00000E+00 0.00000E+00 0.00000E+00 0.00000E+00 0.00000E+00 0.00000E+00 9.37387E-04 2.11065E-03 1.01300E-02
      164  0.00000E+00 4.00205E-06-3.00162E-05 0.00000E+00 0.00000E+00 0.00000E+00 0.00000E+00 0.00000E+00 0.00000E+00 2.04100E-19 3.33780E-03 1.01300E-02
      179  5.86815E-07 1.30815E-06-3.00162E-05 0.00000E+00 0.00000E+00 0.00000E+00 0.00000E+00 0.00000E+00 0.00000E+00 1.05489E-03 1.09581E-03 1.01300E-02
      180  0.00000E+00 1.77136E-06-3.00162E-05 0.00000E+00 0.00000E+00 0.00000E+00 0.00000E+00 0.00000E+00 0.00000E+00 6.80400E-20 1.11307E-03 1.01300E-02
      188  1.26437E-06 1.70355E-06-3.00162E-05 0.00000E+00 0.00000E+00 0.00000E+00 0.00000E+00 0.00000E+00 0.00000E+00 1.83216E-03 1.89360E-03 1.01300E-02
      210  3.26190E-06 0.00000E+00-3.00162E-05 0.00000E+00 0.00000E+00 0.00000E+00 0.00000E+00 0.00000E+00 0.00000E+00 2.22576E-03 0.00000E+00 1.01300E-02
      211  1.10032E-06 1.33912E-06-3.00162E-05 0.00000E+00 0.00000E+00 0.00000E+00 0.00000E+00 0.00000E+00 0.00000E+00 2.08370E-03 9.90491E-04 1.01300E-02
      212  2.69564E-06 0.00000E+00-3.00162E-05 0.00000E+00 0.00000E+00 0.00000E+00 0.00000E+00 0.00000E+00 0.00000E+00 1.11400E-03 0.00000E+00 1.01300E-02
      220  0.00000E+00 0.00000E+00-3.00162E-05 0.00000E+00 0.00000E+00 0.00000E+00 0.00000E+00 0.00000E+00 0.00000E+00 0.00000E+00 0.00000E+00 1.01300E-02
      228  0.00000E+00 4.60563E-06-3.00162E-05 0.00000E+00 0.00000E+00 0.00000E+00 0.00000E+00 0.00000E+00 0.00000E+00 2.72200E-19 4.44961E-03 1.01300E-02
      787  0.00000E+00 4.55339E-06-3.00162E-05 0.00000E+00 0.00000E+00 0.00000E+00 0.00000E+00 0.00000E+00 0.00000E+00 3.35400E-19 5.48145E-03 1.01300E-02
      788  0.00000E+00 4.26229E-06-3.00162E-05 0.00000E+00 0.00000E+00 0.00000E+00 0.00000E+00 0.00000E+00 0.00000E+00 3.98500E-19 6.51306E-03 1.01300E-02
      789  0.00000E+00 3.88659E-06-3.00162E-05 0.00000E+00 0.00000E+00 0.00000E+00 0.00000E+00 0.00000E+00 0.00000E+00 4.61700E-19 7.54449E-03 1.01300E-02
      790  0.00000E+00 3.52276E-06-3.00162E-05 0.00000E+00 0.00000E+00 0.00000E+00 0.00000E+00 0.00000E+00 0.00000E+00 5.24900E-19 8.57602E-03 1.01300E-02
      791  0.00000E+00 3.13849E-06-3.00162E-05 0.00000E+00 0.00000E+00 0.00000E+00 0.00000E+00 0.00000E+00 0.00000E+00 5.88100E-19 9.60754E-03 1.01300E-02
      792  0.00000E+00 2.76615E-06-3.00162E-05 0.00000E+00 0.00000E+00 0.00000E+00 0.00000E+00 0.00000E+00 0.00000E+00 6.51300E-19 1.06391E-02 1.01300E-02
      793  0.00000E+00 2.40823E-06-3.00162E-05 0.00000E+00 0.00000E+00 0.00000E+00 0.00000E+00 0.00000E+00 0.00000E+00 7.14500E-19 1.16705E-02 1.01300E-02
      794  0.00000E+00 2.02480E-06-3.00162E-05 0.00000E+00 0.00000E+00 0.00000E+00 0.00000E+00 0.00000E+00 0.00000E+00 7.77700E-19 1.27020E-02 1.01300E-02
      955  8.95856E-07 2.75455E-06-3.00162E-05 0.00000E+00 0.00000E+00 0.00000E+00 0.00000E+00 0.00000E+00 0.00000E+00 3.25040E-03 7.93545E-03 1.01300E-02
      956  8.60681E-07 2.58698E-06-3.00162E-05 0.00000E+00 0.00000E+00 0.00000E+00 0.00000E+00 0.00000E+00 0.00000E+00 3.63746E-03 8.89179E-03 1.01300E-02
      957  1.80171E-06 2.26133E-06-3.00162E-05 0.00000E+00 0.00000E+00 0.00000E+00 0.00000E+00 0.00000E+00 0.00000E+00 6.06780E-03 6.05966E-03 1.01300E-02
      958  1.80724E-06 2.12608E-06-3.00162E-05 0.00000E+00 0.00000E+00 0.00000E+00 0.00000E+00 0.00000E+00 0.00000E+00 6.79851E-03 6.78813E-03 1.01300E-02
      959  2.21945E-06 1.64670E-06-3.00162E-05 0.00000E+00 0.00000E+00 0.00000E+00 0.00000E+00 0.00000E+00 0.00000E+00 7.93202E-03 3.25845E-03 1.01300E-02
      960  2.19842E-06 1.59242E-06-3.00162E-05 0.00000E+00 0.00000E+00 0.00000E+00 0.00000E+00 0.00000E+00 0.00000E+00 8.88770E-03 3.64739E-03 1.01300E-02
      961  2.36250E-06 0.00000E+00-3.00162E-05 0.00000E+00 0.00000E+00 0.00000E+00 0.00000E+00 0.00000E+00 0.00000E+00 8.57486E-03 0.00000E+00 1.01300E-02
      962  2.29975E-06 0.00000E+00-3.00162E-05 0.00000E+00 0.00000E+00 0.00000E+00 0.00000E+00 0.00000E+00 0.00000E+00 9.60670E-03 0.00000E+00 1.01300E-02
      975  8.02272E-07 2.38099E-06-3.00162E-05 0.00000E+00 0.00000E+00 0.00000E+00 0.00000E+00 0.00000E+00 0.00000E+00 4.41170E-03 1.08047E-02 1.01300E-02
      977  8.68724E-07 2.62193E-06-3.00162E-05 0.00000E+00 0.00000E+00 0.00000E+00 0.00000E+00 0.00000E+00 0.00000E+00 4.79897E-03 1.17614E-02 1.01300E-02
      978  1.80337E-06 1.92684E-06-3.00162E-05 0.00000E+00 0.00000E+00 0.00000E+00 0.00000E+00 0.00000E+00 0.00000E+00 8.25980E-03 8.24513E-03 1.01300E-02
      980  1.59262E-06 1.64598E-06-3.00162E-05 0.00000E+00 0.00000E+00 0.00000E+00 0.00000E+00 0.00000E+00 0.00000E+00 8.99029E-03 8.97345E-03 1.01300E-02
      981  2.10708E-06 1.46541E-06-3.00162E-05 0.00000E+00 0.00000E+00 0.00000E+00 0.00000E+00 0.00000E+00 0.00000E+00 1.07990E-02 4.42537E-03 1.01300E-02
      983  1.98218E-06 1.37441E-06-3.00162E-05 0.00000E+00 0.00000E+00 0.00000E+00 0.00000E+00 0.00000E+00 0.00000E+00 1.17547E-02 4.81437E-03 1.01300E-02
      984  2.12763E-06 0.00000E+00-3.00162E-05 0.00000E+00 0.00000E+00 0.00000E+00 0.00000E+00 0.00000E+00 0.00000E+00 1.16702E-02 0.00000E+00 1.01300E-02
      986  2.07904E-06 0.00000E+00-3.00162E-05 0.00000E+00 0.00000E+00 0.00000E+00 0.00000E+00 0.00000E+00 0.00000E+00 1.27021E-02 0.00000E+00 1.01300E-02
     1059  9.36017E-07 2.99006E-06-3.00162E-05 0.00000E+00 0.00000E+00 0.00000E+00 0.00000E+00 0.00000E+00 0.00000E+00 2.86324E-03 6.97919E-03 1.01300E-02
     1061  1.78641E-06 2.38624E-06-3.00162E-05 0.00000E+00 0.00000E+00 0.00000E+00 0.00000E+00 0.00000E+00 0.00000E+00 5.33699E-03 5.33119E-03 1.01300E-02
     1063  2.21584E-06 1.71183E-06-3.00162E-05 0.00000E+00 0.00000E+00 0.00000E+00 0.00000E+00 0.00000E+00 0.00000E+00 6.97622E-03 2.86941E-03 1.01300E-02
     1065  2.39481E-06 0.00000E+00-3.00162E-05 0.00000E+00 0.00000E+00 0.00000E+00 0.00000E+00 0.00000E+00 0.00000E+00 7.54299E-03 0.00000E+00 1.01300E-02
[...]
      164  0.00000E+00 7.19134E-06-9.22961E-05 0.00000E+00 0.00000E+00 0.00000E+00 0.00000E+00 0.00000E+00 0.00000E+00 2.04100E-19 3.34099E-03 1.00677E-02
      179  2.08093E-06 3.20309E-06-9.22961E-05 0.00000E+00 0.00000E+00 0.00000E+00 0.00000E+00 0.00000E+00 0.00000E+00 1.05638E-03 1.09770E-03 1.00677E-02
      180  0.00000E+00 5.09579E-06-9.22961E-05 0.00000E+00 0.00000E+00 0.00000E+00 0.00000E+00 0.00000E+00 0.00000E+00 6.80400E-20 1.11640E-03 1.00677E-02
      188  2.15339E-06 2.97209E-06-9.22961E-05 0.00000E+00 0.00000E+00 0.00000E+00 0.00000E+00 0.00000E+00 0.00000E+00 1.83305E-03 1.89487E-03 1.00677E-02
      210  7.53420E-06 0.00000E+00-9.22961E-05 0.00000E+00 0.00000E+00 0.00000E+00 0.00000E+00 0.00000E+00 0.00000E+00 2.23003E-03 0.00000E+00 1.00677E-02
      211  2.47336E-06 3.48770E-06-9.22961E-05 0.00000E+00 0.00000E+00 0.00000E+00 0.00000E+00 0.00000E+00 0.00000E+00 2.08507E-03 9.92639E-04 1.00677E-02
      212  6.53374E-06 0.00000E+00-9.22961E-05 0.00000E+00 0.00000E+00 0.00000E+00 0.00000E+00 0.00000E+00 0.00000E+00 1.11783E-03 0.00000E+00 1.00677E-02
      220  0.00000E+00 0.00000E+00-9.22961E-05 0.00000E+00 0.00000E+00 0.00000E+00 0.00000E+00 0.00000E+00 0.00000E+00 0.00000E+00 0.00000E+00 1.00677E-02
      228  0.00000E+00 7.86089E-06-9.22961E-05 0.00000E+00 0.00000E+00 0.00000E+00 0.00000E+00 0.00000E+00 0.00000E+00 2.72200E-19 4.45286E-03 1.00677E-02
      787  0.00000E+00 7.62614E-06-9.22961E-05 0.00000E+00 0.00000E+00 0.00000E+00 0.00000E+00 0.00000E+00 0.00000E+00 3.35400E-19 5.48453E-03 1.00677E-02
      788  0.00000E+00 7.05378E-06-9.22961E-05 0.00000E+00 0.00000E+00 0.00000E+00 0.00000E+00 0.00000E+00 0.00000E+00 3.98500E-19 6.51585E-03 1.00677E-02
      789  0.00000E+00 6.27427E-06-9.22961E-05 0.00000E+00 0.00000E+00 0.00000E+00 0.00000E+00 0.00000E+00 0.00000E+00 4.61700E-19 7.54687E-03 1.00677E-02
      790  0.00000E+00 5.61141E-06-9.22961E-05 0.00000E+00 0.00000E+00 0.00000E+00 0.00000E+00 0.00000E+00 0.00000E+00 5.24900E-19 8.57811E-03 1.00677E-02
      791  0.00000E+00 5.05067E-06-9.22961E-05 0.00000E+00 0.00000E+00 0.00000E+00 0.00000E+00 0.00000E+00 0.00000E+00 5.88100E-19 9.60945E-03 1.00677E-02
      792  0.00000E+00 4.54110E-06-9.22961E-05 0.00000E+00 0.00000E+00 0.00000E+00 0.00000E+00 0.00000E+00 0.00000E+00 6.51300E-19 1.06408E-02 1.00677E-02
      793  0.00000E+00 4.01448E-06-9.22961E-05 0.00000E+00 0.00000E+00 0.00000E+00 0.00000E+00 0.00000E+00 0.00000E+00 7.14500E-19 1.16721E-02 1.00677E-02
      794  0.00000E+00 3.68023E-06-9.22961E-05 0.00000E+00 0.00000E+00 0.00000E+00 0.00000E+00 0.00000E+00 0.00000E+00 7.77700E-19 1.27037E-02 1.00677E-02
      955  1.46039E-06 4.50302E-06-9.22961E-05 0.00000E+00 0.00000E+00 0.00000E+00 0.00000E+00 0.00000E+00 0.00000E+00 3.25096E-03 7.93720E-03 1.00677E-02
      956  1.42702E-06 4.20607E-06-9.22961E-05 0.00000E+00 0.00000E+00 0.00000E+00 0.00000E+00 0.00000E+00 0.00000E+00 3.63803E-03 8.89341E-03 1.00677E-02
      957  2.87640E-06 3.57350E-06-9.22961E-05 0.00000E+00 0.00000E+00 0.00000E+00 0.00000E+00 0.00000E+00 0.00000E+00 6.06888E-03 6.06097E-03 1.00677E-02
      958  2.86764E-06 3.35191E-06-9.22961E-05 0.00000E+00 0.00000E+00 0.00000E+00 0.00000E+00 0.00000E+00 0.00000E+00 6.79957E-03 6.78935E-03 1.00677E-02
      959  3.44739E-06 2.46903E-06-9.22961E-05 0.00000E+00 0.00000E+00 0.00000E+00 0.00000E+00 0.00000E+00 0.00000E+00 7.93325E-03 3.25927E-03 1.00677E-02
      960  3.41027E-06 2.40780E-06-9.22961E-05 0.00000E+00 0.00000E+00 0.00000E+00 0.00000E+00 0.00000E+00 0.00000E+00 8.88891E-03 3.64821E-03 1.00677E-02
      961  3.69934E-06 0.00000E+00-9.22961E-05 0.00000E+00 0.00000E+00 0.00000E+00 0.00000E+00 0.00000E+00 0.00000E+00 8.57620E-03 0.00000E+00 1.00677E-02
      962  3.58178E-06 0.00000E+00-9.22961E-05 0.00000E+00 0.00000E+00 0.00000E+00 0.00000E+00 0.00000E+00 0.00000E+00 9.60798E-03 0.00000E+00 1.00677E-02
      975  1.34672E-06 3.84552E-06-9.22961E-05 0.00000E+00 0.00000E+00 0.00000E+00 0.00000E+00 0.00000E+00 0.00000E+00 4.41225E-03 1.08061E-02 1.00677E-02
      977  1.48531E-06 4.22130E-06-9.22961E-05 0.00000E+00 0.00000E+00 0.00000E+00 0.00000E+00 0.00000E+00 0.00000E+00 4.79959E-03 1.17630E-02 1.00677E-02
      978  2.89129E-06 3.03752E-06-9.22961E-05 0.00000E+00 0.00000E+00 0.00000E+00 0.00000E+00 0.00000E+00 0.00000E+00 8.26089E-03 8.24624E-03 1.00677E-02
      980  2.56251E-06 2.58022E-06-9.22961E-05 0.00000E+00 0.00000E+00 0.00000E+00 0.00000E+00 0.00000E+00 0.00000E+00 8.99126E-03 8.97438E-03 1.00677E-02
      981  3.27347E-06 2.26141E-06-9.22961E-05 0.00000E+00 0.00000E+00 0.00000E+00 0.00000E+00 0.00000E+00 0.00000E+00 1.08002E-02 4.42616E-03 1.00677E-02
      983  3.07888E-06 2.11379E-06-9.22961E-05 0.00000E+00 0.00000E+00 0.00000E+00 0.00000E+00 0.00000E+00 0.00000E+00 1.17558E-02 4.81511E-03 1.00677E-02
      984  3.31079E-06 0.00000E+00-9.22961E-05 0.00000E+00 0.00000E+00 0.00000E+00 0.00000E+00 0.00000E+00 0.00000E+00 1.16714E-02 0.00000E+00 1.00677E-02
      986  3.18414E-06 0.00000E+00-9.22961E-05 0.00000E+00 0.00000E+00 0.00000E+00 0.00000E+00 0.00000E+00 0.00000E+00 1.27032E-02 0.00000E+00 1.00677E-02
     1059  1.50035E-06 4.74492E-06-9.22961E-05 0.00000E+00 0.00000E+00 0.00000E+00 0.00000E+00 0.00000E+00 0.00000E+00 2.86380E-03 6.98094E-03 1.00677E-02
     1061  2.87909E-06 3.85925E-06-9.22961E-05 0.00000E+00 0.00000E+00 0.00000E+00 0.00000E+00 0.00000E+00 0.00000E+00 5.33808E-03 5.33266E-03 1.00677E-02
     1063  3.47583E-06 2.56323E-06-9.22961E-05 0.00000E+00 0.00000E+00 0.00000E+00 0.00000E+00 0.00000E+00 0.00000E+00 6.97748E-03 2.87026E-03 1.00677E-02
     1065  3.81199E-06 0.00000E+00-9.22961E-05 0.00000E+00 0.00000E+00 0.00000E+00 0.00000E+00 0.00000E+00 0.00000E+00 7.54441E-03 0.00000E+00 1.00677E-02
     1071  1.38420E-06 3.98488E-06-9.22961E-05 0.00000E+00 0.00000E+00 0.00000E+00 0.00000E+00 0.00000E+00 0.00000E+00 4.02518E-03 9.84968E-03 1.00677E-02
     1072  2.87465E-06 3.17034E-06-9.22961E-05 0.00000E+00 0.00000E+00 0.00000E+00 0.00000E+00 0.00000E+00 0.00000E+00 7.53027E-03 7.51777E-03 1.00677E-02
     1073  3.36225E-06 2.35477E-06-9.22961E-05 0.00000E+00 0.00000E+00 0.00000E+00 0.00000E+00 0.00000E+00 0.00000E+00 9.84456E-03 4.03715E-03 1.00677E-02
     1074  3.45000E-06 0.00000E+00-9.22961E-05 0.00000E+00 0.00000E+00 0.00000E+00 0.00000E+00 0.00000E+00 0.00000E+00 1.06397E-02 0.00000E+00 1.00677E-02
     1111  1.52003E-06 4.92240E-06-9.22961E-05 0.00000E+00 0.00000E+00 0.00000E+00 0.00000E+00 0.00000E+00 0.00000E+00 2.47662E-03 6.02462E-03 1.00677E-02
     1112  2.86755E-06 4.11495E-06-9.22961E-05 0.00000E+00 0.00000E+00 0.00000E+00 0.00000E+00 0.00000E+00 0.00000E+00 4.60737E-03 4.60441E-03 1.00677E-02
     1113  3.45252E-06 2.67976E-06-9.22961E-05 0.00000E+00 0.00000E+00 0.00000E+00 0.00000E+00 0.00000E+00 0.00000E+00 6.02175E-03 2.48148E-03 1.00677E-02
     1114  3.99585E-06 0.00000E+00-9.22961E-05 0.00000E+00 0.00000E+00 0.00000E+00 0.00000E+00 0.00000E+00 0.00000E+00 6.51280E-03 0.00000E+00 1.00677E-02
     1135  1.46659E-06 5.01619E-06-9.22961E-05 0.00000E+00 0.00000E+00 0.00000E+00 0.00000E+00 0.00000E+00 0.00000E+00 2.08947E-03 5.06822E-03 1.00677E-02
     1136  2.77449E-06 4.22883E-06-9.22961E-05 0.00000E+00 0.00000E+00 0.00000E+00 0.00000E+00 0.00000E+00 0.00000E+00 3.87657E-03 3.87593E-03 1.00677E-02
     1137  3.33466E-06 2.71366E-06-9.22961E-05 0.00000E+00 0.00000E+00 0.00000E+00 0.00000E+00 0.00000E+00 0.00000E+00 5.06583E-03 2.09251E-03 1.00677E-02
     1138  4.38311E-06 0.00000E+00-9.22961E-05 0.00000E+00 0.00000E+00 0.00000E+00 0.00000E+00 0.00000E+00 0.00000E+00 5.48128E-03 0.00000E+00 1.00677E-02



 n o d a l   p r i n t   o u t   f o r   t i m e  s t e p     342                              ( at time 1.0000000E+02 )

 nodal point  x-disp     y-disp      z-disp      x-vel       y-vel       z-vel      x-accl      y-accl      z-accl      x-coor      y-coor      z-coor
        1  7.43627E-05 0.00000E+00 0.00000E+00 0.00000E+00 0.00000E+00 0.00000E+00 0.00000E+00 0.00000E+00 0.00000E+00 3.24936E-03 0.00000E+00-8.88000E-19
        2  2.77350E-05 0.00000E+00 0.00000E+00 0.00000E+00 0.00000E+00 0.00000E+00 0.00000E+00 0.00000E+00 0.00000E+00 2.40903E-03 0.00000E+00 0.00000E+00
        3  1.75426E-06 0.00000E+00 0.00000E+00 0.00000E+00 0.00000E+00 0.00000E+00 0.00000E+00 0.00000E+00 0.00000E+00 1.58925E-03 0.00000E+00 0.00000E+00
        4 -1.30767E-06 0.00000E+00 0.00000E+00 0.00000E+00 0.00000E+00 0.00000E+00 0.00000E+00 0.00000E+00 0.00000E+00 7.92442E-04 0.00000E+00 0.00000E+00
        5  0.00000E+00 0.00000E+00 0.00000E+00 0.00000E+00 0.00000E+00 0.00000E+00 0.00000E+00 0.00000E+00 0.00000E+00 0.00000E+00 0.00000E+00 0.00000E+00
        6  0.00000E+00 5.46723E-06 0.00000E+00 0.00000E+00 0.00000E+00 0.00000E+00 0.00000E+00 0.00000E+00 0.00000E+00 4.86000E-20 7.99217E-04 0.00000E+00
        7  0.00000E+00 1.44269E-05 0.00000E+00 0.00000E+00 0.00000E+00 0.00000E+00 0.00000E+00 0.00000E+00 0.00000E+00 9.72100E-20 1.60193E-03 0.00000E+00
        8  0.00000E+00 3.53992E-05 0.00000E+00 0.00000E+00 0.00000E+00 0.00000E+00 0.00000E+00 0.00000E+00 0.00000E+00 1.45800E-19 2.41670E-03 0.00000E+00
        9  0.00000E+00 6.48525E-05 0.00000E+00 0.00000E+00 0.00000E+00 0.00000E+00 0.00000E+00 0.00000E+00 0.00000E+00 1.94400E-19 3.23985E-03 0.00000E+00
       10  3.51649E-05 6.71314E-05 0.00000E+00 0.00000E+00 0.00000E+00 0.00000E+00 0.00000E+00 0.00000E+00 0.00000E+00 1.25016E-03 3.00043E-03 0.00000E+00
       11  5.60980E-05 6.32948E-05 0.00000E+00 0.00000E+00 0.00000E+00 0.00000E+00 0.00000E+00 0.00000E+00 0.00000E+00 2.30120E-03 2.30839E-03 0.00000E+00
       12  6.89034E-05 4.83059E-05 0.00000E+00 0.00000E+00 0.00000E+00 0.00000E+00 0.00000E+00 0.00000E+00 0.00000E+00 3.00220E-03 1.26331E-03 0.00000E+00
       13  4.28505E-05 4.17218E-05 0.00000E+00 0.00000E+00 0.00000E+00 0.00000E+00 0.00000E+00 0.00000E+00 0.00000E+00 1.35115E-03 1.39362E-03 0.00000E+00
       14  4.07173E-05 2.45926E-05 0.00000E+00 0.00000E+00 0.00000E+00 0.00000E+00 0.00000E+00 0.00000E+00 0.00000E+00 1.52902E-03 7.31570E-04 0.00000E+00
       15  2.14936E-05 3.55199E-05 0.00000E+00 0.00000E+00 0.00000E+00 0.00000E+00 0.00000E+00 0.00000E+00 0.00000E+00 6.91004E-04 1.54252E-03 0.00000E+00
       16  1.69073E-05 1.78977E-05 0.00000E+00 0.00000E+00 0.00000E+00 0.00000E+00 0.00000E+00 0.00000E+00 0.00000E+00 7.70545E-04 8.00235E-04 0.00000E+00
       17  5.27471E-05 5.24998E-05 0.00000E+00 0.00000E+00 0.00000E+00 0.00000E+00 0.00000E+00 0.00000E+00 0.00000E+00 1.78905E-03 1.82000E-03 0.00000E+00
       18  2.79808E-05 5.11635E-05 0.00000E+00 0.00000E+00 0.00000E+00 0.00000E+00 0.00000E+00 0.00000E+00 0.00000E+00 9.48112E-04 2.24226E-03 0.00000E+00
       19  5.55831E-05 2.92940E-05 0.00000E+00 0.00000E+00 0.00000E+00 0.00000E+00 0.00000E+00 0.00000E+00 0.00000E+00 2.21888E-03 9.80153E-04 0.00000E+00
      105  1.33545E-06 3.77454E-06-1.00000E-04 0.00000E+00 0.00000E+00 0.00000E+00 0.00000E+00 0.00000E+00 0.00000E+00 1.28874E-03 3.06997E-03 1.00600E-02
      106  2.55388E-06 3.92813E-06-1.00000E-04 0.00000E+00 0.00000E+00 0.00000E+00 0.00000E+00 0.00000E+00 0.00000E+00 2.43255E-03 2.47753E-03 1.00600E-02
      107  2.57975E-06 4.09850E-06-1.00000E-04 0.00000E+00 0.00000E+00 0.00000E+00 0.00000E+00 0.00000E+00 0.00000E+00 3.14558E-03 3.14730E-03 1.00600E-02
      108  1.29698E-06 4.75249E-06-1.00000E-04 0.00000E+00 0.00000E+00 0.00000E+00 0.00000E+00 0.00000E+00 0.00000E+00 1.70210E-03 4.11155E-03 1.00600E-02
      137  3.00524E-06 2.52709E-06-1.00000E-04 0.00000E+00 0.00000E+00 0.00000E+00 0.00000E+00 0.00000E+00 0.00000E+00 4.10971E-03 1.70333E-03 1.00600E-02
      138  2.25688E-06 2.14983E-06-1.00000E-04 0.00000E+00 0.00000E+00 0.00000E+00 0.00000E+00 0.00000E+00 0.00000E+00 3.02946E-03 1.33265E-03 1.00600E-02
      139  6.54668E-06 0.00000E+00-1.00000E-04 0.00000E+00 0.00000E+00 0.00000E+00 0.00000E+00 0.00000E+00 0.00000E+00 3.34035E-03 0.00000E+00 1.00600E-02
      140  5.14079E-06 0.00000E+00-1.00000E-04 0.00000E+00 0.00000E+00 0.00000E+00 0.00000E+00 0.00000E+00 0.00000E+00 4.45014E-03 0.00000E+00 1.00600E-02
      162  0.00000E+00 6.96450E-06-1.00000E-04 0.00000E+00 0.00000E+00 0.00000E+00 0.00000E+00 0.00000E+00 0.00000E+00 1.36100E-19 2.22946E-03 1.00600E-02
      163  1.50638E-06 3.27826E-06-1.00000E-04 0.00000E+00 0.00000E+00 0.00000E+00 0.00000E+00 0.00000E+00 0.00000E+00 9.38237E-04 2.11198E-03 1.00600E-02
      164  0.00000E+00 7.25952E-06-1.00000E-04 0.00000E+00 0.00000E+00 0.00000E+00 0.00000E+00 0.00000E+00 0.00000E+00 2.04100E-19 3.34106E-03 1.00600E-02
      179  1.55543E-06 3.43032E-06-1.00000E-04 0.00000E+00 0.00000E+00 0.00000E+00 0.00000E+00 0.00000E+00 0.00000E+00 1.05586E-03 1.09793E-03 1.00600E-02
      180  0.00000E+00 5.13374E-06-1.00000E-04 0.00000E+00 0.00000E+00 0.00000E+00 0.00000E+00 0.00000E+00 0.00000E+00 6.80400E-20 1.11643E-03 1.00600E-02
      188  2.07939E-06 2.92976E-06-1.00000E-04 0.00000E+00 0.00000E+00 0.00000E+00 0.00000E+00 0.00000E+00 0.00000E+00 1.83298E-03 1.89483E-03 1.00600E-02
      210  7.32326E-06 0.00000E+00-1.00000E-04 0.00000E+00 0.00000E+00 0.00000E+00 0.00000E+00 0.00000E+00 0.00000E+00 2.22982E-03 0.00000E+00 1.00600E-02
      211  2.52439E-06 3.24390E-06-1.00000E-04 0.00000E+00 0.00000E+00 0.00000E+00 0.00000E+00 0.00000E+00 0.00000E+00 2.08512E-03 9.92396E-04 1.00600E-02
      212  6.48224E-06 0.00000E+00-1.00000E-04 0.00000E+00 0.00000E+00 0.00000E+00 0.00000E+00 0.00000E+00 0.00000E+00 1.11778E-03 0.00000E+00 1.00600E-02
      220  0.00000E+00 0.00000E+00-1.00000E-04 0.00000E+00 0.00000E+00 0.00000E+00 0.00000E+00 0.00000E+00 0.00000E+00 0.00000E+00 0.00000E+00 1.00600E-02
      228  0.00000E+00 7.83326E-06-1.00000E-04 0.00000E+00 0.00000E+00 0.00000E+00 0.00000E+00 0.00000E+00 0.00000E+00 2.72200E-19 4.45283E-03 1.00600E-02
      787  0.00000E+00 7.48262E-06-1.00000E-04 0.00000E+00 0.00000E+00 0.00000E+00 0.00000E+00 0.00000E+00 0.00000E+00 3.35400E-19 5.48438E-03 1.00600E-02
      788  0.00000E+00 6.87507E-06-1.00000E-04 0.00000E+00 0.00000E+00 0.00000E+00 0.00000E+00 0.00000E+00 0.00000E+00 3.98500E-19 6.51568E-03 1.00600E-02
      789  0.00000E+00 6.10142E-06-1.00000E-04 0.00000E+00 0.00000E+00 0.00000E+00 0.00000E+00 0.00000E+00 0.00000E+00 4.61700E-19 7.54670E-03 1.00600E-02
      790  0.00000E+00 5.44764E-06-1.00000E-04 0.00000E+00 0.00000E+00 0.00000E+00 0.00000E+00 0.00000E+00 0.00000E+00 5.24900E-19 8.57795E-03 1.00600E-02
      791  0.00000E+00 4.93946E-06-1.00000E-04 0.00000E+00 0.00000E+00 0.00000E+00 0.00000E+00 0.00000E+00 0.00000E+00 5.88100E-19 9.60934E-03 1.00600E-02
      792  0.00000E+00 4.42659E-06-1.00000E-04 0.00000E+00 0.00000E+00 0.00000E+00 0.00000E+00 0.00000E+00 0.00000E+00 6.51300E-19 1.06407E-02 1.00600E-02
      793  0.00000E+00 3.91359E-06-1.00000E-04 0.00000E+00 0.00000E+00 0.00000E+00 0.00000E+00 0.00000E+00 0.00000E+00 7.14500E-19 1.16720E-02 1.00600E-02
      794  0.00000E+00 3.54252E-06-1.00000E-04 0.00000E+00 0.00000E+00 0.00000E+00 0.00000E+00 0.00000E+00 0.00000E+00 7.77700E-19 1.27035E-02 1.00600E-02
      955  1.40492E-06 4.34801E-06-1.00000E-04 0.00000E+00 0.00000E+00 0.00000E+00 0.00000E+00 0.00000E+00 0.00000E+00 3.25090E-03 7.93705E-03 1.00600E-02
      956  1.36809E-06 4.08345E-06-1.00000E-04 0.00000E+00 0.00000E+00 0.00000E+00 0.00000E+00 0.00000E+00 0.00000E+00 3.63797E-03 8.89328E-03 1.00600E-02
      957  2.78047E-06 3.47007E-06-1.00000E-04 0.00000E+00 0.00000E+00 0.00000E+00 0.00000E+00 0.00000E+00 0.00000E+00 6.06878E-03 6.06087E-03 1.00600E-02
      958  2.76371E-06 3.24092E-06-1.00000E-04 0.00000E+00 0.00000E+00 0.00000E+00 0.00000E+00 0.00000E+00 0.00000E+00 6.79946E-03 6.78924E-03 1.00600E-02
      959  3.37538E-06 2.35918E-06-1.00000E-04 0.00000E+00 0.00000E+00 0.00000E+00 0.00000E+00 0.00000E+00 0.00000E+00 7.93318E-03 3.25916E-03 1.00600E-02
      960  3.33814E-06 2.29271E-06-1.00000E-04 0.00000E+00 0.00000E+00 0.00000E+00 0.00000E+00 0.00000E+00 0.00000E+00 8.88884E-03 3.64809E-03 1.00600E-02
      961  3.63696E-06 0.00000E+00-1.00000E-04 0.00000E+00 0.00000E+00 0.00000E+00 0.00000E+00 0.00000E+00 0.00000E+00 8.57614E-03 0.00000E+00 1.00600E-02
      962  3.52851E-06 0.00000E+00-1.00000E-04 0.00000E+00 0.00000E+00 0.00000E+00 0.00000E+00 0.00000E+00 0.00000E+00 9.60793E-03 0.00000E+00 1.00600E-02
      975  1.28985E-06 3.75955E-06-1.00000E-04 0.00000E+00 0.00000E+00 0.00000E+00 0.00000E+00 0.00000E+00 0.00000E+00 4.41219E-03 1.08061E-02 1.00600E-02
      977  1.42646E-06 4.13602E-06-1.00000E-04 0.00000E+00 0.00000E+00 0.00000E+00 0.00000E+00 0.00000E+00 0.00000E+00 4.79953E-03 1.17629E-02 1.00600E-02
      978  2.79039E-06 2.96546E-06-1.00000E-04 0.00000E+00 0.00000E+00 0.00000E+00 0.00000E+00 0.00000E+00 0.00000E+00 8.26079E-03 8.24617E-03 1.00600E-02
      980  2.47524E-06 2.52125E-06-1.00000E-04 0.00000E+00 0.00000E+00 0.00000E+00 0.00000E+00 0.00000E+00 0.00000E+00 8.99118E-03 8.97432E-03 1.00600E-02
      981  3.20772E-06 2.09724E-06-1.00000E-04 0.00000E+00 0.00000E+00 0.00000E+00 0.00000E+00 0.00000E+00 0.00000E+00 1.08001E-02 4.42600E-03 1.00600E-02
      983  3.01552E-06 1.96084E-06-1.00000E-04 0.00000E+00 0.00000E+00 0.00000E+00 0.00000E+00 0.00000E+00 0.00000E+00 1.17557E-02 4.81496E-03 1.00600E-02
      984  3.25901E-06 0.00000E+00-1.00000E-04 0.00000E+00 0.00000E+00 0.00000E+00 0.00000E+00 0.00000E+00 0.00000E+00 1.16714E-02 0.00000E+00 1.00600E-02
      986  3.16174E-06 0.00000E+00-1.00000E-04 0.00000E+00 0.00000E+00 0.00000E+00 0.00000E+00 0.00000E+00 0.00000E+00 1.27032E-02 0.00000E+00 1.00600E-02
     1059  1.43267E-06 4.55248E-06-1.00000E-04 0.00000E+00 0.00000E+00 0.00000E+00 0.00000E+00 0.00000E+00 0.00000E+00 2.86373E-03 6.98075E-03 1.00600E-02
     1061  2.80126E-06 3.76095E-06-1.00000E-04 0.00000E+00 0.00000E+00 0.00000E+00 0.00000E+00 0.00000E+00 0.00000E+00 5.33800E-03 5.33256E-03 1.00600E-02
     1063  3.40173E-06 2.45559E-06-1.00000E-04 0.00000E+00 0.00000E+00 0.00000E+00 0.00000E+00 0.00000E+00 0.00000E+00 6.97740E-03 2.87016E-03 1.00600E-02
     1065  3.75784E-06 0.00000E+00-1.00000E-04 0.00000E+00 0.00000E+00 0.00000E+00 0.00000E+00 0.00000E+00 0.00000E+00 7.54436E-03 0.00000E+00 1.00600E-02
     1071  1.32833E-06 3.88978E-06-1.00000E-04 0.00000E+00 0.00000E+00 0.00000E+00 0.00000E+00 0.00000E+00 0.00000E+00 4.02513E-03 9.84959E-03 1.00600E-02
     1072  2.76591E-06 3.06995E-06-1.00000E-04 0.00000E+00 0.00000E+00 0.00000E+00 0.00000E+00 0.00000E+00 0.00000E+00 7.53017E-03 7.51767E-03 1.00600E-02
     1073  3.29655E-06 2.21760E-06-1.00000E-04 0.00000E+00 0.00000E+00 0.00000E+00 0.00000E+00 0.00000E+00 0.00000E+00 9.84450E-03 4.03702E-03 1.00600E-02
     1074  3.40063E-06 0.00000E+00-1.00000E-04 0.00000E+00 0.00000E+00 0.00000E+00 0.00000E+00 0.00000E+00 0.00000E+00 1.06397E-02 0.00000E+00 1.00600E-02
     1111  1.45364E-06 4.74531E-06-1.00000E-04 0.00000E+00 0.00000E+00 0.00000E+00 0.00000E+00 0.00000E+00 0.00000E+00 2.47655E-03 6.02445E-03 1.00600E-02
     1112  2.78164E-06 4.00620E-06-1.00000E-04 0.00000E+00 0.00000E+00 0.00000E+00 0.00000E+00 0.00000E+00 0.00000E+00 4.60728E-03 4.60431E-03 1.00600E-02
     1113  3.37030E-06 2.57110E-06-1.00000E-04 0.00000E+00 0.00000E+00 0.00000E+00 0.00000E+00 0.00000E+00 0.00000E+00 6.02167E-03 2.48137E-03 1.00600E-02
     1114  3.92313E-06 0.00000E+00-1.00000E-04 0.00000E+00 0.00000E+00 0.00000E+00 0.00000E+00 0.00000E+00 0.00000E+00 6.51272E-03 0.00000E+00 1.00600E-02
     1135  1.41128E-06 4.85863E-06-1.00000E-04 0.00000E+00 0.00000E+00 0.00000E+00 0.00000E+00 0.00000E+00 0.00000E+00 2.08941E-03 5.06806E-03 1.00600E-02
     1136  2.70841E-06 4.12405E-06-1.00000E-04 0.00000E+00 0.00000E+00 0.00000E+00 0.00000E+00 0.00000E+00 0.00000E+00 3.87651E-03 3.87582E-03 1.00600E-02
     1137  3.26142E-06 2.60471E-06-1.00000E-04 0.00000E+00 0.00000E+00 0.00000E+00 0.00000E+00 0.00000E+00 0.00000E+00 5.06576E-03 2.09240E-03 1.00600E-02
     1138  4.23645E-06 0.00000E+00-1.00000E-04 0.00000E+00 0.00000E+00 0.00000E+00 0.00000E+00 0.00000E+00 0.00000E+00 5.48114E-03 0.00000E+00 1.00600E-02
