 LS-DYNA keyword deck by LS-PrePost                                      
                    ls-dyna smp d R14 R14.1.1s_1_ef50e1 date 06/16/2024
 single point constraint forces

 output at time =   0.00000E+00
 node=     1 local x,y,z forces =    0.0000E+00    0.0000E+00    0.0000E+00  setid=       0
 node=     1 local x,y,z moments=    0.0000E+00    0.0000E+00    0.0000E+00  setid=       0
 node=     2 local x,y,z forces =    0.0000E+00    0.0000E+00    0.0000E+00  setid=       0
 node=     2 local x,y,z moments=    0.0000E+00    0.0000E+00    0.0000E+00  setid=       0
 node=     3 local x,y,z forces =    0.0000E+00    0.0000E+00    0.0000E+00  setid=       0
 node=     3 local x,y,z moments=    0.0000E+00    0.0000E+00    0.0000E+00  setid=       0
 node=     4 local x,y,z forces =    0.0000E+00    0.0000E+00    0.0000E+00  setid=       0
 node=     4 local x,y,z moments=    0.0000E+00    0.0000E+00    0.0000E+00  setid=       0
 node=     5 local x,y,z forces =    0.0000E+00    0.0000E+00    0.0000E+00  setid=       0
 node=     5 local x,y,z moments=    0.0000E+00    0.0000E+00    0.0000E+00  setid=       0
 node=     6 local x,y,z forces =    0.0000E+00    0.0000E+00    0.0000E+00  setid=       0
 node=     6 local x,y,z moments=    0.0000E+00    0.0000E+00    0.0000E+00  setid=       0
 node=     7 local x,y,z forces =    0.0000E+00    0.0000E+00    0.0000E+00  setid=       0
 node=     7 local x,y,z moments=    0.0000E+00    0.0000E+00    0.0000E+00  setid=       0
 node=     8 local x,y,z forces =    0.0000E+00    0.0000E+00    0.0000E+00  setid=       0
 node=     8 local x,y,z moments=    0.0000E+00    0.0000E+00    0.0000E+00  setid=       0
 node=     9 local x,y,z forces =    0.0000E+00    0.0000E+00    0.0000E+00  setid=       0
 node=     9 local x,y,z moments=    0.0000E+00    0.0000E+00    0.0000E+00  setid=       0
 node=    10 local x,y,z forces =    0.0000E+00    0.0000E+00    0.0000E+00  setid=       0
 node=    10 local x,y,z moments=    0.0000E+00    0.0000E+00    0.0000E+00  setid=       0
 node=    11 local x,y,z forces =    0.0000E+00    0.0000E+00    0.0000E+00  setid=       0
 node=    11 local x,y,z moments=    0.0000E+00    0.0000E+00    0.0000E+00  setid=       0
 node=    12 local x,y,z forces =    0.0000E+00    0.0000E+00    0.0000E+00  setid=       0
 node=    12 local x,y,z moments=    0.0000E+00    0.0000E+00    0.0000E+00  setid=       0
 node=    13 local x,y,z forces =    0.0000E+00    0.0000E+00    0.0000E+00  setid=       0
 node=    13 local x,y,z moments=    0.0000E+00    0.0000E+00    0.0000E+00  setid=       0
 node=    14 local x,y,z forces =    0.0000E+00    0.0000E+00    0.0000E+00  setid=       0
 node=    14 local x,y,z moments=    0.0000E+00    0.0000E+00    0.0000E+00  setid=       0
 node=    15 local x,y,z forces =    0.0000E+00    0.0000E+00    0.0000E+00  setid=       0
 node=    15 local x,y,z moments=    0.0000E+00    0.0000E+00    0.0000E+00  setid=       0
 node=    16 local x,y,z forces =    0.0000E+00    0.0000E+00    0.0000E+00  setid=       0
 node=    16 local x,y,z moments=    0.0000E+00    0.0000E+00    0.0000E+00  setid=       0
 node=    17 local x,y,z forces =    0.0000E+00    0.0000E+00    0.0000E+00  setid=       0
 node=    17 local x,y,z moments=    0.0000E+00    0.0000E+00    0.0000E+00  setid=       0
 node=    18 local x,y,z forces =    0.0000E+00    0.0000E+00    0.0000E+00  setid=       0
 node=    18 local x,y,z moments=    0.0000E+00    0.0000E+00    0.0000E+00  setid=       0
 node=    19 local x,y,z forces =    0.0000E+00    0.0000E+00    0.0000E+00  setid=       0
 node=    19 local x,y,z moments=    0.0000E+00    0.0000E+00    0.0000E+00  setid=       0
 node=    46 local x,y,z forces =    0.0000E+00    0.0000E+00    0.0000E+00  setid=       0
 node=    46 local x,y,z moments=    0.0000E+00    0.0000E+00    0.0000E+00  setid=       0
 node=    47 local x,y,z forces =    0.0000E+00    0.0000E+00    0.0000E+00  setid=       0
 node=    47 local x,y,z moments=    0.0000E+00    0.0000E+00    0.0000E+00  setid=       0
 node=    50 local x,y,z forces =    0.0000E+00    0.0000E+00    0.0000E+00  setid=       0
 node=    50 local x,y,z moments=    0.0000E+00    0.0000E+00    0.0000E+00  setid=       0
 node=    51 local x,y,z forces =    0.0000E+00    0.0000E+00    0.0000E+00  setid=       0
 node=    51 local x,y,z moments=    0.0000E+00    0.0000E+00    0.0000E+00  setid=       0
 node=    54 local x,y,z forces =    0.0000E+00    0.0000E+00    0.0000E+00  setid=       0
 node=    54 local x,y,z moments=    0.0000E+00    0.0000E+00    0.0000E+00  setid=       0
 node=    55 local x,y,z forces =    0.0000E+00    0.0000E+00    0.0000E+00  setid=       0
 node=    55 local x,y,z moments=    0.0000E+00    0.0000E+00    0.0000E+00  setid=       0
 node=    56 local x,y,z forces =    0.0000E+00    0.0000E+00    0.0000E+00  setid=       0
 node=    56 local x,y,z moments=    0.0000E+00    0.0000E+00    0.0000E+00  setid=       0
 node=    57 local x,y,z forces =    0.0000E+00    0.0000E+00    0.0000E+00  setid=       0
 node=    57 local x,y,z moments=    0.0000E+00    0.0000E+00    0.0000E+00  setid=       0
 node=    58 local x,y,z forces =    0.0000E+00    0.0000E+00    0.0000E+00  setid=       0
 node=    58 local x,y,z moments=    0.0000E+00    0.0000E+00    0.0000E+00  setid=       0
 node=    59 local x,y,z forces =    0.0000E+00    0.0000E+00    0.0000E+00  setid=       0
 node=    59 local x,y,z moments=    0.0000E+00    0.0000E+00    0.0000E+00  setid=       0
 node=    60 local x,y,z forces =    0.0000E+00    0.0000E+00    0.0000E+00  setid=       0
 node=    60 local x,y,z moments=    0.0000E+00    0.0000E+00    0.0000E+00  setid=       0
 node=    61 local x,y,z forces =    0.0000E+00    0.0000E+00    0.0000E+00  setid=       0
 node=    61 local x,y,z moments=    0.0000E+00    0.0000E+00    0.0000E+00  setid=       0
 node=    62 local x,y,z forces =    0.0000E+00    0.0000E+00    0.0000E+00  setid=       0
 node=    62 local x,y,z moments=    0.0000E+00    0.0000E+00    0.0000E+00  setid=       0
 node=    63 local x,y,z forces =    0.0000E+00    0.0000E+00    0.0000E+00  setid=       0
 node=    63 local x,y,z moments=    0.0000E+00    0.0000E+00    0.0000E+00  setid=       0
 node=    64 local x,y,z forces =    0.0000E+00    0.0000E+00    0.0000E+00  setid=       0
 node=    64 local x,y,z moments=    0.0000E+00    0.0000E+00    0.0000E+00  setid=       0
 node=    65 local x,y,z forces =    0.0000E+00    0.0000E+00    0.0000E+00  setid=       0
 node=    65 local x,y,z moments=    0.0000E+00    0.0000E+00    0.0000E+00  setid=       0
 node=    66 local x,y,z forces =    0.0000E+00    0.0000E+00    0.0000E+00  setid=       0
 node=    66 local x,y,z moments=    0.0000E+00    0.0000E+00    0.0000E+00  setid=       0
 node=    67 local x,y,z forces =    0.0000E+00    0.0000E+00    0.0000E+00  setid=       0
 node=    67 local x,y,z moments=    0.0000E+00    0.0000E+00    0.0000E+00  setid=       0
 node=    68 local x,y,z forces =    0.0000E+00    0.0000E+00    0.0000E+00  setid=       0
 node=    68 local x,y,z moments=    0.0000E+00    0.0000E+00    0.0000E+00  setid=       0
 node=    69 local x,y,z forces =    0.0000E+00    0.0000E+00    0.0000E+00  setid=       0
 node=    69 local x,y,z moments=    0.0000E+00    0.0000E+00    0.0000E+00  setid=       0
 node=    70 local x,y,z forces =    0.0000E+00    0.0000E+00    0.0000E+00  setid=       0
 node=    70 local x,y,z moments=    0.0000E+00    0.0000E+00    0.0000E+00  setid=       0
 node=    71 local x,y,z forces =    0.0000E+00    0.0000E+00    0.0000E+00  setid=       0
 node=    71 local x,y,z moments=    0.0000E+00    0.0000E+00    0.0000E+00  setid=       0
 node=    72 local x,y,z forces =    0.0000E+00    0.0000E+00    0.0000E+00  setid=       0
 node=    72 local x,y,z moments=    0.0000E+00    0.0000E+00    0.0000E+00  setid=       0
 node=    73 local x,y,z forces =    0.0000E+00    0.0000E+00    0.0000E+00  setid=       0
 node=    73 local x,y,z moments=    0.0000E+00    0.0000E+00    0.0000E+00  setid=       0
 node=    74 local x,y,z forces =    0.0000E+00    0.0000E+00    0.0000E+00  setid=       0
 node=    74 local x,y,z moments=    0.0000E+00    0.0000E+00    0.0000E+00  setid=       0
 node=    75 local x,y,z forces =    0.0000E+00    0.0000E+00    0.0000E+00  setid=       0
 node=    75 local x,y,z moments=    0.0000E+00    0.0000E+00    0.0000E+00  setid=       0
 node=    76 local x,y,z forces =    0.0000E+00    0.0000E+00    0.0000E+00  setid=       0
 node=    76 local x,y,z moments=    0.0000E+00    0.0000E+00    0.0000E+00  setid=       0
 node=   111 local x,y,z forces =    0.0000E+00    0.0000E+00    0.0000E+00  setid=       0
 node=   111 local x,y,z moments=    0.0000E+00    0.0000E+00    0.0000E+00  setid=       0
 node=   112 local x,y,z forces =    0.0000E+00    0.0000E+00    0.0000E+00  setid=       0
 node=   112 local x,y,z moments=    0.0000E+00    0.0000E+00    0.0000E+00  setid=       0
 node=   115 local x,y,z forces =    0.0000E+00    0.0000E+00    0.0000E+00  setid=       0
 node=   115 local x,y,z moments=    0.0000E+00    0.0000E+00    0.0000E+00  setid=       0
 node=   116 local x,y,z forces =    0.0000E+00    0.0000E+00    0.0000E+00  setid=       0
 node=   116 local x,y,z moments=    0.0000E+00    0.0000E+00    0.0000E+00  setid=       0
 node=   119 local x,y,z forces =    0.0000E+00    0.0000E+00    0.0000E+00  setid=       0
 node=   119 local x,y,z moments=    0.0000E+00    0.0000E+00    0.0000E+00  setid=       0
 node=   120 local x,y,z forces =    0.0000E+00    0.0000E+00    0.0000E+00  setid=       0
 node=   120 local x,y,z moments=    0.0000E+00    0.0000E+00    0.0000E+00  setid=       0
 node=   123 local x,y,z forces =    0.0000E+00    0.0000E+00    0.0000E+00  setid=       0
 node=   123 local x,y,z moments=    0.0000E+00    0.0000E+00    0.0000E+00  setid=       0
 node=   124 local x,y,z forces =    0.0000E+00    0.0000E+00    0.0000E+00  setid=       0
 node=   124 local x,y,z moments=    0.0000E+00    0.0000E+00    0.0000E+00  setid=       0
 node=   127 local x,y,z forces =    0.0000E+00    0.0000E+00    0.0000E+00  setid=       0
 node=   127 local x,y,z moments=    0.0000E+00    0.0000E+00    0.0000E+00  setid=       0
 node=   128 local x,y,z forces =    0.0000E+00    0.0000E+00    0.0000E+00  setid=       0
 node=   128 local x,y,z moments=    0.0000E+00    0.0000E+00    0.0000E+00  setid=       0
 node=   131 local x,y,z forces =    0.0000E+00    0.0000E+00    0.0000E+00  setid=       0
 node=   131 local x,y,z moments=    0.0000E+00    0.0000E+00    0.0000E+00  setid=       0
 node=   132 local x,y,z forces =    0.0000E+00    0.0000E+00    0.0000E+00  setid=       0
 node=   132 local x,y,z moments=    0.0000E+00    0.0000E+00    0.0000E+00  setid=       0
 node=   135 local x,y,z forces =    0.0000E+00    0.0000E+00    0.0000E+00  setid=       0
 node=   135 local x,y,z moments=    0.0000E+00    0.0000E+00    0.0000E+00  setid=       0
 node=   136 local x,y,z forces =    0.0000E+00    0.0000E+00    0.0000E+00  setid=       0
 node=   136 local x,y,z moments=    0.0000E+00    0.0000E+00    0.0000E+00  setid=       0
 node=   139 local x,y,z forces =    0.0000E+00    0.0000E+00    0.0000E+00  setid=       0
 node=   139 local x,y,z moments=    0.0000E+00    0.0000E+00    0.0000E+00  setid=       0
 node=   140 local x,y,z forces =    0.0000E+00    0.0000E+00    0.0000E+00  setid=       0
 node=   140 local x,y,z moments=    0.0000E+00    0.0000E+00    0.0000E+00  setid=       0
 node=   141 local x,y,z forces =    0.0000E+00    0.0000E+00    0.0000E+00  setid=       0
 node=   141 local x,y,z moments=    0.0000E+00    0.0000E+00    0.0000E+00  setid=       0
 node=   143 local x,y,z forces =    0.0000E+00    0.0000E+00    0.0000E+00  setid=       0
 node=   143 local x,y,z moments=    0.0000E+00    0.0000E+00    0.0000E+00  setid=       0
 node=   144 local x,y,z forces =    0.0000E+00    0.0000E+00    0.0000E+00  setid=       0
 node=   144 local x,y,z moments=    0.0000E+00    0.0000E+00    0.0000E+00  setid=       0
 node=   146 local x,y,z forces =    0.0000E+00    0.0000E+00    0.0000E+00  setid=       0
 node=   146 local x,y,z moments=    0.0000E+00    0.0000E+00    0.0000E+00  setid=       0
 node=   147 local x,y,z forces =    0.0000E+00    0.0000E+00    0.0000E+00  setid=       0
 node=   147 local x,y,z moments=    0.0000E+00    0.0000E+00    0.0000E+00  setid=       0
 node=   149 local x,y,z forces =    0.0000E+00    0.0000E+00    0.0000E+00  setid=       0
 node=   149 local x,y,z moments=    0.0000E+00    0.0000E+00    0.0000E+00  setid=       0
 node=   150 local x,y,z forces =    0.0000E+00    0.0000E+00    0.0000E+00  setid=       0
 node=   150 local x,y,z moments=    0.0000E+00    0.0000E+00    0.0000E+00  setid=       0
 node=   152 local x,y,z forces =    0.0000E+00    0.0000E+00    0.0000E+00  setid=       0
 node=   152 local x,y,z moments=    0.0000E+00    0.0000E+00    0.0000E+00  setid=       0
 node=   153 local x,y,z forces =    0.0000E+00    0.0000E+00    0.0000E+00  setid=       0
 node=   153 local x,y,z moments=    0.0000E+00    0.0000E+00    0.0000E+00  setid=       0
 node=   155 local x,y,z forces =    0.0000E+00    0.0000E+00    0.0000E+00  setid=       0
 node=   155 local x,y,z moments=    0.0000E+00    0.0000E+00    0.0000E+00  setid=       0
 node=   156 local x,y,z forces =    0.0000E+00    0.0000E+00    0.0000E+00  setid=       0
 node=   156 local x,y,z moments=    0.0000E+00    0.0000E+00    0.0000E+00  setid=       0
 node=   158 local x,y,z forces =    0.0000E+00    0.0000E+00    0.0000E+00  setid=       0
 node=   158 local x,y,z moments=    0.0000E+00    0.0000E+00    0.0000E+00  setid=       0
 node=   159 local x,y,z forces =    0.0000E+00    0.0000E+00    0.0000E+00  setid=       0
 node=   159 local x,y,z moments=    0.0000E+00    0.0000E+00    0.0000E+00  setid=       0
 node=   161 local x,y,z forces =    0.0000E+00    0.0000E+00    0.0000E+00  setid=       0
 node=   161 local x,y,z moments=    0.0000E+00    0.0000E+00    0.0000E+00  setid=       0
 node=   162 local x,y,z forces =    0.0000E+00    0.0000E+00    0.0000E+00  setid=       0
 node=   162 local x,y,z moments=    0.0000E+00    0.0000E+00    0.0000E+00  setid=       0
 node=   164 local x,y,z forces =    0.0000E+00    0.0000E+00    0.0000E+00  setid=       0
 node=   164 local x,y,z moments=    0.0000E+00    0.0000E+00    0.0000E+00  setid=       0
 node=   166 local x,y,z forces =    0.0000E+00    0.0000E+00    0.0000E+00  setid=       0
 node=   166 local x,y,z moments=    0.0000E+00    0.0000E+00    0.0000E+00  setid=       0
 node=   168 local x,y,z forces =    0.0000E+00    0.0000E+00    0.0000E+00  setid=       0
 node=   168 local x,y,z moments=    0.0000E+00    0.0000E+00    0.0000E+00  setid=       0
 node=   170 local x,y,z forces =    0.0000E+00    0.0000E+00    0.0000E+00  setid=       0
 node=   170 local x,y,z moments=    0.0000E+00    0.0000E+00    0.0000E+00  setid=       0
 node=   172 local x,y,z forces =    0.0000E+00    0.0000E+00    0.0000E+00  setid=       0
 node=   172 local x,y,z moments=    0.0000E+00    0.0000E+00    0.0000E+00  setid=       0
 node=   174 local x,y,z forces =    0.0000E+00    0.0000E+00    0.0000E+00  setid=       0
 node=   174 local x,y,z moments=    0.0000E+00    0.0000E+00    0.0000E+00  setid=       0
 node=   176 local x,y,z forces =    0.0000E+00    0.0000E+00    0.0000E+00  setid=       0
 node=   176 local x,y,z moments=    0.0000E+00    0.0000E+00    0.0000E+00  setid=       0
 node=   178 local x,y,z forces =    0.0000E+00    0.0000E+00    0.0000E+00  setid=       0
 node=   178 local x,y,z moments=    0.0000E+00    0.0000E+00    0.0000E+00  setid=       0
 node=   180 local x,y,z forces =    0.0000E+00    0.0000E+00    0.0000E+00  setid=       0
 node=   180 local x,y,z moments=    0.0000E+00    0.0000E+00    0.0000E+00  setid=       0
 node=   189 local x,y,z forces =    0.0000E+00    0.0000E+00    0.0000E+00  setid=       0
 node=   189 local x,y,z moments=    0.0000E+00    0.0000E+00    0.0000E+00  setid=       0
 node=   191 local x,y,z forces =    0.0000E+00    0.0000E+00    0.0000E+00  setid=       0
 node=   191 local x,y,z moments=    0.0000E+00    0.0000E+00    0.0000E+00  setid=       0
 node=   192 local x,y,z forces =    0.0000E+00    0.0000E+00    0.0000E+00  setid=       0
 node=   192 local x,y,z moments=    0.0000E+00    0.0000E+00    0.0000E+00  setid=       0
 node=   194 local x,y,z forces =    0.0000E+00    0.0000E+00    0.0000E+00  setid=       0
 node=   194 local x,y,z moments=    0.0000E+00    0.0000E+00    0.0000E+00  setid=       0
 node=   195 local x,y,z forces =    0.0000E+00    0.0000E+00    0.0000E+00  setid=       0
 node=   195 local x,y,z moments=    0.0000E+00    0.0000E+00    0.0000E+00  setid=       0
 node=   197 local x,y,z forces =    0.0000E+00    0.0000E+00    0.0000E+00  setid=       0
 node=   197 local x,y,z moments=    0.0000E+00    0.0000E+00    0.0000E+00  setid=       0
 node=   198 local x,y,z forces =    0.0000E+00    0.0000E+00    0.0000E+00  setid=       0
 node=   198 local x,y,z moments=    0.0000E+00    0.0000E+00    0.0000E+00  setid=       0
 node=   200 local x,y,z forces =    0.0000E+00    0.0000E+00    0.0000E+00  setid=       0
 node=   200 local x,y,z moments=    0.0000E+00    0.0000E+00    0.0000E+00  setid=       0
 node=   201 local x,y,z forces =    0.0000E+00    0.0000E+00    0.0000E+00  setid=       0
 node=   201 local x,y,z moments=    0.0000E+00    0.0000E+00    0.0000E+00  setid=       0
 node=   203 local x,y,z forces =    0.0000E+00    0.0000E+00    0.0000E+00  setid=       0
 node=   203 local x,y,z moments=    0.0000E+00    0.0000E+00    0.0000E+00  setid=       0
 node=   204 local x,y,z forces =    0.0000E+00    0.0000E+00    0.0000E+00  setid=       0
 node=   204 local x,y,z moments=    0.0000E+00    0.0000E+00    0.0000E+00  setid=       0
 node=   206 local x,y,z forces =    0.0000E+00    0.0000E+00    0.0000E+00  setid=       0
 node=   206 local x,y,z moments=    0.0000E+00    0.0000E+00    0.0000E+00  setid=       0
 node=   207 local x,y,z forces =    0.0000E+00    0.0000E+00    0.0000E+00  setid=       0
 node=   207 local x,y,z moments=    0.0000E+00    0.0000E+00    0.0000E+00  setid=       0
 node=   209 local x,y,z forces =    0.0000E+00    0.0000E+00    0.0000E+00  setid=       0
 node=   209 local x,y,z moments=    0.0000E+00    0.0000E+00    0.0000E+00  setid=       0
 node=   210 local x,y,z forces =    0.0000E+00    0.0000E+00    0.0000E+00  setid=       0
 node=   210 local x,y,z moments=    0.0000E+00    0.0000E+00    0.0000E+00  setid=       0
 node=   212 local x,y,z forces =    0.0000E+00    0.0000E+00    0.0000E+00  setid=       0
 node=   212 local x,y,z moments=    0.0000E+00    0.0000E+00    0.0000E+00  setid=       0
 node=   213 local x,y,z forces =    0.0000E+00    0.0000E+00    0.0000E+00  setid=       0
 node=   213 local x,y,z moments=    0.0000E+00    0.0000E+00    0.0000E+00  setid=       0
 node=   214 local x,y,z forces =    0.0000E+00    0.0000E+00    0.0000E+00  setid=       0
 node=   214 local x,y,z moments=    0.0000E+00    0.0000E+00    0.0000E+00  setid=       0
 node=   215 local x,y,z forces =    0.0000E+00    0.0000E+00    0.0000E+00  setid=       0
 node=   215 local x,y,z moments=    0.0000E+00    0.0000E+00    0.0000E+00  setid=       0
 node=   216 local x,y,z forces =    0.0000E+00    0.0000E+00    0.0000E+00  setid=       0
 node=   216 local x,y,z moments=    0.0000E+00    0.0000E+00    0.0000E+00  setid=       0
 node=   217 local x,y,z forces =    0.0000E+00    0.0000E+00    0.0000E+00  setid=       0
 node=   217 local x,y,z moments=    0.0000E+00    0.0000E+00    0.0000E+00  setid=       0
 node=   218 local x,y,z forces =    0.0000E+00    0.0000E+00    0.0000E+00  setid=       0
 node=   218 local x,y,z moments=    0.0000E+00    0.0000E+00    0.0000E+00  setid=       0
 node=   219 local x,y,z forces =    0.0000E+00    0.0000E+00    0.0000E+00  setid=       0
 node=   219 local x,y,z moments=    0.0000E+00    0.0000E+00    0.0000E+00  setid=       0
 node=   220 local x,y,z forces =    0.0000E+00    0.0000E+00    0.0000E+00  setid=       0
 node=   220 local x,y,z moments=    0.0000E+00    0.0000E+00    0.0000E+00  setid=       0
 node=   221 local x,y,z forces =    0.0000E+00    0.0000E+00    0.0000E+00  setid=       0
 node=   221 local x,y,z moments=    0.0000E+00    0.0000E+00    0.0000E+00  setid=       0
 node=   222 local x,y,z forces =    0.0000E+00    0.0000E+00    0.0000E+00  setid=       0
 node=   222 local x,y,z moments=    0.0000E+00    0.0000E+00    0.0000E+00  setid=       0
 node=   223 local x,y,z forces =    0.0000E+00    0.0000E+00    0.0000E+00  setid=       0
 node=   223 local x,y,z moments=    0.0000E+00    0.0000E+00    0.0000E+00  setid=       0
 node=   224 local x,y,z forces =    0.0000E+00    0.0000E+00    0.0000E+00  setid=       0
 node=   224 local x,y,z moments=    0.0000E+00    0.0000E+00    0.0000E+00  setid=       0
 node=   225 local x,y,z forces =    0.0000E+00    0.0000E+00    0.0000E+00  setid=       0
 node=   225 local x,y,z moments=    0.0000E+00    0.0000E+00    0.0000E+00  setid=       0
 node=   226 local x,y,z forces =    0.0000E+00    0.0000E+00    0.0000E+00  setid=       0
 node=   226 local x,y,z moments=    0.0000E+00    0.0000E+00    0.0000E+00  setid=       0
 node=   227 local x,y,z forces =    0.0000E+00    0.0000E+00    0.0000E+00  setid=       0
 node=   227 local x,y,z moments=    0.0000E+00    0.0000E+00    0.0000E+00  setid=       0
 node=   228 local x,y,z forces =    0.0000E+00    0.0000E+00    0.0000E+00  setid=       0
 node=   228 local x,y,z moments=    0.0000E+00    0.0000E+00    0.0000E+00  setid=       0
 node=   787 local x,y,z forces =    0.0000E+00    0.0000E+00    0.0000E+00  setid=       0
 node=   787 local x,y,z moments=    0.0000E+00    0.0000E+00    0.0000E+00  setid=       0
 node=   788 local x,y,z forces =    0.0000E+00    0.0000E+00    0.0000E+00  setid=       0
 node=   788 local x,y,z moments=    0.0000E+00    0.0000E+00    0.0000E+00  setid=       0
 node=   789 local x,y,z forces =    0.0000E+00    0.0000E+00    0.0000E+00  setid=       0
 node=   789 local x,y,z moments=    0.0000E+00    0.0000E+00    0.0000E+00  setid=       0
 node=   790 local x,y,z forces =    0.0000E+00    0.0000E+00    0.0000E+00  setid=       0
 node=   790 local x,y,z moments=    0.0000E+00    0.0000E+00    0.0000E+00  setid=       0
 node=   791 local x,y,z forces =    0.0000E+00    0.0000E+00    0.0000E+00  setid=       0
 node=   791 local x,y,z moments=    0.0000E+00    0.0000E+00    0.0000E+00  setid=       0
 node=   792 local x,y,z forces =    0.0000E+00    0.0000E+00    0.0000E+00  setid=       0
 node=   792 local x,y,z moments=    0.0000E+00    0.0000E+00    0.0000E+00  setid=       0
 node=   793 local x,y,z forces =    0.0000E+00    0.0000E+00    0.0000E+00  setid=       0
 node=   793 local x,y,z moments=    0.0000E+00    0.0000E+00    0.0000E+00  setid=       0
 node=   794 local x,y,z forces =    0.0000E+00    0.0000E+00    0.0000E+00  setid=       0
 node=   794 local x,y,z moments=    0.0000E+00    0.0000E+00    0.0000E+00  setid=       0
 node=   795 local x,y,z forces =    0.0000E+00    0.0000E+00    0.0000E+00  setid=       0
 node=   795 local x,y,z moments=    0.0000E+00    0.0000E+00    0.0000E+00  setid=       0
 node=   796 local x,y,z forces =    0.0000E+00    0.0000E+00    0.0000E+00  setid=       0
 node=   796 local x,y,z moments=    0.0000E+00    0.0000E+00    0.0000E+00  setid=       0
 node=   797 local x,y,z forces =    0.0000E+00    0.0000E+00    0.0000E+00  setid=       0
 node=   797 local x,y,z moments=    0.0000E+00    0.0000E+00    0.0000E+00  setid=       0
 node=   798 local x,y,z forces =    0.0000E+00    0.0000E+00    0.0000E+00  setid=       0
 node=   798 local x,y,z moments=    0.0000E+00    0.0000E+00    0.0000E+00  setid=       0
 node=   799 local x,y,z forces =    0.0000E+00    0.0000E+00    0.0000E+00  setid=       0
 node=   799 local x,y,z moments=    0.0000E+00    0.0000E+00    0.0000E+00  setid=       0
 node=   800 local x,y,z forces =    0.0000E+00    0.0000E+00    0.0000E+00  setid=       0
 node=   800 local x,y,z moments=    0.0000E+00    0.0000E+00    0.0000E+00  setid=       0
 node=   801 local x,y,z forces =    0.0000E+00    0.0000E+00    0.0000E+00  setid=       0
 node=   801 local x,y,z moments=    0.0000E+00    0.0000E+00    0.0000E+00  setid=       0
 node=   802 local x,y,z forces =    0.0000E+00    0.0000E+00    0.0000E+00  setid=       0
 node=   802 local x,y,z moments=    0.0000E+00    0.0000E+00    0.0000E+00  setid=       0
 node=   803 local x,y,z forces =    0.0000E+00    0.0000E+00    0.0000E+00  setid=       0
 node=   803 local x,y,z moments=    0.0000E+00    0.0000E+00    0.0000E+00  setid=       0
 node=   804 local x,y,z forces =    0.0000E+00    0.0000E+00    0.0000E+00  setid=       0
 node=   804 local x,y,z moments=    0.0000E+00    0.0000E+00    0.0000E+00  setid=       0
 node=   805 local x,y,z forces =    0.0000E+00    0.0000E+00    0.0000E+00  setid=       0
 node=   805 local x,y,z moments=    0.0000E+00    0.0000E+00    0.0000E+00  setid=       0
 node=   806 local x,y,z forces =    0.0000E+00    0.0000E+00    0.0000E+00  setid=       0
 node=   806 local x,y,z moments=    0.0000E+00    0.0000E+00    0.0000E+00  setid=       0
 node=   807 local x,y,z forces =    0.0000E+00    0.0000E+00    0.0000E+00  setid=       0
 node=   807 local x,y,z moments=    0.0000E+00    0.0000E+00    0.0000E+00  setid=       0
 node=   808 local x,y,z forces =    0.0000E+00    0.0000E+00    0.0000E+00  setid=       0
 node=   808 local x,y,z moments=    0.0000E+00    0.0000E+00    0.0000E+00  setid=       0
 node=   809 local x,y,z forces =    0.0000E+00    0.0000E+00    0.0000E+00  setid=       0
 node=   809 local x,y,z moments=    0.0000E+00    0.0000E+00    0.0000E+00  setid=       0
 node=   810 local x,y,z forces =    0.0000E+00    0.0000E+00    0.0000E+00  setid=       0
 node=   810 local x,y,z moments=    0.0000E+00    0.0000E+00    0.0000E+00  setid=       0
 node=   811 local x,y,z forces =    0.0000E+00    0.0000E+00    0.0000E+00  setid=       0
 node=   811 local x,y,z moments=    0.0000E+00    0.0000E+00    0.0000E+00  setid=       0
 node=   812 local x,y,z forces =    0.0000E+00    0.0000E+00    0.0000E+00  setid=       0
 node=   812 local x,y,z moments=    0.0000E+00    0.0000E+00    0.0000E+00  setid=       0
 node=   813 local x,y,z forces =    0.0000E+00    0.0000E+00    0.0000E+00  setid=       0
 node=   813 local x,y,z moments=    0.0000E+00    0.0000E+00    0.0000E+00  setid=       0
 node=   814 local x,y,z forces =    0.0000E+00    0.0000E+00    0.0000E+00  setid=       0
 node=   814 local x,y,z moments=    0.0000E+00    0.0000E+00    0.0000E+00  setid=       0
 node=   815 local x,y,z forces =    0.0000E+00    0.0000E+00    0.0000E+00  setid=       0
 node=   815 local x,y,z moments=    0.0000E+00    0.0000E+00    0.0000E+00  setid=       0
 node=   816 local x,y,z forces =    0.0000E+00    0.0000E+00    0.0000E+00  setid=       0
 node=   816 local x,y,z moments=    0.0000E+00    0.0000E+00    0.0000E+00  setid=       0
 node=   817 local x,y,z forces =    0.0000E+00    0.0000E+00    0.0000E+00  setid=       0
 node=   817 local x,y,z moments=    0.0000E+00    0.0000E+00    0.0000E+00  setid=       0
 node=   818 local x,y,z forces =    0.0000E+00    0.0000E+00    0.0000E+00  setid=       0
 node=   818 local x,y,z moments=    0.0000E+00    0.0000E+00    0.0000E+00  setid=       0
 node=   819 local x,y,z forces =    0.0000E+00    0.0000E+00    0.0000E+00  setid=       0
 node=   819 local x,y,z moments=    0.0000E+00    0.0000E+00    0.0000E+00  setid=       0
 node=   820 local x,y,z forces =    0.0000E+00    0.0000E+00    0.0000E+00  setid=       0
 node=   820 local x,y,z moments=    0.0000E+00    0.0000E+00    0.0000E+00  setid=       0
 node=   821 local x,y,z forces =    0.0000E+00    0.0000E+00    0.0000E+00  setid=       0
 node=   821 local x,y,z moments=    0.0000E+00    0.0000E+00    0.0000E+00  setid=       0
 node=   822 local x,y,z forces =    0.0000E+00    0.0000E+00    0.0000E+00  setid=       0
 node=   822 local x,y,z moments=    0.0000E+00    0.0000E+00    0.0000E+00  setid=       0
 node=   823 local x,y,z forces =    0.0000E+00    0.0000E+00    0.0000E+00  setid=       0
 node=   823 local x,y,z moments=    0.0000E+00    0.0000E+00    0.0000E+00  setid=       0
 node=   824 local x,y,z forces =    0.0000E+00    0.0000E+00    0.0000E+00  setid=       0
 node=   824 local x,y,z moments=    0.0000E+00    0.0000E+00    0.0000E+00  setid=       0
 node=   825 local x,y,z forces =    0.0000E+00    0.0000E+00    0.0000E+00  setid=       0
 node=   825 local x,y,z moments=    0.0000E+00    0.0000E+00    0.0000E+00  setid=       0
 node=   826 local x,y,z forces =    0.0000E+00    0.0000E+00    0.0000E+00  setid=       0
 node=   826 local x,y,z moments=    0.0000E+00    0.0000E+00    0.0000E+00  setid=       0
 node=   827 local x,y,z forces =    0.0000E+00    0.0000E+00    0.0000E+00  setid=       0
 node=   827 local x,y,z moments=    0.0000E+00    0.0000E+00    0.0000E+00  setid=       0
 node=   828 local x,y,z forces =    0.0000E+00    0.0000E+00    0.0000E+00  setid=       0
 node=   828 local x,y,z moments=    0.0000E+00    0.0000E+00    0.0000E+00  setid=       0
 node=   829 local x,y,z forces =    0.0000E+00    0.0000E+00    0.0000E+00  setid=       0
 node=   829 local x,y,z moments=    0.0000E+00    0.0000E+00    0.0000E+00  setid=       0
 node=   830 local x,y,z forces =    0.0000E+00    0.0000E+00    0.0000E+00  setid=       0
 node=   830 local x,y,z moments=    0.0000E+00    0.0000E+00    0.0000E+00  setid=       0
 node=   831 local x,y,z forces =    0.0000E+00    0.0000E+00    0.0000E+00  setid=       0
 node=   831 local x,y,z moments=    0.0000E+00    0.0000E+00    0.0000E+00  setid=       0
 node=   832 local x,y,z forces =    0.0000E+00    0.0000E+00    0.0000E+00  setid=       0
 node=   832 local x,y,z moments=    0.0000E+00    0.0000E+00    0.0000E+00  setid=       0
 node=   833 local x,y,z forces =    0.0000E+00    0.0000E+00    0.0000E+00  setid=       0
 node=   833 local x,y,z moments=    0.0000E+00    0.0000E+00    0.0000E+00  setid=       0
 node=   834 local x,y,z forces =    0.0000E+00    0.0000E+00    0.0000E+00  setid=       0
 node=   834 local x,y,z moments=    0.0000E+00    0.0000E+00    0.0000E+00  setid=       0
 node=   835 local x,y,z forces =    0.0000E+00    0.0000E+00    0.0000E+00  setid=       0
 node=   835 local x,y,z moments=    0.0000E+00    0.0000E+00    0.0000E+00  setid=       0
 node=   836 local x,y,z forces =    0.0000E+00    0.0000E+00    0.0000E+00  setid=       0
 node=   836 local x,y,z moments=    0.0000E+00    0.0000E+00    0.0000E+00  setid=       0
 node=   837 local x,y,z forces =    0.0000E+00    0.0000E+00    0.0000E+00  setid=       0
 node=   837 local x,y,z moments=    0.0000E+00    0.0000E+00    0.0000E+00  setid=       0
 node=   838 local x,y,z forces =    0.0000E+00    0.0000E+00    0.0000E+00  setid=       0
 node=   838 local x,y,z moments=    0.0000E+00    0.0000E+00    0.0000E+00  setid=       0
 node=   839 local x,y,z forces =    0.0000E+00    0.0000E+00    0.0000E+00  setid=       0
 node=   839 local x,y,z moments=    0.0000E+00    0.0000E+00    0.0000E+00  setid=       0
 node=   840 local x,y,z forces =    0.0000E+00    0.0000E+00    0.0000E+00  setid=       0
 node=   840 local x,y,z moments=    0.0000E+00    0.0000E+00    0.0000E+00  setid=       0
 node=   841 local x,y,z forces =    0.0000E+00    0.0000E+00    0.0000E+00  setid=       0
 node=   841 local x,y,z moments=    0.0000E+00    0.0000E+00    0.0000E+00  setid=       0
 node=   842 local x,y,z forces =    0.0000E+00    0.0000E+00    0.0000E+00  setid=       0
 node=   842 local x,y,z moments=    0.0000E+00    0.0000E+00    0.0000E+00  setid=       0
 node=   843 local x,y,z forces =    0.0000E+00    0.0000E+00    0.0000E+00  setid=       0
 node=   843 local x,y,z moments=    0.0000E+00    0.0000E+00    0.0000E+00  setid=       0
 node=   844 local x,y,z forces =    0.0000E+00    0.0000E+00    0.0000E+00  setid=       0
 node=   844 local x,y,z moments=    0.0000E+00    0.0000E+00    0.0000E+00  setid=       0
 node=   845 local x,y,z forces =    0.0000E+00    0.0000E+00    0.0000E+00  setid=       0
 node=   845 local x,y,z moments=    0.0000E+00    0.0000E+00    0.0000E+00  setid=       0
 node=   846 local x,y,z forces =    0.0000E+00    0.0000E+00    0.0000E+00  setid=       0
 node=   846 local x,y,z moments=    0.0000E+00    0.0000E+00    0.0000E+00  setid=       0
 node=   847 local x,y,z forces =    0.0000E+00    0.0000E+00    0.0000E+00  setid=       0
 node=   847 local x,y,z moments=    0.0000E+00    0.0000E+00    0.0000E+00  setid=       0
 node=   848 local x,y,z forces =    0.0000E+00    0.0000E+00    0.0000E+00  setid=       0
 node=   848 local x,y,z moments=    0.0000E+00    0.0000E+00    0.0000E+00  setid=       0
 node=   849 local x,y,z forces =    0.0000E+00    0.0000E+00    0.0000E+00  setid=       0
 node=   849 local x,y,z moments=    0.0000E+00    0.0000E+00    0.0000E+00  setid=       0
 node=   850 local x,y,z forces =    0.0000E+00    0.0000E+00    0.0000E+00  setid=       0
 node=   850 local x,y,z moments=    0.0000E+00    0.0000E+00    0.0000E+00  setid=       0
 node=   851 local x,y,z forces =    0.0000E+00    0.0000E+00    0.0000E+00  setid=       0
 node=   851 local x,y,z moments=    0.0000E+00    0.0000E+00    0.0000E+00  setid=       0
 node=   852 local x,y,z forces =    0.0000E+00    0.0000E+00    0.0000E+00  setid=       0
 node=   852 local x,y,z moments=    0.0000E+00    0.0000E+00    0.0000E+00  setid=       0
 node=   853 local x,y,z forces =    0.0000E+00    0.0000E+00    0.0000E+00  setid=       0
 node=   853 local x,y,z moments=    0.0000E+00    0.0000E+00    0.0000E+00  setid=       0
 node=   854 local x,y,z forces =    0.0000E+00    0.0000E+00    0.0000E+00  setid=       0
 node=   854 local x,y,z moments=    0.0000E+00    0.0000E+00    0.0000E+00  setid=       0
 node=   855 local x,y,z forces =    0.0000E+00    0.0000E+00    0.0000E+00  setid=       0
 node=   855 local x,y,z moments=    0.0000E+00    0.0000E+00    0.0000E+00  setid=       0
 node=   856 local x,y,z forces =    0.0000E+00    0.0000E+00    0.0000E+00  setid=       0
 node=   856 local x,y,z moments=    0.0000E+00    0.0000E+00    0.0000E+00  setid=       0
 node=   857 local x,y,z forces =    0.0000E+00    0.0000E+00    0.0000E+00  setid=       0
 node=   857 local x,y,z moments=    0.0000E+00    0.0000E+00    0.0000E+00  setid=       0
 node=   858 local x,y,z forces =    0.0000E+00    0.0000E+00    0.0000E+00  setid=       0
 node=   858 local x,y,z moments=    0.0000E+00    0.0000E+00    0.0000E+00  setid=       0
 node=   871 local x,y,z forces =    0.0000E+00    0.0000E+00    0.0000E+00  setid=       0
 node=   871 local x,y,z moments=    0.0000E+00    0.0000E+00    0.0000E+00  setid=       0
 node=   872 local x,y,z forces =    0.0000E+00    0.0000E+00    0.0000E+00  setid=       0
 node=   872 local x,y,z moments=    0.0000E+00    0.0000E+00    0.0000E+00  setid=       0
 node=   873 local x,y,z forces =    0.0000E+00    0.0000E+00    0.0000E+00  setid=       0
 node=   873 local x,y,z moments=    0.0000E+00    0.0000E+00    0.0000E+00  setid=       0
 node=   874 local x,y,z forces =    0.0000E+00    0.0000E+00    0.0000E+00  setid=       0
 node=   874 local x,y,z moments=    0.0000E+00    0.0000E+00    0.0000E+00  setid=       0
 node=   887 local x,y,z forces =    0.0000E+00    0.0000E+00    0.0000E+00  setid=       0
 node=   887 local x,y,z moments=    0.0000E+00    0.0000E+00    0.0000E+00  setid=       0
 node=   888 local x,y,z forces =    0.0000E+00    0.0000E+00    0.0000E+00  setid=       0
 node=   888 local x,y,z moments=    0.0000E+00    0.0000E+00    0.0000E+00  setid=       0
 node=   889 local x,y,z forces =    0.0000E+00    0.0000E+00    0.0000E+00  setid=       0
 node=   889 local x,y,z moments=    0.0000E+00    0.0000E+00    0.0000E+00  setid=       0
 node=   890 local x,y,z forces =    0.0000E+00    0.0000E+00    0.0000E+00  setid=       0
 node=   890 local x,y,z moments=    0.0000E+00    0.0000E+00    0.0000E+00  setid=       0
 node=   903 local x,y,z forces =    0.0000E+00    0.0000E+00    0.0000E+00  setid=       0
 node=   903 local x,y,z moments=    0.0000E+00    0.0000E+00    0.0000E+00  setid=       0
 node=   904 local x,y,z forces =    0.0000E+00    0.0000E+00    0.0000E+00  setid=       0
 node=   904 local x,y,z moments=    0.0000E+00    0.0000E+00    0.0000E+00  setid=       0
 node=   905 local x,y,z forces =    0.0000E+00    0.0000E+00    0.0000E+00  setid=       0
 node=   905 local x,y,z moments=    0.0000E+00    0.0000E+00    0.0000E+00  setid=       0
 node=   906 local x,y,z forces =    0.0000E+00    0.0000E+00    0.0000E+00  setid=       0
 node=   906 local x,y,z moments=    0.0000E+00    0.0000E+00    0.0000E+00  setid=       0
 node=   919 local x,y,z forces =    0.0000E+00    0.0000E+00    0.0000E+00  setid=       0
 node=   919 local x,y,z moments=    0.0000E+00    0.0000E+00    0.0000E+00  setid=       0
 node=   920 local x,y,z forces =    0.0000E+00    0.0000E+00    0.0000E+00  setid=       0
 node=   920 local x,y,z moments=    0.0000E+00    0.0000E+00    0.0000E+00  setid=       0
 node=   921 local x,y,z forces =    0.0000E+00    0.0000E+00    0.0000E+00  setid=       0
 node=   921 local x,y,z moments=    0.0000E+00    0.0000E+00    0.0000E+00  setid=       0
 node=   922 local x,y,z forces =    0.0000E+00    0.0000E+00    0.0000E+00  setid=       0
 node=   922 local x,y,z moments=    0.0000E+00    0.0000E+00    0.0000E+00  setid=       0
 node=   935 local x,y,z forces =    0.0000E+00    0.0000E+00    0.0000E+00  setid=       0
 node=   935 local x,y,z moments=    0.0000E+00    0.0000E+00    0.0000E+00  setid=       0
 node=   936 local x,y,z forces =    0.0000E+00    0.0000E+00    0.0000E+00  setid=       0
 node=   936 local x,y,z moments=    0.0000E+00    0.0000E+00    0.0000E+00  setid=       0
 node=   937 local x,y,z forces =    0.0000E+00    0.0000E+00    0.0000E+00  setid=       0
 node=   937 local x,y,z moments=    0.0000E+00    0.0000E+00    0.0000E+00  setid=       0
 node=   938 local x,y,z forces =    0.0000E+00    0.0000E+00    0.0000E+00  setid=       0
 node=   938 local x,y,z moments=    0.0000E+00    0.0000E+00    0.0000E+00  setid=       0
 node=   951 local x,y,z forces =    0.0000E+00    0.0000E+00    0.0000E+00  setid=       0
 node=   951 local x,y,z moments=    0.0000E+00    0.0000E+00    0.0000E+00  setid=       0
 node=   952 local x,y,z forces =    0.0000E+00    0.0000E+00    0.0000E+00  setid=       0
 node=   952 local x,y,z moments=    0.0000E+00    0.0000E+00    0.0000E+00  setid=       0
 node=   953 local x,y,z forces =    0.0000E+00    0.0000E+00    0.0000E+00  setid=       0
 node=   953 local x,y,z moments=    0.0000E+00    0.0000E+00    0.0000E+00  setid=       0
 node=   954 local x,y,z forces =    0.0000E+00    0.0000E+00    0.0000E+00  setid=       0
 node=   954 local x,y,z moments=    0.0000E+00    0.0000E+00    0.0000E+00  setid=       0
 node=   961 local x,y,z forces =    0.0000E+00    0.0000E+00    0.0000E+00  setid=       0
 node=   961 local x,y,z moments=    0.0000E+00    0.0000E+00    0.0000E+00  setid=       0
 node=   962 local x,y,z forces =    0.0000E+00    0.0000E+00    0.0000E+00  setid=       0
 node=   962 local x,y,z moments=    0.0000E+00    0.0000E+00    0.0000E+00  setid=       0
 node=   972 local x,y,z forces =    0.0000E+00    0.0000E+00    0.0000E+00  setid=       0
 node=   972 local x,y,z moments=    0.0000E+00    0.0000E+00    0.0000E+00  setid=       0
 node=   973 local x,y,z forces =    0.0000E+00    0.0000E+00    0.0000E+00  setid=       0
 node=   973 local x,y,z moments=    0.0000E+00    0.0000E+00    0.0000E+00  setid=       0
 node=   974 local x,y,z forces =    0.0000E+00    0.0000E+00    0.0000E+00  setid=       0
 node=   974 local x,y,z moments=    0.0000E+00    0.0000E+00    0.0000E+00  setid=       0
 node=   984 local x,y,z forces =    0.0000E+00    0.0000E+00    0.0000E+00  setid=       0
 node=   984 local x,y,z moments=    0.0000E+00    0.0000E+00    0.0000E+00  setid=       0
 node=   985 local x,y,z forces =    0.0000E+00    0.0000E+00    0.0000E+00  setid=       0
 node=   985 local x,y,z moments=    0.0000E+00    0.0000E+00    0.0000E+00  setid=       0
 node=   986 local x,y,z forces =    0.0000E+00    0.0000E+00    0.0000E+00  setid=       0
 node=   986 local x,y,z moments=    0.0000E+00    0.0000E+00    0.0000E+00  setid=       0
 node=   993 local x,y,z forces =    0.0000E+00    0.0000E+00    0.0000E+00  setid=       0
 node=   993 local x,y,z moments=    0.0000E+00    0.0000E+00    0.0000E+00  setid=       0
 node=   994 local x,y,z forces =    0.0000E+00    0.0000E+00    0.0000E+00  setid=       0
 node=   994 local x,y,z moments=    0.0000E+00    0.0000E+00    0.0000E+00  setid=       0
 node=   998 local x,y,z forces =    0.0000E+00    0.0000E+00    0.0000E+00  setid=       0
 node=   998 local x,y,z moments=    0.0000E+00    0.0000E+00    0.0000E+00  setid=       0
 node=  1005 local x,y,z forces =    0.0000E+00    0.0000E+00    0.0000E+00  setid=       0
 node=  1005 local x,y,z moments=    0.0000E+00    0.0000E+00    0.0000E+00  setid=       0
 node=  1006 local x,y,z forces =    0.0000E+00    0.0000E+00    0.0000E+00  setid=       0
 node=  1006 local x,y,z moments=    0.0000E+00    0.0000E+00    0.0000E+00  setid=       0
 node=  1013 local x,y,z forces =    0.0000E+00    0.0000E+00    0.0000E+00  setid=       0
 node=  1013 local x,y,z moments=    0.0000E+00    0.0000E+00    0.0000E+00  setid=       0
 node=  1014 local x,y,z forces =    0.0000E+00    0.0000E+00    0.0000E+00  setid=       0
 node=  1014 local x,y,z moments=    0.0000E+00    0.0000E+00    0.0000E+00  setid=       0
 node=  1021 local x,y,z forces =    0.0000E+00    0.0000E+00    0.0000E+00  setid=       0
 node=  1021 local x,y,z moments=    0.0000E+00    0.0000E+00    0.0000E+00  setid=       0
 node=  1022 local x,y,z forces =    0.0000E+00    0.0000E+00    0.0000E+00  setid=       0
 node=  1022 local x,y,z moments=    0.0000E+00    0.0000E+00    0.0000E+00  setid=       0
 node=  1029 local x,y,z forces =    0.0000E+00    0.0000E+00    0.0000E+00  setid=       0
 node=  1029 local x,y,z moments=    0.0000E+00    0.0000E+00    0.0000E+00  setid=       0
 node=  1030 local x,y,z forces =    0.0000E+00    0.0000E+00    0.0000E+00  setid=       0
 node=  1030 local x,y,z moments=    0.0000E+00    0.0000E+00    0.0000E+00  setid=       0
 node=  1034 local x,y,z forces =    0.0000E+00    0.0000E+00    0.0000E+00  setid=       0
 node=  1034 local x,y,z moments=    0.0000E+00    0.0000E+00    0.0000E+00  setid=       0
 node=  1044 local x,y,z forces =    0.0000E+00    0.0000E+00    0.0000E+00  setid=       0
 node=  1044 local x,y,z moments=    0.0000E+00    0.0000E+00    0.0000E+00  setid=       0
 node=  1045 local x,y,z forces =    0.0000E+00    0.0000E+00    0.0000E+00  setid=       0
 node=  1045 local x,y,z moments=    0.0000E+00    0.0000E+00    0.0000E+00  setid=       0
 node=  1046 local x,y,z forces =    0.0000E+00    0.0000E+00    0.0000E+00  setid=       0
 node=  1046 local x,y,z moments=    0.0000E+00    0.0000E+00    0.0000E+00  setid=       0
 node=  1050 local x,y,z forces =    0.0000E+00    0.0000E+00    0.0000E+00  setid=       0
 node=  1050 local x,y,z moments=    0.0000E+00    0.0000E+00    0.0000E+00  setid=       0
 node=  1057 local x,y,z forces =    0.0000E+00    0.0000E+00    0.0000E+00  setid=       0
 node=  1057 local x,y,z moments=    0.0000E+00    0.0000E+00    0.0000E+00  setid=       0
 node=  1058 local x,y,z forces =    0.0000E+00    0.0000E+00    0.0000E+00  setid=       0
 node=  1058 local x,y,z moments=    0.0000E+00    0.0000E+00    0.0000E+00  setid=       0
 node=  1065 local x,y,z forces =    0.0000E+00    0.0000E+00    0.0000E+00  setid=       0
 node=  1065 local x,y,z moments=    0.0000E+00    0.0000E+00    0.0000E+00  setid=       0
 node=  1066 local x,y,z forces =    0.0000E+00    0.0000E+00    0.0000E+00  setid=       0
 node=  1066 local x,y,z moments=    0.0000E+00    0.0000E+00    0.0000E+00  setid=       0
 node=  1070 local x,y,z forces =    0.0000E+00    0.0000E+00    0.0000E+00  setid=       0
 node=  1070 local x,y,z moments=    0.0000E+00    0.0000E+00    0.0000E+00  setid=       0
 node=  1074 local x,y,z forces =    0.0000E+00    0.0000E+00    0.0000E+00  setid=       0
 node=  1074 local x,y,z moments=    0.0000E+00    0.0000E+00    0.0000E+00  setid=       0
 node=  1081 local x,y,z forces =    0.0000E+00    0.0000E+00    0.0000E+00  setid=       0
 node=  1081 local x,y,z moments=    0.0000E+00    0.0000E+00    0.0000E+00  setid=       0
 node=  1082 local x,y,z forces =    0.0000E+00    0.0000E+00    0.0000E+00  setid=       0
 node=  1082 local x,y,z moments=    0.0000E+00    0.0000E+00    0.0000E+00  setid=       0
 node=  1092 local x,y,z forces =    0.0000E+00    0.0000E+00    0.0000E+00  setid=       0
 node=  1092 local x,y,z moments=    0.0000E+00    0.0000E+00    0.0000E+00  setid=       0
 node=  1093 local x,y,z forces =    0.0000E+00    0.0000E+00    0.0000E+00  setid=       0
 node=  1093 local x,y,z moments=    0.0000E+00    0.0000E+00    0.0000E+00  setid=       0
 node=  1094 local x,y,z forces =    0.0000E+00    0.0000E+00    0.0000E+00  setid=       0
 node=  1094 local x,y,z moments=    0.0000E+00    0.0000E+00    0.0000E+00  setid=       0
 node=  1098 local x,y,z forces =    0.0000E+00    0.0000E+00    0.0000E+00  setid=       0
 node=  1098 local x,y,z moments=    0.0000E+00    0.0000E+00    0.0000E+00  setid=       0
 node=  1105 local x,y,z forces =    0.0000E+00    0.0000E+00    0.0000E+00  setid=       0
 node=  1105 local x,y,z moments=    0.0000E+00    0.0000E+00    0.0000E+00  setid=       0
 node=  1106 local x,y,z forces =    0.0000E+00    0.0000E+00    0.0000E+00  setid=       0
 node=  1106 local x,y,z moments=    0.0000E+00    0.0000E+00    0.0000E+00  setid=       0
 node=  1110 local x,y,z forces =    0.0000E+00    0.0000E+00    0.0000E+00  setid=       0
 node=  1110 local x,y,z moments=    0.0000E+00    0.0000E+00    0.0000E+00  setid=       0
 node=  1114 local x,y,z forces =    0.0000E+00    0.0000E+00    0.0000E+00  setid=       0
 node=  1114 local x,y,z moments=    0.0000E+00    0.0000E+00    0.0000E+00  setid=       0
 node=  1118 local x,y,z forces =    0.0000E+00    0.0000E+00    0.0000E+00  setid=       0
 node=  1118 local x,y,z moments=    0.0000E+00    0.0000E+00    0.0000E+00  setid=       0
 node=  1122 local x,y,z forces =    0.0000E+00    0.0000E+00    0.0000E+00  setid=       0
 node=  1122 local x,y,z moments=    0.0000E+00    0.0000E+00    0.0000E+00  setid=       0
 node=  1126 local x,y,z forces =    0.0000E+00    0.0000E+00    0.0000E+00  setid=       0
 node=  1126 local x,y,z moments=    0.0000E+00    0.0000E+00    0.0000E+00  setid=       0
 node=  1130 local x,y,z forces =    0.0000E+00    0.0000E+00    0.0000E+00  setid=       0
 node=  1130 local x,y,z moments=    0.0000E+00    0.0000E+00    0.0000E+00  setid=       0
 node=  1134 local x,y,z forces =    0.0000E+00    0.0000E+00    0.0000E+00  setid=       0
 node=  1134 local x,y,z moments=    0.0000E+00    0.0000E+00    0.0000E+00  setid=       0
 node=  1138 local x,y,z forces =    0.0000E+00    0.0000E+00    0.0000E+00  setid=       0
 node=  1138 local x,y,z moments=    0.0000E+00    0.0000E+00    0.0000E+00  setid=       0
 node=  1142 local x,y,z forces =    0.0000E+00    0.0000E+00    0.0000E+00  setid=       0
 node=  1142 local x,y,z moments=    0.0000E+00    0.0000E+00    0.0000E+00  setid=       0
 node=  1146 local x,y,z forces =    0.0000E+00    0.0000E+00    0.0000E+00  setid=       0
 node=  1146 local x,y,z moments=    0.0000E+00    0.0000E+00    0.0000E+00  setid=       0
             force resultants   =    0.0000E+00    0.0000E+00    0.0000E+00
 output at time =   2.50000E+00
 node=     1 local x,y,z forces =    0.0000E+00    1.8546E+00    1.2756E+01  setid=       0
 node=     1 local x,y,z moments=    2.2440E-03    1.7477E-03   -2.8337E-04  setid=       0
 node=     2 local x,y,z forces =    0.0000E+00    3.4375E+00    1.5514E+01  setid=       0
 node=     2 local x,y,z moments=    1.9077E-03   -3.7721E-05    4.1877E-05  setid=       0
 node=     3 local x,y,z forces =    0.0000E+00    3.5909E+00    9.4719E+00  setid=       0
 node=     3 local x,y,z moments=    6.3709E-04    4.5358E-05    3.1545E-05  setid=       0
 node=     4 local x,y,z forces =    0.0000E+00    3.5601E+00    8.6397E+00  setid=       0
 node=     4 local x,y,z moments=    6.4277E-04    9.3679E-05    1.4270E-05  setid=       0
 node=     5 local x,y,z forces =    1.7921E+00    1.8077E+00    4.2694E+00  setid=       0
 node=     5 local x,y,z moments=    3.2600E-04   -3.0911E-04    1.3899E-06  setid=       0
 node=     6 local x,y,z forces =    3.5803E+00    0.0000E+00    8.3564E+00  setid=       0
 node=     6 local x,y,z moments=   -4.0893E-05   -5.4292E-04   -1.9959E-05  setid=       0
 node=     7 local x,y,z forces =    3.5460E+00    0.0000E+00    9.2137E+00  setid=       0
 node=     7 local x,y,z moments=    5.9527E-05   -5.4104E-04   -4.8924E-05  setid=       0
 node=     8 local x,y,z forces =    3.3738E+00    0.0000E+00    1.5470E+01  setid=       0
 node=     8 local x,y,z moments=    1.2890E-04   -1.9111E-03   -8.0330E-05  setid=       0
 node=     9 local x,y,z forces =    1.9057E+00    0.0000E+00    1.1703E+01  setid=       0
 node=     9 local x,y,z moments=   -1.4175E-03   -2.1009E-03    2.2901E-04  setid=       0
 node=    10 local x,y,z forces =    0.0000E+00    0.0000E+00    2.3177E+01  setid=       0
 node=    10 local x,y,z moments=   -2.4148E-03    1.2473E-03    0.0000E+00  setid=       0
 node=    11 local x,y,z forces =    0.0000E+00    0.0000E+00    2.1979E+01  setid=       0
 node=    11 local x,y,z moments=   -1.3307E-03    1.7497E-03    0.0000E+00  setid=       0
 node=    12 local x,y,z forces =    0.0000E+00    0.0000E+00    2.4640E+01  setid=       0
 node=    12 local x,y,z moments=   -9.8452E-04    3.1013E-03    0.0000E+00  setid=       0
 node=    13 local x,y,z forces =    0.0000E+00    0.0000E+00    1.1772E+01  setid=       0
 node=    13 local x,y,z moments=   -1.8484E-06   -1.3434E-04    0.0000E+00  setid=       0
 node=    14 local x,y,z forces =    0.0000E+00    0.0000E+00    1.7250E+01  setid=       0
 node=    14 local x,y,z moments=    2.0249E-04   -1.2318E-05    0.0000E+00  setid=       0
 node=    15 local x,y,z forces =    0.0000E+00    0.0000E+00    1.7111E+01  setid=       0
 node=    15 local x,y,z moments=    1.6834E-04   -4.3343E-04    0.0000E+00  setid=       0
 node=    16 local x,y,z forces =    0.0000E+00    0.0000E+00    1.6312E+01  setid=       0
 node=    16 local x,y,z moments=   -2.7643E-04    1.9367E-04    0.0000E+00  setid=       0
 node=    17 local x,y,z forces =    0.0000E+00    0.0000E+00    2.7311E+01  setid=       0
 node=    17 local x,y,z moments=   -6.7895E-05   -4.2073E-04    0.0000E+00  setid=       0
 node=    18 local x,y,z forces =    0.0000E+00    0.0000E+00    2.9898E+01  setid=       0
 node=    18 local x,y,z moments=    7.8454E-04   -3.8433E-04    0.0000E+00  setid=       0
 node=    19 local x,y,z forces =    0.0000E+00    0.0000E+00    2.9601E+01  setid=       0
 node=    19 local x,y,z moments=   -2.9184E-04   -1.0566E-03    0.0000E+00  setid=       0
 node=    46 local x,y,z forces =    0.0000E+00    6.5338E+00    0.0000E+00  setid=       0
 node=    46 local x,y,z moments=    8.0549E-05    0.0000E+00    3.0350E-05  setid=       0
 node=    47 local x,y,z forces =    0.0000E+00    6.7029E+00    0.0000E+00  setid=       0
 node=    47 local x,y,z moments=    3.4983E-05    0.0000E+00    6.6421E-05  setid=       0
 node=    50 local x,y,z forces =    0.0000E+00    4.9296E+00    0.0000E+00  setid=       0
 node=    50 local x,y,z moments=    1.3024E-04    0.0000E+00    2.2715E-05  setid=       0
 node=    51 local x,y,z forces =    0.0000E+00    5.1585E+00    0.0000E+00  setid=       0
 node=    51 local x,y,z moments=    4.2650E-05    0.0000E+00    5.2043E-05  setid=       0
 node=    54 local x,y,z forces =    0.0000E+00    4.5207E+00    0.0000E+00  setid=       0
 node=    54 local x,y,z moments=   -3.1339E-04    0.0000E+00   -6.5644E-05  setid=       0
 node=    55 local x,y,z forces =    0.0000E+00    4.4407E+00    0.0000E+00  setid=       0
 node=    55 local x,y,z moments=   -3.7243E-04    0.0000E+00   -1.3513E-04  setid=       0
 node=    56 local x,y,z forces =    0.0000E+00    7.0973E+00    0.0000E+00  setid=       0
 node=    56 local x,y,z moments=   -5.6982E-05    0.0000E+00    1.4280E-04  setid=       0
 node=    57 local x,y,z forces =    0.0000E+00    3.3749E+00    0.0000E+00  setid=       0
 node=    57 local x,y,z moments=    1.9416E-04    0.0000E+00   -4.8429E-04  setid=       0
 node=    58 local x,y,z forces =    0.0000E+00    6.2578E+00    0.0000E+00  setid=       0
 node=    58 local x,y,z moments=   -1.4983E-04    0.0000E+00    7.9318E-05  setid=       0
 node=    59 local x,y,z forces =    0.0000E+00    2.4791E+00    0.0000E+00  setid=       0
 node=    59 local x,y,z moments=    1.5714E-04    0.0000E+00   -3.6316E-04  setid=       0
 node=    60 local x,y,z forces =    0.0000E+00    4.9134E+00    0.0000E+00  setid=       0
 node=    60 local x,y,z moments=   -5.2423E-04    0.0000E+00   -2.4092E-04  setid=       0
 node=    61 local x,y,z forces =    0.0000E+00    1.7513E+00    0.0000E+00  setid=       0
 node=    61 local x,y,z moments=   -3.2937E-04    0.0000E+00   -2.4435E-04  setid=       0
 node=    62 local x,y,z forces =    6.5385E+00    0.0000E+00    0.0000E+00  setid=       0
 node=    62 local x,y,z moments=    0.0000E+00   -1.6008E-04   -6.6174E-05  setid=       0
 node=    63 local x,y,z forces =    6.5721E+00    0.0000E+00    0.0000E+00  setid=       0
 node=    63 local x,y,z moments=    0.0000E+00   -3.4158E-05   -2.7787E-05  setid=       0
 node=    64 local x,y,z forces =    5.1338E+00    0.0000E+00    0.0000E+00  setid=       0
 node=    64 local x,y,z moments=    0.0000E+00   -1.9978E-04   -6.1995E-05  setid=       0
 node=    65 local x,y,z forces =    5.1371E+00    0.0000E+00    0.0000E+00  setid=       0
 node=    65 local x,y,z moments=    0.0000E+00   -3.0174E-05   -3.1817E-05  setid=       0
 node=    66 local x,y,z forces =    4.6295E+00    0.0000E+00    0.0000E+00  setid=       0
 node=    66 local x,y,z moments=    0.0000E+00    5.5984E-05    1.7461E-04  setid=       0
 node=    67 local x,y,z forces =    4.7407E+00    0.0000E+00    0.0000E+00  setid=       0
 node=    67 local x,y,z moments=    0.0000E+00    5.0748E-04    8.9271E-05  setid=       0
 node=    68 local x,y,z forces =    6.6993E+00    0.0000E+00    0.0000E+00  setid=       0
 node=    68 local x,y,z moments=    0.0000E+00   -2.1313E-04   -1.0854E-04  setid=       0
 node=    69 local x,y,z forces =    5.6813E+00    0.0000E+00    0.0000E+00  setid=       0
 node=    69 local x,y,z moments=    0.0000E+00   -1.6787E-04   -1.1126E-04  setid=       0
 node=    70 local x,y,z forces =    4.9088E+00    0.0000E+00    0.0000E+00  setid=       0
 node=    70 local x,y,z moments=    0.0000E+00    1.0027E-04    2.9994E-04  setid=       0
 node=    71 local x,y,z forces =    3.2895E+00    3.3212E+00    0.0000E+00  setid=       0
 node=    71 local x,y,z moments=    4.8150E-05   -1.1113E-05    5.1436E-06  setid=       0
 node=    72 local x,y,z forces =    2.5159E+00    2.5274E+00    0.0000E+00  setid=       0
 node=    72 local x,y,z moments=    6.8513E-05   -1.1463E-05    7.3114E-06  setid=       0
 node=    73 local x,y,z forces =    2.3621E+00    2.3704E+00    0.0000E+00  setid=       0
 node=    73 local x,y,z moments=   -2.1846E-04    3.1951E-04    6.2404E-06  setid=       0
 node=    74 local x,y,z forces =    3.7410E+00    0.0000E+00    0.0000E+00  setid=       0
 node=    74 local x,y,z moments=    0.0000E+00    7.6428E-05    5.2167E-04  setid=       0
 node=    75 local x,y,z forces =    2.4551E+00    0.0000E+00    0.0000E+00  setid=       0
 node=    75 local x,y,z moments=    0.0000E+00    1.2078E-04    4.1100E-04  setid=       0
 node=    76 local x,y,z forces =    2.0840E+00    0.0000E+00    0.0000E+00  setid=       0
 node=    76 local x,y,z moments=    0.0000E+00    2.7518E-04    1.8397E-04  setid=       0
 node=   111 local x,y,z forces =    0.0000E+00    2.6790E+00    0.0000E+00  setid=       0
 node=   111 local x,y,z moments=   -1.7034E-06    0.0000E+00   -8.6768E-05  setid=       0
 node=   112 local x,y,z forces =    0.0000E+00    4.5305E-01    0.0000E+00  setid=       0
 node=   112 local x,y,z moments=   -1.4335E-04    0.0000E+00    1.1829E-04  setid=       0
 node=   115 local x,y,z forces =    0.0000E+00    5.2928E-01    0.0000E+00  setid=       0
 node=   115 local x,y,z moments=   -3.8097E-05    0.0000E+00   -4.1597E-05  setid=       0
 node=   116 local x,y,z forces =    0.0000E+00   -6.2531E-01    0.0000E+00  setid=       0
 node=   116 local x,y,z moments=   -9.0970E-05    0.0000E+00    1.2075E-04  setid=       0
 node=   119 local x,y,z forces =    0.0000E+00   -6.4387E-01    0.0000E+00  setid=       0
 node=   119 local x,y,z moments=   -4.5109E-05    0.0000E+00   -8.0211E-06  setid=       0
 node=   120 local x,y,z forces =    0.0000E+00   -1.2246E+00    0.0000E+00  setid=       0
 node=   120 local x,y,z moments=   -6.4403E-05    0.0000E+00    1.0573E-04  setid=       0
 node=   123 local x,y,z forces =    0.0000E+00   -1.2931E+00    0.0000E+00  setid=       0
 node=   123 local x,y,z moments=   -3.3875E-05    0.0000E+00    5.0181E-06  setid=       0
 node=   124 local x,y,z forces =    0.0000E+00   -1.5888E+00    0.0000E+00  setid=       0
 node=   124 local x,y,z moments=   -3.7083E-05    0.0000E+00    9.6119E-05  setid=       0
 node=   127 local x,y,z forces =    0.0000E+00   -1.6762E+00    0.0000E+00  setid=       0
 node=   127 local x,y,z moments=   -1.7005E-05    0.0000E+00    1.0073E-05  setid=       0
 node=   128 local x,y,z forces =    0.0000E+00   -1.8345E+00    0.0000E+00  setid=       0
 node=   128 local x,y,z moments=   -1.4201E-05    0.0000E+00    9.1513E-05  setid=       0
 node=   131 local x,y,z forces =    0.0000E+00   -1.9076E+00    0.0000E+00  setid=       0
 node=   131 local x,y,z moments=    1.6775E-06    0.0000E+00    9.9846E-06  setid=       0
 node=   132 local x,y,z forces =    0.0000E+00   -2.0186E+00    0.0000E+00  setid=       0
 node=   132 local x,y,z moments=    3.2188E-06    0.0000E+00    9.5038E-05  setid=       0
 node=   135 local x,y,z forces =    0.0000E+00   -2.0737E+00    0.0000E+00  setid=       0
 node=   135 local x,y,z moments=    1.0098E-05    0.0000E+00   -2.0678E-06  setid=       0
 node=   136 local x,y,z forces =    0.0000E+00   -2.1591E+00    0.0000E+00  setid=       0
 node=   136 local x,y,z moments=   -2.1926E-05    0.0000E+00    1.0549E-04  setid=       0
 node=   139 local x,y,z forces =    0.0000E+00    1.4768E-01    0.0000E+00  setid=       0
 node=   139 local x,y,z moments=   -1.3310E-03    0.0000E+00    2.0168E-05  setid=       0
 node=   140 local x,y,z forces =    0.0000E+00    3.6704E-01    0.0000E+00  setid=       0
 node=   140 local x,y,z moments=   -1.7703E-03    0.0000E+00    3.0722E-06  setid=       0
 node=   141 local x,y,z forces =    3.0323E+00    0.0000E+00    0.0000E+00  setid=       0
 node=   141 local x,y,z moments=    0.0000E+00   -4.1411E-04    3.9818E-05  setid=       0
 node=   143 local x,y,z forces =    2.6772E+00    0.0000E+00    0.0000E+00  setid=       0
 node=   143 local x,y,z moments=    0.0000E+00   -1.8958E-04    1.0011E-04  setid=       0
 node=   144 local x,y,z forces =    7.4640E-01    0.0000E+00    0.0000E+00  setid=       0
 node=   144 local x,y,z moments=    0.0000E+00   -3.8411E-04    1.8492E-05  setid=       0
 node=   146 local x,y,z forces =    3.9095E-01    0.0000E+00    0.0000E+00  setid=       0
 node=   146 local x,y,z moments=    0.0000E+00   -1.3730E-04    4.3389E-05  setid=       0
 node=   147 local x,y,z forces =   -5.6880E-01    0.0000E+00    0.0000E+00  setid=       0
 node=   147 local x,y,z moments=    0.0000E+00   -3.7275E-04    7.2145E-07  setid=       0
 node=   149 local x,y,z forces =   -7.2523E-01    0.0000E+00    0.0000E+00  setid=       0
 node=   149 local x,y,z moments=    0.0000E+00   -1.5885E-04    9.6295E-06  setid=       0
 node=   150 local x,y,z forces =   -1.2872E+00    0.0000E+00    0.0000E+00  setid=       0
 node=   150 local x,y,z moments=    0.0000E+00   -3.8146E-04   -8.1305E-06  setid=       0
 node=   152 local x,y,z forces =   -1.3391E+00    0.0000E+00    0.0000E+00  setid=       0
 node=   152 local x,y,z moments=    0.0000E+00   -1.9081E-04   -6.3495E-06  setid=       0
 node=   153 local x,y,z forces =   -1.6583E+00    0.0000E+00    0.0000E+00  setid=       0
 node=   153 local x,y,z moments=    0.0000E+00   -4.0155E-04   -9.9595E-06  setid=       0
 node=   155 local x,y,z forces =   -1.6906E+00    0.0000E+00    0.0000E+00  setid=       0
 node=   155 local x,y,z moments=    0.0000E+00   -2.3595E-04   -1.2158E-05  setid=       0
 node=   156 local x,y,z forces =   -1.8230E+00    0.0000E+00    0.0000E+00  setid=       0
 node=   156 local x,y,z moments=    0.0000E+00   -4.3094E-04   -8.2169E-06  setid=       0
 node=   158 local x,y,z forces =   -1.9213E+00    0.0000E+00    0.0000E+00  setid=       0
 node=   158 local x,y,z moments=    0.0000E+00   -3.0718E-04   -1.0638E-05  setid=       0
 node=   159 local x,y,z forces =   -1.9476E+00    0.0000E+00    0.0000E+00  setid=       0
 node=   159 local x,y,z moments=    0.0000E+00   -4.6421E-04   -2.0747E-06  setid=       0
 node=   161 local x,y,z forces =   -2.1394E+00    0.0000E+00    0.0000E+00  setid=       0
 node=   161 local x,y,z moments=    0.0000E+00   -4.3905E-04   -1.7881E-06  setid=       0
 node=   162 local x,y,z forces =   -1.5730E-01    0.0000E+00    0.0000E+00  setid=       0
 node=   162 local x,y,z moments=    0.0000E+00    6.9856E-04   -1.1100E-05  setid=       0
 node=   164 local x,y,z forces =   -1.8923E-02    0.0000E+00    0.0000E+00  setid=       0
 node=   164 local x,y,z moments=    0.0000E+00    1.1430E-03   -7.6701E-06  setid=       0
 node=   166 local x,y,z forces =    3.2494E+00    0.0000E+00    0.0000E+00  setid=       0
 node=   166 local x,y,z moments=    0.0000E+00    1.2273E-04    2.2161E-05  setid=       0
 node=   168 local x,y,z forces =    9.7943E-01    0.0000E+00    0.0000E+00  setid=       0
 node=   168 local x,y,z moments=    0.0000E+00    1.7681E-04    1.7640E-05  setid=       0
 node=   170 local x,y,z forces =   -4.2937E-01    0.0000E+00    0.0000E+00  setid=       0
 node=   170 local x,y,z moments=    0.0000E+00    2.1845E-04    8.1085E-06  setid=       0
 node=   172 local x,y,z forces =   -1.2251E+00    0.0000E+00    0.0000E+00  setid=       0
 node=   172 local x,y,z moments=    0.0000E+00    2.3613E-04    1.4552E-06  setid=       0
 node=   174 local x,y,z forces =   -1.6307E+00    0.0000E+00    0.0000E+00  setid=       0
 node=   174 local x,y,z moments=    0.0000E+00    2.3461E-04   -2.0557E-06  setid=       0
 node=   176 local x,y,z forces =   -1.8199E+00    0.0000E+00    0.0000E+00  setid=       0
 node=   176 local x,y,z moments=    0.0000E+00    2.0602E-04   -5.2414E-06  setid=       0
 node=   178 local x,y,z forces =   -1.9573E+00    0.0000E+00    0.0000E+00  setid=       0
 node=   178 local x,y,z moments=    0.0000E+00    1.1630E-04   -2.2999E-05  setid=       0
 node=   180 local x,y,z forces =   -4.6045E-01    0.0000E+00    0.0000E+00  setid=       0
 node=   180 local x,y,z moments=    0.0000E+00    1.2852E-03   -2.1225E-05  setid=       0
 node=   189 local x,y,z forces =    0.0000E+00    3.0580E+00    0.0000E+00  setid=       0
 node=   189 local x,y,z moments=    3.4981E-05    0.0000E+00   -4.1604E-05  setid=       0
 node=   191 local x,y,z forces =    0.0000E+00    3.2248E+00    0.0000E+00  setid=       0
 node=   191 local x,y,z moments=    1.0313E-04    0.0000E+00   -1.9194E-05  setid=       0
 node=   192 local x,y,z forces =    0.0000E+00    7.4026E-01    0.0000E+00  setid=       0
 node=   192 local x,y,z moments=   -2.3440E-05    0.0000E+00   -1.7460E-05  setid=       0
 node=   194 local x,y,z forces =    0.0000E+00    8.9568E-01    0.0000E+00  setid=       0
 node=   194 local x,y,z moments=    3.6943E-05    0.0000E+00   -1.4624E-05  setid=       0
 node=   195 local x,y,z forces =    0.0000E+00   -5.8940E-01    0.0000E+00  setid=       0
 node=   195 local x,y,z moments=   -5.7792E-05    0.0000E+00   -1.7809E-06  setid=       0
 node=   197 local x,y,z forces =    0.0000E+00   -5.2761E-01    0.0000E+00  setid=       0
 node=   197 local x,y,z moments=    5.1021E-07    0.0000E+00   -6.3254E-06  setid=       0
 node=   198 local x,y,z forces =    0.0000E+00   -1.3282E+00    0.0000E+00  setid=       0
 node=   198 local x,y,z moments=   -6.4789E-05    0.0000E+00    6.7900E-06  setid=       0
 node=   200 local x,y,z forces =    0.0000E+00   -1.3207E+00    0.0000E+00  setid=       0
 node=   200 local x,y,z moments=   -8.1428E-06    0.0000E+00   -1.6191E-06  setid=       0
 node=   201 local x,y,z forces =    0.0000E+00   -1.7223E+00    0.0000E+00  setid=       0
 node=   201 local x,y,z moments=   -6.0451E-05    0.0000E+00    7.9896E-06  setid=       0
 node=   203 local x,y,z forces =    0.0000E+00   -1.7426E+00    0.0000E+00  setid=       0
 node=   203 local x,y,z moments=   -4.6480E-06    0.0000E+00    1.2398E-06  setid=       0
 node=   204 local x,y,z forces =    0.0000E+00   -1.8555E+00    0.0000E+00  setid=       0
 node=   204 local x,y,z moments=   -5.5725E-05    0.0000E+00    2.8619E-06  setid=       0
 node=   206 local x,y,z forces =    0.0000E+00   -1.9582E+00    0.0000E+00  setid=       0
 node=   206 local x,y,z moments=   -1.2009E-06    0.0000E+00    7.1738E-06  setid=       0
 node=   207 local x,y,z forces =    0.0000E+00   -1.5731E+00    0.0000E+00  setid=       0
 node=   207 local x,y,z moments=   -7.7781E-05    0.0000E+00   -1.0665E-05  setid=       0
 node=   209 local x,y,z forces =    0.0000E+00   -2.0725E+00    0.0000E+00  setid=       0
 node=   209 local x,y,z moments=   -3.0797E-06    0.0000E+00    2.6561E-05  setid=       0
 node=   210 local x,y,z forces =    0.0000E+00   -3.4239E-02    0.0000E+00  setid=       0
 node=   210 local x,y,z moments=   -1.1426E-03    0.0000E+00   -3.7815E-06  setid=       0
 node=   212 local x,y,z forces =    0.0000E+00   -4.5208E-02    0.0000E+00  setid=       0
 node=   212 local x,y,z moments=   -1.0488E-03    0.0000E+00    1.5499E-05  setid=       0
 node=   213 local x,y,z forces =    1.6832E+00    1.6554E+00    0.0000E+00  setid=       0
 node=   213 local x,y,z moments=    1.1179E-05    1.3547E-04   -3.1624E-06  setid=       0
 node=   214 local x,y,z forces =    5.5202E-01    4.9521E-01    0.0000E+00  setid=       0
 node=   214 local x,y,z moments=   -2.3812E-05    1.6448E-04   -8.0868E-06  setid=       0
 node=   215 local x,y,z forces =   -1.6582E-01   -2.2714E-01    0.0000E+00  setid=       0
 node=   215 local x,y,z moments=   -4.3071E-05    1.9051E-04   -9.4233E-06  setid=       0
 node=   216 local x,y,z forces =   -5.8088E-01   -6.4315E-01    0.0000E+00  setid=       0
 node=   216 local x,y,z moments=   -4.7679E-05    2.0518E-04   -9.9332E-06  setid=       0
 node=   217 local x,y,z forces =   -7.9864E-01   -8.7213E-01    0.0000E+00  setid=       0
 node=   217 local x,y,z moments=   -4.4959E-05    2.0703E-04   -1.1537E-05  setid=       0
 node=   218 local x,y,z forces =   -8.9943E-01   -9.6316E-01    0.0000E+00  setid=       0
 node=   218 local x,y,z moments=   -4.1046E-05    1.9158E-04   -1.0941E-05  setid=       0
 node=   219 local x,y,z forces =   -1.0279E+00   -8.6610E-01    0.0000E+00  setid=       0
 node=   219 local x,y,z moments=   -7.0091E-05    1.4218E-04    1.7476E-05  setid=       0
 node=   220 local x,y,z forces =   -2.9178E-01   -8.6353E-02    0.0000E+00  setid=       0
 node=   220 local x,y,z moments=   -7.0137E-04    7.5177E-04    3.2869E-05  setid=       0
 node=   221 local x,y,z forces =    5.6879E-01    0.0000E+00    0.0000E+00  setid=       0
 node=   221 local x,y,z moments=    0.0000E+00    2.4046E-04   -6.6266E-05  setid=       0
 node=   222 local x,y,z forces =   -5.0706E-01    0.0000E+00    0.0000E+00  setid=       0
 node=   222 local x,y,z moments=    0.0000E+00    3.9249E-05   -8.8519E-05  setid=       0
 node=   223 local x,y,z forces =   -1.1303E+00    0.0000E+00    0.0000E+00  setid=       0
 node=   223 local x,y,z moments=    0.0000E+00   -6.6240E-05   -9.3635E-05  setid=       0
 node=   224 local x,y,z forces =   -1.4993E+00    0.0000E+00    0.0000E+00  setid=       0
 node=   224 local x,y,z moments=    0.0000E+00   -1.4996E-04   -9.1441E-05  setid=       0
 node=   225 local x,y,z forces =   -1.7357E+00    0.0000E+00    0.0000E+00  setid=       0
 node=   225 local x,y,z moments=    0.0000E+00   -2.3226E-04   -8.9164E-05  setid=       0
 node=   226 local x,y,z forces =   -1.9182E+00    0.0000E+00    0.0000E+00  setid=       0
 node=   226 local x,y,z moments=    0.0000E+00   -3.3877E-04   -9.3182E-05  setid=       0
 node=   227 local x,y,z forces =   -2.1137E+00    0.0000E+00    0.0000E+00  setid=       0
 node=   227 local x,y,z moments=    0.0000E+00   -4.9899E-04   -1.1783E-04  setid=       0
 node=   228 local x,y,z forces =    1.4342E-01    0.0000E+00    0.0000E+00  setid=       0
 node=   228 local x,y,z moments=    0.0000E+00    1.5841E-03   -1.6632E-05  setid=       0
 node=   787 local x,y,z forces =    2.9382E-01    0.0000E+00    0.0000E+00  setid=       0
 node=   787 local x,y,z moments=    0.0000E+00    1.6794E-03   -9.1438E-06  setid=       0
 node=   788 local x,y,z forces =    3.9426E-01    0.0000E+00    0.0000E+00  setid=       0
 node=   788 local x,y,z moments=    0.0000E+00    1.5691E-03   -1.1357E-05  setid=       0
 node=   789 local x,y,z forces =    4.7127E-01    0.0000E+00    0.0000E+00  setid=       0
 node=   789 local x,y,z moments=    0.0000E+00    1.2586E-03   -1.0223E-05  setid=       0
 node=   790 local x,y,z forces =    4.9535E-01    0.0000E+00    0.0000E+00  setid=       0
 node=   790 local x,y,z moments=    0.0000E+00    8.3520E-04   -8.1509E-06  setid=       0
 node=   791 local x,y,z forces =    4.6666E-01    0.0000E+00    0.0000E+00  setid=       0
 node=   791 local x,y,z moments=    0.0000E+00    3.9659E-04   -5.2744E-06  setid=       0
 node=   792 local x,y,z forces =    3.9894E-01    0.0000E+00    0.0000E+00  setid=       0
 node=   792 local x,y,z moments=    0.0000E+00   -2.6295E-06    1.8469E-06  setid=       0
 node=   793 local x,y,z forces =    3.2208E-01    0.0000E+00    0.0000E+00  setid=       0
 node=   793 local x,y,z moments=    0.0000E+00   -3.9797E-04    3.1896E-05  setid=       0
 node=   794 local x,y,z forces =    2.0408E-01    0.0000E+00    0.0000E+00  setid=       0
 node=   794 local x,y,z moments=    0.0000E+00   -3.2336E-04    6.1523E-05  setid=       0
 node=   795 local x,y,z forces =   -2.9919E-01    0.0000E+00    0.0000E+00  setid=       0
 node=   795 local x,y,z moments=    0.0000E+00   -8.3508E-05   -1.3487E-05  setid=       0
 node=   796 local x,y,z forces =   -3.1705E-01    0.0000E+00    0.0000E+00  setid=       0
 node=   796 local x,y,z moments=    0.0000E+00   -9.1611E-05   -3.4552E-05  setid=       0
 node=   797 local x,y,z forces =   -3.1295E-01    0.0000E+00    0.0000E+00  setid=       0
 node=   797 local x,y,z moments=    0.0000E+00   -3.7374E-05   -3.5872E-05  setid=       0
 node=   798 local x,y,z forces =   -3.0093E-01    0.0000E+00    0.0000E+00  setid=       0
 node=   798 local x,y,z moments=    0.0000E+00   -5.3111E-06   -3.8940E-05  setid=       0
 node=   799 local x,y,z forces =   -2.8567E-01    0.0000E+00    0.0000E+00  setid=       0
 node=   799 local x,y,z moments=    0.0000E+00    1.1543E-05   -4.2142E-05  setid=       0
 node=   800 local x,y,z forces =   -2.6904E-01    0.0000E+00    0.0000E+00  setid=       0
 node=   800 local x,y,z moments=    0.0000E+00    2.0565E-05   -4.2732E-05  setid=       0
 node=   801 local x,y,z forces =   -2.5167E-01    0.0000E+00    0.0000E+00  setid=       0
 node=   801 local x,y,z moments=    0.0000E+00    2.6575E-05   -3.5685E-05  setid=       0
 node=   802 local x,y,z forces =   -2.0935E-01    0.0000E+00    0.0000E+00  setid=       0
 node=   802 local x,y,z moments=    0.0000E+00    5.5400E-05   -6.8702E-05  setid=       0
 node=   803 local x,y,z forces =   -5.3636E-01    0.0000E+00    0.0000E+00  setid=       0
 node=   803 local x,y,z moments=    0.0000E+00   -1.4290E-04   -1.0781E-04  setid=       0
 node=   804 local x,y,z forces =   -5.9632E-01    0.0000E+00    0.0000E+00  setid=       0
 node=   804 local x,y,z moments=    0.0000E+00   -1.2616E-04   -5.7058E-05  setid=       0
 node=   805 local x,y,z forces =   -6.1845E-01    0.0000E+00    0.0000E+00  setid=       0
 node=   805 local x,y,z moments=    0.0000E+00   -1.1644E-04   -5.1248E-05  setid=       0
 node=   806 local x,y,z forces =   -6.1804E-01    0.0000E+00    0.0000E+00  setid=       0
 node=   806 local x,y,z moments=    0.0000E+00   -1.0808E-04   -4.8097E-05  setid=       0
 node=   807 local x,y,z forces =   -5.6615E-01    0.0000E+00    0.0000E+00  setid=       0
 node=   807 local x,y,z moments=    0.0000E+00   -9.3102E-05   -4.6997E-05  setid=       0
 node=   808 local x,y,z forces =   -4.2018E-01    0.0000E+00    0.0000E+00  setid=       0
 node=   808 local x,y,z moments=    0.0000E+00   -5.3635E-05   -3.2447E-05  setid=       0
 node=   809 local x,y,z forces =    5.7882E-02    0.0000E+00    0.0000E+00  setid=       0
 node=   809 local x,y,z moments=    0.0000E+00   -3.4014E-05   -1.0174E-05  setid=       0
 node=   810 local x,y,z forces =   -1.0791E+00    0.0000E+00    0.0000E+00  setid=       0
 node=   810 local x,y,z moments=    0.0000E+00   -5.7685E-05   -7.9127E-05  setid=       0
 node=   811 local x,y,z forces =   -1.1243E+00    0.0000E+00    0.0000E+00  setid=       0
 node=   811 local x,y,z moments=    0.0000E+00   -5.6902E-05   -8.8498E-05  setid=       0
 node=   812 local x,y,z forces =   -1.1659E+00    0.0000E+00    0.0000E+00  setid=       0
 node=   812 local x,y,z moments=    0.0000E+00   -7.7838E-05   -9.7878E-05  setid=       0
 node=   813 local x,y,z forces =   -1.2146E+00    0.0000E+00    0.0000E+00  setid=       0
 node=   813 local x,y,z moments=    0.0000E+00   -1.1735E-04   -1.0776E-04  setid=       0
 node=   814 local x,y,z forces =   -1.2797E+00    0.0000E+00    0.0000E+00  setid=       0
 node=   814 local x,y,z moments=    0.0000E+00   -1.7934E-04   -1.1881E-04  setid=       0
 node=   815 local x,y,z forces =   -1.3692E+00    0.0000E+00    0.0000E+00  setid=       0
 node=   815 local x,y,z moments=    0.0000E+00   -2.7565E-04   -1.3279E-04  setid=       0
 node=   816 local x,y,z forces =   -1.4993E+00    0.0000E+00    0.0000E+00  setid=       0
 node=   816 local x,y,z moments=    0.0000E+00   -3.8087E-04   -1.4838E-04  setid=       0
 node=   817 local x,y,z forces =   -8.2453E-01    0.0000E+00    0.0000E+00  setid=       0
 node=   817 local x,y,z moments=    0.0000E+00   -8.7671E-05   -4.9314E-05  setid=       0
 node=   818 local x,y,z forces =   -8.3805E-01    0.0000E+00    0.0000E+00  setid=       0
 node=   818 local x,y,z moments=    0.0000E+00   -7.9030E-05   -5.6841E-05  setid=       0
 node=   819 local x,y,z forces =   -8.6773E-01    0.0000E+00    0.0000E+00  setid=       0
 node=   819 local x,y,z moments=    0.0000E+00   -8.4686E-05   -6.8366E-05  setid=       0
 node=   820 local x,y,z forces =   -9.0548E-01    0.0000E+00    0.0000E+00  setid=       0
 node=   820 local x,y,z moments=    0.0000E+00   -1.0200E-04   -7.7107E-05  setid=       0
 node=   821 local x,y,z forces =   -9.5072E-01    0.0000E+00    0.0000E+00  setid=       0
 node=   821 local x,y,z moments=    0.0000E+00   -1.3618E-04   -8.3673E-05  setid=       0
 node=   822 local x,y,z forces =   -1.0022E+00    0.0000E+00    0.0000E+00  setid=       0
 node=   822 local x,y,z moments=    0.0000E+00   -1.9302E-04   -8.6580E-05  setid=       0
 node=   823 local x,y,z forces =   -1.0665E+00    0.0000E+00    0.0000E+00  setid=       0
 node=   823 local x,y,z moments=    0.0000E+00   -1.7907E-04   -7.8252E-05  setid=       0
 node=   824 local x,y,z forces =   -7.6258E-01    0.0000E+00    0.0000E+00  setid=       0
 node=   824 local x,y,z moments=    0.0000E+00   -1.0074E-04   -6.0480E-05  setid=       0
 node=   825 local x,y,z forces =   -7.2658E-01    0.0000E+00    0.0000E+00  setid=       0
 node=   825 local x,y,z moments=    0.0000E+00   -8.2638E-05   -5.3548E-05  setid=       0
 node=   826 local x,y,z forces =   -6.9094E-01    0.0000E+00    0.0000E+00  setid=       0
 node=   826 local x,y,z moments=    0.0000E+00   -7.0924E-05   -4.4480E-05  setid=       0
 node=   827 local x,y,z forces =   -6.5507E-01    0.0000E+00    0.0000E+00  setid=       0
 node=   827 local x,y,z moments=    0.0000E+00   -5.7249E-05   -2.5571E-05  setid=       0
 node=   828 local x,y,z forces =   -8.5421E-01    0.0000E+00    0.0000E+00  setid=       0
 node=   828 local x,y,z moments=    0.0000E+00   -1.5565E-04   -1.8412E-05  setid=       0
 node=   829 local x,y,z forces =   -8.2977E-01    0.0000E+00    0.0000E+00  setid=       0
 node=   829 local x,y,z moments=    0.0000E+00   -1.9754E-04   -5.3691E-05  setid=       0
 node=   830 local x,y,z forces =   -7.9838E-01    0.0000E+00    0.0000E+00  setid=       0
 node=   830 local x,y,z moments=    0.0000E+00   -1.3761E-04   -6.3098E-05  setid=       0
 node=   831 local x,y,z forces =   -1.0611E+00    0.0000E+00    0.0000E+00  setid=       0
 node=   831 local x,y,z moments=    0.0000E+00   -1.0848E-04   -9.2802E-05  setid=       0
 node=   832 local x,y,z forces =   -9.9166E-01    0.0000E+00    0.0000E+00  setid=       0
 node=   832 local x,y,z moments=    0.0000E+00   -7.1901E-05   -7.1663E-05  setid=       0
 node=   833 local x,y,z forces =   -9.7377E-01    0.0000E+00    0.0000E+00  setid=       0
 node=   833 local x,y,z moments=    0.0000E+00   -8.0636E-05   -6.8252E-05  setid=       0
 node=   834 local x,y,z forces =   -1.0207E+00    0.0000E+00    0.0000E+00  setid=       0
 node=   834 local x,y,z moments=    0.0000E+00   -8.2825E-05   -8.1859E-05  setid=       0
 node=   835 local x,y,z forces =   -1.1869E+00    0.0000E+00    0.0000E+00  setid=       0
 node=   835 local x,y,z moments=    0.0000E+00   -2.2580E-04   -1.1332E-04  setid=       0
 node=   836 local x,y,z forces =   -1.1153E+00    0.0000E+00    0.0000E+00  setid=       0
 node=   836 local x,y,z moments=    0.0000E+00   -1.5396E-04   -1.0348E-04  setid=       0
 node=   837 local x,y,z forces =   -1.2878E+00    0.0000E+00    0.0000E+00  setid=       0
 node=   837 local x,y,z moments=    0.0000E+00   -2.7051E-04   -1.1821E-04  setid=       0
 node=   838 local x,y,z forces =   -1.4776E+00    0.0000E+00    0.0000E+00  setid=       0
 node=   838 local x,y,z moments=    0.0000E+00   -1.2603E-04   -9.9588E-05  setid=       0
 node=   839 local x,y,z forces =   -1.4476E+00    0.0000E+00    0.0000E+00  setid=       0
 node=   839 local x,y,z moments=    0.0000E+00   -1.2885E-04   -1.1450E-04  setid=       0
[...]
 node=   823 local x,y,z forces =   -1.9566E+01    0.0000E+00    0.0000E+00  setid=       0
 node=   823 local x,y,z moments=    0.0000E+00    6.6603E-03   -1.7029E-03  setid=       0
 node=   824 local x,y,z forces =   -1.2406E+01    0.0000E+00    0.0000E+00  setid=       0
 node=   824 local x,y,z moments=    0.0000E+00   -1.9472E-03   -1.6105E-03  setid=       0
 node=   825 local x,y,z forces =   -1.1876E+01    0.0000E+00    0.0000E+00  setid=       0
 node=   825 local x,y,z moments=    0.0000E+00   -8.4642E-04   -7.0034E-04  setid=       0
 node=   826 local x,y,z forces =   -1.1668E+01    0.0000E+00    0.0000E+00  setid=       0
 node=   826 local x,y,z moments=    0.0000E+00   -2.4954E-04   -1.7582E-04  setid=       0
 node=   827 local x,y,z forces =   -1.1392E+01    0.0000E+00    0.0000E+00  setid=       0
 node=   827 local x,y,z moments=    0.0000E+00    7.4407E-04    1.1296E-03  setid=       0
 node=   828 local x,y,z forces =   -1.6450E+01    0.0000E+00    0.0000E+00  setid=       0
 node=   828 local x,y,z moments=    0.0000E+00    5.2242E-03   -6.7907E-04  setid=       0
 node=   829 local x,y,z forces =   -1.5299E+01    0.0000E+00    0.0000E+00  setid=       0
 node=   829 local x,y,z moments=    0.0000E+00   -9.4764E-04   -1.5540E-03  setid=       0
 node=   830 local x,y,z forces =   -1.3340E+01    0.0000E+00    0.0000E+00  setid=       0
 node=   830 local x,y,z moments=    0.0000E+00   -3.2199E-03   -1.7667E-03  setid=       0
 node=   831 local x,y,z forces =   -1.6337E+01    0.0000E+00    0.0000E+00  setid=       0
 node=   831 local x,y,z moments=    0.0000E+00   -4.0397E-04   -1.1026E-03  setid=       0
 node=   832 local x,y,z forces =   -1.7020E+01    0.0000E+00    0.0000E+00  setid=       0
 node=   832 local x,y,z moments=    0.0000E+00   -8.5548E-04   -4.7438E-04  setid=       0
 node=   833 local x,y,z forces =   -1.7759E+01    0.0000E+00    0.0000E+00  setid=       0
 node=   833 local x,y,z moments=    0.0000E+00   -9.1119E-04   -3.4161E-04  setid=       0
 node=   834 local x,y,z forces =   -1.6425E+01    0.0000E+00    0.0000E+00  setid=       0
 node=   834 local x,y,z moments=    0.0000E+00   -7.4561E-04   -6.1654E-04  setid=       0
 node=   835 local x,y,z forces =   -2.0558E+01    0.0000E+00    0.0000E+00  setid=       0
 node=   835 local x,y,z moments=    0.0000E+00    3.7237E-03   -1.9868E-03  setid=       0
 node=   836 local x,y,z forces =   -1.7291E+01    0.0000E+00    0.0000E+00  setid=       0
 node=   836 local x,y,z moments=    0.0000E+00    4.0496E-04   -1.5660E-03  setid=       0
 node=   837 local x,y,z forces =   -2.3708E+01    0.0000E+00    0.0000E+00  setid=       0
 node=   837 local x,y,z moments=    0.0000E+00    4.8214E-03   -2.3786E-03  setid=       0
 node=   838 local x,y,z forces =   -3.1675E+01    0.0000E+00    0.0000E+00  setid=       0
 node=   838 local x,y,z moments=    0.0000E+00    1.0034E-03   -1.6566E-03  setid=       0
 node=   839 local x,y,z forces =   -2.6590E+01    0.0000E+00    0.0000E+00  setid=       0
 node=   839 local x,y,z moments=    0.0000E+00    3.8205E-04   -1.4926E-03  setid=       0
 node=   840 local x,y,z forces =   -2.2066E+01    0.0000E+00    0.0000E+00  setid=       0
 node=   840 local x,y,z moments=    0.0000E+00   -1.2375E-04   -1.3757E-03  setid=       0
 node=   841 local x,y,z forces =   -2.6606E+01    0.0000E+00    0.0000E+00  setid=       0
 node=   841 local x,y,z moments=    0.0000E+00    1.0319E-03   -1.5319E-03  setid=       0
 node=   842 local x,y,z forces =   -2.7238E+01    0.0000E+00    0.0000E+00  setid=       0
 node=   842 local x,y,z moments=    0.0000E+00    2.0406E-03   -1.3643E-03  setid=       0
 node=   843 local x,y,z forces =   -2.3407E+01    0.0000E+00    0.0000E+00  setid=       0
 node=   843 local x,y,z moments=    0.0000E+00    3.0802E-03    1.8019E-04  setid=       0
 node=   844 local x,y,z forces =   -3.1594E+01    0.0000E+00    0.0000E+00  setid=       0
 node=   844 local x,y,z moments=    0.0000E+00    3.8216E-03   -1.1611E-03  setid=       0
 node=   845 local x,y,z forces =   -3.1479E+01    0.0000E+00    0.0000E+00  setid=       0
 node=   845 local x,y,z moments=    0.0000E+00    2.4608E-03   -2.0849E-03  setid=       0
 node=   846 local x,y,z forces =   -1.8500E+01    0.0000E+00    0.0000E+00  setid=       0
 node=   846 local x,y,z moments=    0.0000E+00    5.8566E-03   -2.0227E-04  setid=       0
 node=   847 local x,y,z forces =   -2.3248E+01    0.0000E+00    0.0000E+00  setid=       0
 node=   847 local x,y,z moments=    0.0000E+00    4.8639E-04   -1.1812E-03  setid=       0
 node=   848 local x,y,z forces =   -2.2373E+01    0.0000E+00    0.0000E+00  setid=       0
 node=   848 local x,y,z moments=    0.0000E+00   -8.8966E-05   -1.3143E-03  setid=       0
 node=   849 local x,y,z forces =   -2.4334E+01    0.0000E+00    0.0000E+00  setid=       0
 node=   849 local x,y,z moments=    0.0000E+00    6.6721E-04   -5.6330E-04  setid=       0
 node=   850 local x,y,z forces =   -2.9739E+01    0.0000E+00    0.0000E+00  setid=       0
 node=   850 local x,y,z moments=    0.0000E+00   -4.4675E-03   -3.7136E-03  setid=       0
 node=   851 local x,y,z forces =   -3.2724E+01    0.0000E+00    0.0000E+00  setid=       0
 node=   851 local x,y,z moments=    0.0000E+00   -1.0945E-05   -2.4198E-03  setid=       0
 node=   852 local x,y,z forces =   -2.9111E+01    0.0000E+00    0.0000E+00  setid=       0
 node=   852 local x,y,z moments=    0.0000E+00   -1.0979E-04   -1.8125E-03  setid=       0
 node=   853 local x,y,z forces =   -3.7652E+01    0.0000E+00    0.0000E+00  setid=       0
 node=   853 local x,y,z moments=    0.0000E+00   -1.2216E-03   -2.2068E-03  setid=       0
 node=   854 local x,y,z forces =   -3.1038E+01    0.0000E+00    0.0000E+00  setid=       0
 node=   854 local x,y,z moments=    0.0000E+00   -6.9020E-03   -3.3468E-03  setid=       0
 node=   855 local x,y,z forces =   -3.4691E+01    0.0000E+00    0.0000E+00  setid=       0
 node=   855 local x,y,z moments=    0.0000E+00    8.8201E-05   -1.6358E-03  setid=       0
 node=   856 local x,y,z forces =   -2.7757E+01    0.0000E+00    0.0000E+00  setid=       0
 node=   856 local x,y,z moments=    0.0000E+00    1.8149E-03   -2.4414E-03  setid=       0
 node=   857 local x,y,z forces =   -2.9564E+01    0.0000E+00    0.0000E+00  setid=       0
 node=   857 local x,y,z moments=    0.0000E+00   -1.2453E-03   -3.7496E-03  setid=       0
 node=   858 local x,y,z forces =   -2.3837E+01    0.0000E+00    0.0000E+00  setid=       0
 node=   858 local x,y,z moments=    0.0000E+00   -9.0049E-05   -1.6363E-03  setid=       0
 node=   871 local x,y,z forces =    0.0000E+00   -2.8523E+01    0.0000E+00  setid=       0
 node=   871 local x,y,z moments=   -1.9323E-03    0.0000E+00    2.2690E-03  setid=       0
 node=   872 local x,y,z forces =    0.0000E+00   -3.6031E+01    0.0000E+00  setid=       0
 node=   872 local x,y,z moments=   -2.3943E-03    0.0000E+00    2.5634E-03  setid=       0
 node=   873 local x,y,z forces =    0.0000E+00   -4.0966E+01    0.0000E+00  setid=       0
 node=   873 local x,y,z moments=   -2.2800E-03    0.0000E+00    2.1496E-03  setid=       0
 node=   874 local x,y,z forces =    0.0000E+00   -3.2336E+01    0.0000E+00  setid=       0
 node=   874 local x,y,z moments=   -1.4291E-03    0.0000E+00    1.9310E-03  setid=       0
 node=   887 local x,y,z forces =    0.0000E+00   -1.3346E+01    0.0000E+00  setid=       0
 node=   887 local x,y,z moments=   -1.9879E-03    0.0000E+00    1.5986E-03  setid=       0
 node=   888 local x,y,z forces =    0.0000E+00   -1.0160E+01    0.0000E+00  setid=       0
 node=   888 local x,y,z moments=   -1.6372E-03    0.0000E+00    1.5447E-03  setid=       0
 node=   889 local x,y,z forces =    0.0000E+00   -7.7072E+00    0.0000E+00  setid=       0
 node=   889 local x,y,z moments=   -2.6107E-03    0.0000E+00    1.4326E-03  setid=       0
 node=   890 local x,y,z forces =    0.0000E+00   -1.0376E+01    0.0000E+00  setid=       0
 node=   890 local x,y,z moments=   -3.0232E-03    0.0000E+00    1.8134E-03  setid=       0
 node=   903 local x,y,z forces =    0.0000E+00   -4.8606E+01    0.0000E+00  setid=       0
 node=   903 local x,y,z moments=   -6.4224E-04    0.0000E+00    3.4628E-03  setid=       0
 node=   904 local x,y,z forces =    0.0000E+00   -3.8943E+01    0.0000E+00  setid=       0
 node=   904 local x,y,z moments=   -2.8864E-03    0.0000E+00    2.7166E-03  setid=       0
 node=   905 local x,y,z forces =    0.0000E+00   -3.1505E+01    0.0000E+00  setid=       0
 node=   905 local x,y,z moments=   -2.3130E-03    0.0000E+00    2.1153E-03  setid=       0
 node=   906 local x,y,z forces =    0.0000E+00   -3.8477E+01    0.0000E+00  setid=       0
 node=   906 local x,y,z moments=   -4.9631E-04    0.0000E+00    2.5650E-03  setid=       0
 node=   919 local x,y,z forces =    0.0000E+00   -2.9343E+01    0.0000E+00  setid=       0
 node=   919 local x,y,z moments=    2.7625E-05    0.0000E+00    1.6667E-03  setid=       0
 node=   920 local x,y,z forces =    0.0000E+00   -2.4830E+01    0.0000E+00  setid=       0
 node=   920 local x,y,z moments=   -1.3175E-03    0.0000E+00    1.7328E-03  setid=       0
 node=   921 local x,y,z forces =    0.0000E+00   -1.9060E+01    0.0000E+00  setid=       0
 node=   921 local x,y,z moments=    1.2886E-04    0.0000E+00    1.5888E-03  setid=       0
 node=   922 local x,y,z forces =    0.0000E+00   -2.1964E+01    0.0000E+00  setid=       0
 node=   922 local x,y,z moments=    2.3602E-03    0.0000E+00    6.1728E-04  setid=       0
 node=   935 local x,y,z forces =    0.0000E+00   -1.4969E+01    0.0000E+00  setid=       0
 node=   935 local x,y,z moments=   -1.4114E-03    0.0000E+00    1.3258E-03  setid=       0
 node=   936 local x,y,z forces =    0.0000E+00   -1.0559E+01    0.0000E+00  setid=       0
 node=   936 local x,y,z moments=   -2.0332E-03    0.0000E+00    1.6989E-03  setid=       0
 node=   937 local x,y,z forces =    0.0000E+00   -8.8274E+00    0.0000E+00  setid=       0
 node=   937 local x,y,z moments=   -9.4908E-04    0.0000E+00    1.2186E-03  setid=       0
 node=   938 local x,y,z forces =    0.0000E+00   -1.2599E+01    0.0000E+00  setid=       0
 node=   938 local x,y,z moments=   -1.1536E-03    0.0000E+00    1.7015E-03  setid=       0
 node=   951 local x,y,z forces =    0.0000E+00   -1.3873E+01    0.0000E+00  setid=       0
 node=   951 local x,y,z moments=    1.2869E-03    0.0000E+00    2.5742E-03  setid=       0
 node=   952 local x,y,z forces =    0.0000E+00   -1.8140E+01    0.0000E+00  setid=       0
 node=   952 local x,y,z moments=   -3.3337E-04    0.0000E+00    1.7860E-03  setid=       0
 node=   953 local x,y,z forces =    0.0000E+00   -2.1922E+01    0.0000E+00  setid=       0
 node=   953 local x,y,z moments=   -8.6279E-04    0.0000E+00    3.1335E-03  setid=       0
 node=   954 local x,y,z forces =    0.0000E+00   -1.8702E+01    0.0000E+00  setid=       0
 node=   954 local x,y,z moments=   -1.3924E-03    0.0000E+00    3.3892E-04  setid=       0
 node=   961 local x,y,z forces =    0.0000E+00    7.0722E+01    0.0000E+00  setid=       0
 node=   961 local x,y,z moments=    7.7344E-03    0.0000E+00   -8.3485E-04  setid=       0
 node=   962 local x,y,z forces =    0.0000E+00    6.8747E+01    0.0000E+00  setid=       0
 node=   962 local x,y,z moments=    7.9148E-03    0.0000E+00   -1.2363E-03  setid=       0
 node=   972 local x,y,z forces =    0.0000E+00   -1.3268E+01    0.0000E+00  setid=       0
 node=   972 local x,y,z moments=   -2.8152E-03    0.0000E+00    2.1037E-03  setid=       0
 node=   973 local x,y,z forces =    0.0000E+00   -6.9325E+00    0.0000E+00  setid=       0
 node=   973 local x,y,z moments=   -4.9736E-03    0.0000E+00    1.6441E-04  setid=       0
 node=   974 local x,y,z forces =    0.0000E+00   -8.1336E+00    0.0000E+00  setid=       0
 node=   974 local x,y,z moments=   -4.4813E-03    0.0000E+00   -3.1299E-04  setid=       0
 node=   984 local x,y,z forces =    0.0000E+00    6.5111E+01    0.0000E+00  setid=       0
 node=   984 local x,y,z moments=    9.3304E-03    0.0000E+00   -2.6202E-03  setid=       0
 node=   985 local x,y,z forces =    0.0000E+00   -8.7965E+00    0.0000E+00  setid=       0
 node=   985 local x,y,z moments=   -1.0925E-03    0.0000E+00   -2.0061E-03  setid=       0
 node=   986 local x,y,z forces =    0.0000E+00    3.2886E+01    0.0000E+00  setid=       0
 node=   986 local x,y,z moments=    8.9193E-03    0.0000E+00   -8.9124E-03  setid=       0
 node=   993 local x,y,z forces =    0.0000E+00   -5.5793E+01    0.0000E+00  setid=       0
 node=   993 local x,y,z moments=   -4.4563E-04    0.0000E+00    2.9939E-03  setid=       0
 node=   994 local x,y,z forces =    0.0000E+00   -4.9845E+01    0.0000E+00  setid=       0
 node=   994 local x,y,z moments=    3.4298E-03    0.0000E+00    3.3368E-03  setid=       0
 node=   998 local x,y,z forces =    0.0000E+00   -5.7284E+00    0.0000E+00  setid=       0
 node=   998 local x,y,z moments=   -5.2755E-03    0.0000E+00    5.0405E-04  setid=       0
 node=  1005 local x,y,z forces =    0.0000E+00   -3.1461E+01    0.0000E+00  setid=       0
 node=  1005 local x,y,z moments=   -1.2998E-03    0.0000E+00    1.3779E-03  setid=       0
 node=  1006 local x,y,z forces =    0.0000E+00   -3.7662E+01    0.0000E+00  setid=       0
 node=  1006 local x,y,z moments=   -1.0979E-03    0.0000E+00    2.0212E-03  setid=       0
 node=  1013 local x,y,z forces =    0.0000E+00   -5.1712E+01    0.0000E+00  setid=       0
 node=  1013 local x,y,z moments=   -1.7634E-03    0.0000E+00    3.1590E-03  setid=       0
 node=  1014 local x,y,z forces =    0.0000E+00   -5.2975E+01    0.0000E+00  setid=       0
 node=  1014 local x,y,z moments=    1.2000E-03    0.0000E+00    2.7291E-03  setid=       0
 node=  1021 local x,y,z forces =    0.0000E+00   -3.0783E+01    0.0000E+00  setid=       0
 node=  1021 local x,y,z moments=   -2.3015E-03    0.0000E+00    2.3595E-03  setid=       0
 node=  1022 local x,y,z forces =    0.0000E+00   -4.6212E+01    0.0000E+00  setid=       0
 node=  1022 local x,y,z moments=   -2.5851E-03    0.0000E+00    2.9342E-03  setid=       0
 node=  1029 local x,y,z forces =    0.0000E+00   -1.5743E+01    0.0000E+00  setid=       0
 node=  1029 local x,y,z moments=   -2.6506E-03    0.0000E+00    1.4729E-03  setid=       0
 node=  1030 local x,y,z forces =    0.0000E+00   -2.2389E+01    0.0000E+00  setid=       0
 node=  1030 local x,y,z moments=   -2.3525E-03    0.0000E+00    1.0747E-03  setid=       0
 node=  1034 local x,y,z forces =    0.0000E+00   -7.0666E+00    0.0000E+00  setid=       0
 node=  1034 local x,y,z moments=   -1.1662E-03    0.0000E+00    1.3454E-03  setid=       0
 node=  1044 local x,y,z forces =    0.0000E+00   -2.4512E+01    0.0000E+00  setid=       0
 node=  1044 local x,y,z moments=   -1.9478E-03    0.0000E+00    2.1903E-03  setid=       0
 node=  1045 local x,y,z forces =    0.0000E+00   -2.0648E+01    0.0000E+00  setid=       0
 node=  1045 local x,y,z moments=   -2.0175E-03    0.0000E+00    2.0008E-03  setid=       0
 node=  1046 local x,y,z forces =    0.0000E+00   -2.5591E+01    0.0000E+00  setid=       0
 node=  1046 local x,y,z moments=   -2.1909E-03    0.0000E+00    2.1694E-03  setid=       0
 node=  1050 local x,y,z forces =    0.0000E+00   -2.0682E+01    0.0000E+00  setid=       0
 node=  1050 local x,y,z moments=   -1.9950E-03    0.0000E+00    1.9246E-03  setid=       0
 node=  1057 local x,y,z forces =    0.0000E+00   -1.6150E+01    0.0000E+00  setid=       0
 node=  1057 local x,y,z moments=   -1.5733E-03    0.0000E+00    2.1910E-03  setid=       0
 node=  1058 local x,y,z forces =    0.0000E+00   -9.0435E+00    0.0000E+00  setid=       0
 node=  1058 local x,y,z moments=   -3.2819E-03    0.0000E+00   -5.6248E-04  setid=       0
 node=  1065 local x,y,z forces =    0.0000E+00    6.5531E+01    0.0000E+00  setid=       0
 node=  1065 local x,y,z moments=    5.1210E-03    0.0000E+00    2.1505E-04  setid=       0
 node=  1066 local x,y,z forces =    0.0000E+00   -5.2692E+01    0.0000E+00  setid=       0
 node=  1066 local x,y,z moments=   -1.5351E-04    0.0000E+00    3.2331E-03  setid=       0
 node=  1070 local x,y,z forces =    0.0000E+00   -5.1961E+00    0.0000E+00  setid=       0
 node=  1070 local x,y,z moments=   -2.3824E-03    0.0000E+00    1.0453E-03  setid=       0
 node=  1074 local x,y,z forces =    0.0000E+00    6.6449E+01    0.0000E+00  setid=       0
 node=  1074 local x,y,z moments=    7.9083E-03    0.0000E+00   -1.6286E-03  setid=       0
 node=  1081 local x,y,z forces =    0.0000E+00   -1.6312E+01    0.0000E+00  setid=       0
 node=  1081 local x,y,z moments=   -1.7025E-03    0.0000E+00    1.4747E-03  setid=       0
 node=  1082 local x,y,z forces =    0.0000E+00   -1.6805E+01    0.0000E+00  setid=       0
 node=  1082 local x,y,z moments=   -2.1534E-03    0.0000E+00    1.7251E-03  setid=       0
 node=  1092 local x,y,z forces =    0.0000E+00   -3.8624E+01    0.0000E+00  setid=       0
 node=  1092 local x,y,z moments=   -3.0949E-03    0.0000E+00    2.7711E-03  setid=       0
 node=  1093 local x,y,z forces =    0.0000E+00   -2.2498E+01    0.0000E+00  setid=       0
 node=  1093 local x,y,z moments=    4.2288E-04    0.0000E+00    7.1317E-03  setid=       0
 node=  1094 local x,y,z forces =    0.0000E+00   -4.3563E+00    0.0000E+00  setid=       0
 node=  1094 local x,y,z moments=   -5.5959E-03    0.0000E+00    8.2940E-04  setid=       0
 node=  1098 local x,y,z forces =    0.0000E+00   -2.6408E+01    0.0000E+00  setid=       0
 node=  1098 local x,y,z moments=   -6.3115E-04    0.0000E+00    1.1539E-03  setid=       0
 node=  1105 local x,y,z forces =    0.0000E+00    9.4991E+00    0.0000E+00  setid=       0
 node=  1105 local x,y,z moments=   -4.5486E-03    0.0000E+00   -7.1163E-04  setid=       0
 node=  1106 local x,y,z forces =    0.0000E+00   -2.2071E+01    0.0000E+00  setid=       0
 node=  1106 local x,y,z moments=    3.7655E-03    0.0000E+00   -7.0909E-05  setid=       0
 node=  1110 local x,y,z forces =    0.0000E+00   -1.9493E+01    0.0000E+00  setid=       0
 node=  1110 local x,y,z moments=   -1.4925E-03    0.0000E+00    1.6400E-03  setid=       0
 node=  1114 local x,y,z forces =    0.0000E+00    5.5228E+01    0.0000E+00  setid=       0
 node=  1114 local x,y,z moments=    1.1715E-03    0.0000E+00    1.0000E-03  setid=       0
 node=  1118 local x,y,z forces =    0.0000E+00   -2.8547E+01    0.0000E+00  setid=       0
 node=  1118 local x,y,z moments=   -1.6207E-03    0.0000E+00    2.7763E-03  setid=       0
 node=  1122 local x,y,z forces =    0.0000E+00   -9.4059E+00    0.0000E+00  setid=       0
 node=  1122 local x,y,z moments=   -1.8302E-03    0.0000E+00   -1.2431E-03  setid=       0
 node=  1126 local x,y,z forces =    0.0000E+00   -4.5953E+01    0.0000E+00  setid=       0
 node=  1126 local x,y,z moments=   -1.4984E-03    0.0000E+00    2.1091E-03  setid=       0
 node=  1130 local x,y,z forces =    0.0000E+00   -2.2907E+01    0.0000E+00  setid=       0
 node=  1130 local x,y,z moments=   -7.4637E-04    0.0000E+00    1.8629E-03  setid=       0
 node=  1134 local x,y,z forces =    0.0000E+00   -7.9090E+00    0.0000E+00  setid=       0
 node=  1134 local x,y,z moments=    1.6658E-03    0.0000E+00   -3.2286E-03  setid=       0
 node=  1138 local x,y,z forces =    0.0000E+00    4.6037E+01    0.0000E+00  setid=       0
 node=  1138 local x,y,z moments=   -3.0394E-03    0.0000E+00   -2.1435E-04  setid=       0
 node=  1142 local x,y,z forces =    0.0000E+00   -6.0556E+00    0.0000E+00  setid=       0
 node=  1142 local x,y,z moments=   -1.1392E-03    0.0000E+00    2.6160E-03  setid=       0
 node=  1146 local x,y,z forces =    0.0000E+00   -3.0945E+01    0.0000E+00  setid=       0
 node=  1146 local x,y,z moments=   -3.2914E-03    0.0000E+00    1.7926E-03  setid=       0
             force resultants   =   -3.8473E+01   -6.4610E+00    3.1739E+03
