 LS-DYNA keyword deck by LS-PrePost                                      
                    ls-dyna smp d R14 R14.1.1s_1_ef50e1 date 06/16/2024



 n o d a l  s t r e s s  c a l c u l a t i o n s   f o r   t i m e  s t e p        1   ( at time 0.00000E+00 )

 node (global)
          stress       sig-xx      sig-yy      sig-zz      sig-xy      sig-yz      sig-zx       plastic
                                                                                                 strain 
      94-
 mid.  surface     2.6058E-05  2.6058E-05  2.6058E-05  0.0000E+00  0.0000E+00  0.0000E+00  0.0000E+00
      98-
 mid.  surface     3.6315E-05  3.6315E-05  3.6315E-05  0.0000E+00  0.0000E+00  0.0000E+00  0.0000E+00
     100-
 mid.  surface    -1.6011E-04 -1.6011E-04 -1.6011E-04  0.0000E+00  0.0000E+00  0.0000E+00  0.0000E+00
     101-
 mid.  surface    -1.1843E-04 -1.1843E-04 -1.1843E-04  0.0000E+00  0.0000E+00  0.0000E+00  0.0000E+00
     104-
 mid.  surface     2.6058E-05  2.6058E-05  2.6058E-05  0.0000E+00  0.0000E+00  0.0000E+00  0.0000E+00
     105-
 mid.  surface     3.6315E-05  3.6315E-05  3.6315E-05  0.0000E+00  0.0000E+00  0.0000E+00  0.0000E+00
     108-
 mid.  surface    -8.4835E-05 -8.4835E-05 -8.4835E-05  0.0000E+00  0.0000E+00  0.0000E+00  0.0000E+00
     109-
 mid.  surface    -1.2220E-04 -1.2220E-04 -1.2220E-04  0.0000E+00  0.0000E+00  0.0000E+00  0.0000E+00
     112-
 mid.  surface    -4.3161E-05 -4.3161E-05 -4.3161E-05  0.0000E+00  0.0000E+00  0.0000E+00  0.0000E+00
     113-
 mid.  surface    -8.4835E-05 -8.4835E-05 -8.4835E-05  0.0000E+00  0.0000E+00  0.0000E+00  0.0000E+00
     131-
 mid.  surface    -5.2982E-05 -5.2982E-05 -5.2982E-05  0.0000E+00  0.0000E+00  0.0000E+00  0.0000E+00
     134-
 mid.  surface    -1.5617E-05 -1.5617E-05 -1.5617E-05  0.0000E+00  0.0000E+00  0.0000E+00  0.0000E+00
     135-
 mid.  surface     1.2887E-04  1.2887E-04  1.2887E-04  0.0000E+00  0.0000E+00  0.0000E+00  0.0000E+00
     138-
 mid.  surface     1.7055E-04  1.7055E-04  1.7055E-04  0.0000E+00  0.0000E+00  0.0000E+00  0.0000E+00
     139-
 mid.  surface     1.0133E-04  1.0133E-04  1.0133E-04  0.0000E+00  0.0000E+00  0.0000E+00  0.0000E+00
     142-
 mid.  surface     5.9654E-05  5.9654E-05  5.9654E-05  0.0000E+00  0.0000E+00  0.0000E+00  0.0000E+00
     143-
 mid.  surface     1.1159E-04  1.1159E-04  1.1159E-04  0.0000E+00  0.0000E+00  0.0000E+00  0.0000E+00
     146-
 mid.  surface     1.0133E-04  1.0133E-04  1.0133E-04  0.0000E+00  0.0000E+00  0.0000E+00  0.0000E+00
     155-
 mid.  surface     2.1942E-06  2.1942E-06  2.1942E-06  0.0000E+00  0.0000E+00  0.0000E+00  0.0000E+00
     156-
 mid.  surface     3.0263E-05  3.0263E-05  3.0263E-05  0.0000E+00  0.0000E+00  0.0000E+00  0.0000E+00
     157-
 mid.  surface     2.0005E-05  2.0005E-05  2.0005E-05  0.0000E+00  0.0000E+00  0.0000E+00  0.0000E+00
     158-
 mid.  surface    -3.7326E-05 -3.7326E-05 -3.7326E-05  0.0000E+00  0.0000E+00  0.0000E+00  0.0000E+00
     159-
 mid.  surface     2.1940E-06  2.1940E-06  2.1940E-06  0.0000E+00  0.0000E+00  0.0000E+00  0.0000E+00
     160-
 mid.  surface     2.0005E-05  2.0005E-05  2.0005E-05  0.0000E+00  0.0000E+00  0.0000E+00  0.0000E+00
     161-
 mid.  surface    -2.1669E-05 -2.1669E-05 -2.1669E-05  0.0000E+00  0.0000E+00  0.0000E+00  0.0000E+00
     162-
 mid.  surface    -3.7326E-05 -3.7326E-05 -3.7326E-05  0.0000E+00  0.0000E+00  0.0000E+00  0.0000E+00
     163-
 mid.  surface    -1.6644E-06 -1.6644E-06 -1.6644E-06  0.0000E+00  0.0000E+00  0.0000E+00  0.0000E+00
     164-
 mid.  surface    -1.6644E-06 -1.6644E-06 -1.6644E-06  0.0000E+00  0.0000E+00  0.0000E+00  0.0000E+00
     165-
 mid.  surface    -2.8772E-05 -2.8772E-05 -2.8772E-05  0.0000E+00  0.0000E+00  0.0000E+00  0.0000E+00
     166-
 mid.  surface    -1.6644E-06 -1.6644E-06 -1.6644E-06  0.0000E+00  0.0000E+00  0.0000E+00  0.0000E+00
     167-
 mid.  surface    -2.8772E-05 -2.8772E-05 -2.8772E-05  0.0000E+00  0.0000E+00  0.0000E+00  0.0000E+00
     168-
 mid.  surface    -1.6645E-06 -1.6645E-06 -1.6645E-06  0.0000E+00  0.0000E+00  0.0000E+00  0.0000E+00
     169-
 mid.  surface    -1.6645E-06 -1.6645E-06 -1.6645E-06  0.0000E+00  0.0000E+00  0.0000E+00  0.0000E+00
     170-
 mid.  surface    -1.6645E-06 -1.6645E-06 -1.6645E-06  0.0000E+00  0.0000E+00  0.0000E+00  0.0000E+00
     187-
 mid.  surface    -1.5617E-05 -1.5617E-05 -1.5617E-05  0.0000E+00  0.0000E+00  0.0000E+00  0.0000E+00
     188-
 mid.  surface     2.6058E-05  2.6058E-05  2.6058E-05  0.0000E+00  0.0000E+00  0.0000E+00  0.0000E+00
     195-
 mid.  surface     5.0268E-05  5.0268E-05  5.0268E-05  0.0000E+00  0.0000E+00  0.0000E+00  0.0000E+00
     196-
 mid.  surface    -1.6644E-06 -1.6644E-06 -1.6644E-06  0.0000E+00  0.0000E+00  0.0000E+00  0.0000E+00
     197-
 mid.  surface    -8.0704E-05 -8.0704E-05 -8.0704E-05  0.0000E+00  0.0000E+00  0.0000E+00  0.0000E+00
     198-
 mid.  surface    -1.6644E-06 -1.6644E-06 -1.6644E-06  0.0000E+00  0.0000E+00  0.0000E+00  0.0000E+00
     199-
 mid.  surface     5.0268E-05  5.0268E-05  5.0268E-05  0.0000E+00  0.0000E+00  0.0000E+00  0.0000E+00
     200-
 mid.  surface    -1.6645E-06 -1.6645E-06 -1.6645E-06  0.0000E+00  0.0000E+00  0.0000E+00  0.0000E+00
     201-
 mid.  surface    -8.0704E-05 -8.0704E-05 -8.0704E-05  0.0000E+00  0.0000E+00  0.0000E+00  0.0000E+00
     202-
 mid.  surface    -1.6645E-06 -1.6645E-06 -1.6645E-06  0.0000E+00  0.0000E+00  0.0000E+00  0.0000E+00
     219-
 mid.  surface     2.0005E-05  2.0005E-05  2.0005E-05  0.0000E+00  0.0000E+00  0.0000E+00  0.0000E+00
     220-
 mid.  surface    -2.1669E-05 -2.1669E-05 -2.1669E-05  0.0000E+00  0.0000E+00  0.0000E+00  0.0000E+00
     221-
 mid.  surface    -5.9035E-05 -5.9035E-05 -5.9035E-05  0.0000E+00  0.0000E+00  0.0000E+00  0.0000E+00
     222-
 mid.  surface    -2.1669E-05 -2.1669E-05 -2.1669E-05  0.0000E+00  0.0000E+00  0.0000E+00  0.0000E+00
     223-
 mid.  surface     3.0263E-05  3.0263E-05  3.0263E-05  0.0000E+00  0.0000E+00  0.0000E+00  0.0000E+00
     224-
 mid.  surface     2.0005E-05  2.0005E-05  2.0005E-05  0.0000E+00  0.0000E+00  0.0000E+00  0.0000E+00
     225-
 mid.  surface    -2.1669E-05 -2.1669E-05 -2.1669E-05  0.0000E+00  0.0000E+00  0.0000E+00  0.0000E+00
     226-
 mid.  surface     2.0005E-05  2.0005E-05  2.0005E-05  0.0000E+00  0.0000E+00  0.0000E+00  0.0000E+00



 n o d a l  s t r a i n  c a l c u l a t i o n s   f o r   t i m e  s t e p        1   ( at time 0.00000E+00 )

 node (global)
          strain       eps-xx      eps-yy      eps-zz      eps-xy      eps-yz      eps-zx       
      94-
 mid.  surface     0.0000E+00  0.0000E+00  0.0000E+00  0.0000E+00  0.0000E+00  0.0000E+00
      98-
 mid.  surface     0.0000E+00  0.0000E+00  0.0000E+00  0.0000E+00  0.0000E+00  0.0000E+00
     100-
 mid.  surface     0.0000E+00  0.0000E+00  0.0000E+00  0.0000E+00  0.0000E+00  0.0000E+00
     101-
 mid.  surface     0.0000E+00  0.0000E+00  0.0000E+00  0.0000E+00  0.0000E+00  0.0000E+00
     104-
 mid.  surface     0.0000E+00  0.0000E+00  0.0000E+00  0.0000E+00  0.0000E+00  0.0000E+00
     105-
 mid.  surface     0.0000E+00  0.0000E+00  0.0000E+00  0.0000E+00  0.0000E+00  0.0000E+00
     108-
 mid.  surface     0.0000E+00  0.0000E+00  0.0000E+00  0.0000E+00  0.0000E+00  0.0000E+00
     109-
 mid.  surface     0.0000E+00  0.0000E+00  0.0000E+00  0.0000E+00  0.0000E+00  0.0000E+00
     112-
 mid.  surface     0.0000E+00  0.0000E+00  0.0000E+00  0.0000E+00  0.0000E+00  0.0000E+00
     113-
 mid.  surface     0.0000E+00  0.0000E+00  0.0000E+00  0.0000E+00  0.0000E+00  0.0000E+00
     131-
 mid.  surface     0.0000E+00  0.0000E+00  0.0000E+00  0.0000E+00  0.0000E+00  0.0000E+00
     134-
 mid.  surface     0.0000E+00  0.0000E+00  0.0000E+00  0.0000E+00  0.0000E+00  0.0000E+00
     135-
 mid.  surface     0.0000E+00  0.0000E+00  0.0000E+00  0.0000E+00  0.0000E+00  0.0000E+00
     138-
 mid.  surface     0.0000E+00  0.0000E+00  0.0000E+00  0.0000E+00  0.0000E+00  0.0000E+00
     139-
 mid.  surface     0.0000E+00  0.0000E+00  0.0000E+00  0.0000E+00  0.0000E+00  0.0000E+00
     142-
 mid.  surface     0.0000E+00  0.0000E+00  0.0000E+00  0.0000E+00  0.0000E+00  0.0000E+00
     143-
 mid.  surface     0.0000E+00  0.0000E+00  0.0000E+00  0.0000E+00  0.0000E+00  0.0000E+00
     146-
 mid.  surface     0.0000E+00  0.0000E+00  0.0000E+00  0.0000E+00  0.0000E+00  0.0000E+00
     155-
 mid.  surface     0.0000E+00  0.0000E+00  0.0000E+00  0.0000E+00  0.0000E+00  0.0000E+00
     156-
 mid.  surface     0.0000E+00  0.0000E+00  0.0000E+00  0.0000E+00  0.0000E+00  0.0000E+00
     157-
 mid.  surface     0.0000E+00  0.0000E+00  0.0000E+00  0.0000E+00  0.0000E+00  0.0000E+00
     158-
 mid.  surface     0.0000E+00  0.0000E+00  0.0000E+00  0.0000E+00  0.0000E+00  0.0000E+00
     159-
 mid.  surface     0.0000E+00  0.0000E+00  0.0000E+00  0.0000E+00  0.0000E+00  0.0000E+00
     160-
 mid.  surface     0.0000E+00  0.0000E+00  0.0000E+00  0.0000E+00  0.0000E+00  0.0000E+00
     161-
 mid.  surface     0.0000E+00  0.0000E+00  0.0000E+00  0.0000E+00  0.0000E+00  0.0000E+00
     162-
 mid.  surface     0.0000E+00  0.0000E+00  0.0000E+00  0.0000E+00  0.0000E+00  0.0000E+00
     163-
 mid.  surface     0.0000E+00  0.0000E+00  0.0000E+00  0.0000E+00  0.0000E+00  0.0000E+00
     164-
 mid.  surface     0.0000E+00  0.0000E+00  0.0000E+00  0.0000E+00  0.0000E+00  0.0000E+00
     165-
 mid.  surface     0.0000E+00  0.0000E+00  0.0000E+00  0.0000E+00  0.0000E+00  0.0000E+00
     166-
 mid.  surface     0.0000E+00  0.0000E+00  0.0000E+00  0.0000E+00  0.0000E+00  0.0000E+00
     167-
 mid.  surface     0.0000E+00  0.0000E+00  0.0000E+00  0.0000E+00  0.0000E+00  0.0000E+00
     168-
 mid.  surface     0.0000E+00  0.0000E+00  0.0000E+00  0.0000E+00  0.0000E+00  0.0000E+00
     169-
 mid.  surface     0.0000E+00  0.0000E+00  0.0000E+00  0.0000E+00  0.0000E+00  0.0000E+00
     170-
 mid.  surface     0.0000E+00  0.0000E+00  0.0000E+00  0.0000E+00  0.0000E+00  0.0000E+00
     187-
 mid.  surface     0.0000E+00  0.0000E+00  0.0000E+00  0.0000E+00  0.0000E+00  0.0000E+00
     188-
 mid.  surface     0.0000E+00  0.0000E+00  0.0000E+00  0.0000E+00  0.0000E+00  0.0000E+00
     195-
 mid.  surface     0.0000E+00  0.0000E+00  0.0000E+00  0.0000E+00  0.0000E+00  0.0000E+00
     196-
 mid.  surface     0.0000E+00  0.0000E+00  0.0000E+00  0.0000E+00  0.0000E+00  0.0000E+00
     197-
 mid.  surface     0.0000E+00  0.0000E+00  0.0000E+00  0.0000E+00  0.0000E+00  0.0000E+00
     198-
 mid.  surface     0.0000E+00  0.0000E+00  0.0000E+00  0.0000E+00  0.0000E+00  0.0000E+00
     199-
 mid.  surface     0.0000E+00  0.0000E+00  0.0000E+00  0.0000E+00  0.0000E+00  0.0000E+00
     200-
 mid.  surface     0.0000E+00  0.0000E+00  0.0000E+00  0.0000E+00  0.0000E+00  0.0000E+00
     201-
 mid.  surface     0.0000E+00  0.0000E+00  0.0000E+00  0.0000E+00  0.0000E+00  0.0000E+00
     202-
 mid.  surface     0.0000E+00  0.0000E+00  0.0000E+00  0.0000E+00  0.0000E+00  0.0000E+00
     219-
 mid.  surface     0.0000E+00  0.0000E+00  0.0000E+00  0.0000E+00  0.0000E+00  0.0000E+00
     220-
 mid.  surface     0.0000E+00  0.0000E+00  0.0000E+00  0.0000E+00  0.0000E+00  0.0000E+00
     221-
 mid.  surface     0.0000E+00  0.0000E+00  0.0000E+00  0.0000E+00  0.0000E+00  0.0000E+00
     222-
 mid.  surface     0.0000E+00  0.0000E+00  0.0000E+00  0.0000E+00  0.0000E+00  0.0000E+00
     223-
 mid.  surface     0.0000E+00  0.0000E+00  0.0000E+00  0.0000E+00  0.0000E+00  0.0000E+00
     224-
 mid.  surface     0.0000E+00  0.0000E+00  0.0000E+00  0.0000E+00  0.0000E+00  0.0000E+00
     225-
 mid.  surface     0.0000E+00  0.0000E+00  0.0000E+00  0.0000E+00  0.0000E+00  0.0000E+00
     226-
 mid.  surface     0.0000E+00  0.0000E+00  0.0000E+00  0.0000E+00  0.0000E+00  0.0000E+00



 n o d a l  s t r e s s  c a l c u l a t i o n s   f o r   t i m e  s t e p        6   ( at time 2.50000E+00 )

 node (global)
          stress       sig-xx      sig-yy      sig-zz      sig-xy      sig-yz      sig-zx       plastic
                                                                                                 strain 
      94-
 mid.  surface    -4.7059E+07 -4.5755E+07 -9.9833E+07 -3.5891E+06 -2.1957E+07 -2.3731E+07  0.0000E+00
      98-
 mid.  surface    -4.6860E+07 -4.5545E+07 -9.9710E+07 -3.6604E+06  7.9612E+06  6.6551E+06  0.0000E+00
     100-
 mid.  surface    -4.2986E+07 -4.3398E+07 -1.2253E+08  1.9069E+06 -5.1989E+06 -1.1594E+07  0.0000E+00
     101-
 mid.  surface    -4.1643E+07 -3.9277E+07 -1.1968E+08  1.8740E+06 -1.2783E+07 -5.4367E+06  0.0000E+00
     104-
 mid.  surface    -4.2615E+07 -4.3061E+07 -1.2234E+08  1.8274E+06  2.8778E+07  1.2741E+07  0.0000E+00
     105-
 mid.  surface    -4.1269E+07 -3.8906E+07 -1.1947E+08  1.7975E+06  2.4012E+07  2.0284E+07  0.0000E+00
     108-
 mid.  surface    -4.1385E+07 -4.1664E+07 -1.2073E+08  1.7459E+06  2.5985E+06 -9.7899E+06  0.0000E+00
     109-
 mid.  surface    -3.9824E+07 -3.7558E+07 -1.1725E+08  1.6559E+06 -8.2823E+06 -2.1066E+05  0.0000E+00
     112-
 mid.  surface    -4.0807E+07 -4.1126E+07 -1.2042E+08  1.6417E+06  3.3076E+07  1.1634E+07  0.0000E+00
     113-
 mid.  surface    -3.9224E+07 -3.6970E+07 -1.1691E+08  1.5643E+06  2.5687E+07  2.2954E+07  0.0000E+00
     131-
 mid.  surface    -4.5815E+07 -4.6077E+07 -1.3146E+08  9.2492E+05 -2.6953E+07 -2.2488E+07  0.0000E+00
     134-
 mid.  surface    -4.4591E+07 -4.2098E+07 -1.2883E+08  9.6753E+05 -2.7524E+07 -2.0230E+07  0.0000E+00
     135-
 mid.  surface    -4.5375E+07 -4.5657E+07 -1.3114E+08  8.9471E+05  5.3126E+06  3.7326E+06  0.0000E+00
     138-
 mid.  surface    -4.4132E+07 -4.1642E+07 -1.2850E+08  9.4456E+05  8.0510E+06  8.0767E+06  0.0000E+00
     139-
 mid.  surface    -4.3717E+07 -4.4009E+07 -1.2855E+08  8.4555E+05 -3.0821E+07 -2.5561E+07  0.0000E+00
     142-
 mid.  surface    -4.2261E+07 -4.0020E+07 -1.2529E+08  8.3671E+05 -3.1360E+07 -2.2059E+07  0.0000E+00
     143-
 mid.  surface    -4.3053E+07 -4.3331E+07 -1.2804E+08  8.0180E+05 -1.7857E+06 -2.5494E+06  0.0000E+00
     146-
 mid.  surface    -4.1561E+07 -3.9299E+07 -1.2476E+08  8.0785E+05  1.5226E+06  3.3959E+06  0.0000E+00
     155-
 mid.  surface    -4.3305E+07 -3.8407E+07 -1.0377E+08  4.4507E+05  1.3318E+06 -1.0466E+07  0.0000E+00
     156-
 mid.  surface    -4.8176E+07 -4.0677E+07 -1.1874E+08  1.7360E+06  2.4758E+07 -7.8520E+05  0.0000E+00
     157-
 mid.  surface    -4.5526E+07 -4.6103E+07 -1.3917E+08  6.5163E+06  3.3659E+05 -7.5516E+06  0.0000E+00
     158-
 mid.  surface    -3.6065E+07 -4.1059E+07 -1.2227E+08  6.0656E+06 -5.2281E+06 -5.6638E+06  0.0000E+00
     159-
 mid.  surface    -4.3061E+07 -3.8128E+07 -1.0363E+08  4.0247E+05  1.5765E+06  8.9657E+06  0.0000E+00
     160-
 mid.  surface    -4.7851E+07 -4.0275E+07 -1.1850E+08  1.7383E+06 -4.1279E+06  1.0357E+07  0.0000E+00
     161-
 mid.  surface    -4.5209E+07 -4.5782E+07 -1.3900E+08  6.5112E+06 -2.8732E+07 -2.5578E+06  0.0000E+00
     162-
 mid.  surface    -3.5767E+07 -4.0751E+07 -1.2210E+08  6.0322E+06 -6.1539E+06  1.2762E+05  0.0000E+00
     163-
 mid.  surface    -3.8162E+07 -3.8933E+07 -8.9813E+07 -2.5299E+06  3.0464E+06 -2.2839E+07  0.0000E+00
     164-
 mid.  surface    -4.7027E+07 -3.9899E+07 -1.1797E+08  1.6924E+06  3.7458E+07  5.6519E+06  0.0000E+00
     165-
 mid.  surface    -4.4588E+07 -4.5092E+07 -1.3751E+08  6.2613E+06 -1.8776E+07 -1.4025E+07  0.0000E+00
     166-
 mid.  surface    -3.5286E+07 -4.3744E+07 -1.0838E+08  1.9908E+06 -1.0397E+07 -2.2482E+06  0.0000E+00
     167-
 mid.  surface    -3.7521E+07 -3.8257E+07 -8.9411E+07 -2.6107E+06  2.3830E+06 -9.0901E+06  0.0000E+00
     168-
 mid.  surface    -4.6290E+07 -3.9029E+07 -1.1742E+08  1.6834E+06  9.9457E+06  1.6306E+07  0.0000E+00
     169-
 mid.  surface    -4.3849E+07 -4.4390E+07 -1.3711E+08  6.2441E+06 -4.6463E+07 -9.2373E+06  0.0000E+00
     170-
 mid.  surface    -3.4549E+07 -4.3009E+07 -1.0794E+08  1.9464E+06 -1.1741E+07  4.1910E+06  0.0000E+00
     187-
 mid.  surface    -3.6636E+07 -4.7011E+07 -1.1906E+08  2.8512E+06 -1.0145E+07 -2.7750E+06  0.0000E+00
     188-
 mid.  surface    -3.6403E+07 -4.6799E+07 -1.1896E+08  2.7752E+06  1.6148E+07  5.3686E+06  0.0000E+00
     195-
 mid.  surface    -3.4849E+07 -3.6848E+07 -1.1335E+08  2.2572E+06 -9.2918E+06  1.9202E+06  0.0000E+00
     196-
 mid.  surface    -4.4605E+07 -4.6020E+07 -1.2975E+08  1.6631E+06 -3.5011E+06  1.4851E+07  0.0000E+00
     197-
 mid.  surface    -5.0892E+07 -5.0859E+07 -1.4213E+08  1.9891E+06 -1.7940E+06  2.1282E+07  0.0000E+00
     198-
 mid.  surface    -4.0999E+07 -4.1581E+07 -1.2527E+08  2.4608E+06 -9.4715E+06  1.6081E+06  0.0000E+00
     199-
 mid.  surface    -3.4799E+07 -3.6713E+07 -1.1330E+08  2.2228E+06  6.3586E+06 -4.1481E+06  0.0000E+00
     200-
 mid.  surface    -4.4578E+07 -4.5921E+07 -1.2973E+08  1.6068E+06  9.6087E+04 -2.3217E+07  0.0000E+00
     201-
 mid.  surface    -5.0863E+07 -5.0812E+07 -1.4211E+08  1.9288E+06  2.1743E+06 -1.6820E+07  0.0000E+00
     202-
 mid.  surface    -4.0960E+07 -4.1495E+07 -1.2525E+08  2.4261E+06  7.5040E+06 -5.1676E+06  0.0000E+00
     219-
 mid.  surface    -3.1560E+07 -3.2455E+07 -1.0730E+08  1.6166E+06 -1.1852E+07 -2.2102E+06  0.0000E+00
     220-
 mid.  surface    -3.9070E+07 -3.9880E+07 -1.2090E+08  1.1970E+06 -9.2429E+06 -4.2153E+06  0.0000E+00
     221-
 mid.  surface    -4.3431E+07 -4.3407E+07 -1.2976E+08  1.3276E+06 -2.9733E+05  2.6723E+07  0.0000E+00
     222-
 mid.  surface    -3.6163E+07 -3.6244E+07 -1.1652E+08  1.6713E+06 -8.9713E+06 -3.4928E+06  0.0000E+00
     223-
 mid.  surface    -3.0921E+07 -3.1781E+07 -1.0689E+08  1.4484E+06 -9.0793E+05 -8.8350E+06  0.0000E+00
     224-
 mid.  surface    -3.8720E+07 -3.9286E+07 -1.2064E+08  1.0513E+06 -7.0493E+06 -3.4045E+07  0.0000E+00
     225-
 mid.  surface    -4.3081E+07 -4.2822E+07 -1.2946E+08  1.2763E+06  1.9085E+06 -3.0510E+06  0.0000E+00
     226-
 mid.  surface    -3.5732E+07 -3.5679E+07 -1.1622E+08  1.5856E+06  2.7034E+06 -1.0485E+07  0.0000E+00



 n o d a l  s t r a i n  c a l c u l a t i o n s   f o r   t i m e  s t e p        6   ( at time 2.50000E+00 )

 node (global)
          strain       eps-xx      eps-yy      eps-zz      eps-xy      eps-yz      eps-zx       
      94-
 mid.  surface     2.2905E-05  4.7786E-05 -9.8442E-04 -6.8419E-05 -4.1913E-04 -4.5299E-04
      98-
 mid.  surface     2.4122E-05  4.9226E-05 -9.8456E-04 -6.9792E-05  1.5218E-04  1.2729E-04
     100-
 mid.  surface     1.7828E-04  1.7027E-04 -1.3392E-03  3.6244E-05 -9.9537E-05 -2.2138E-04
     101-
 mid.  surface     1.6415E-04  2.0936E-04 -1.3248E-03  3.5667E-05 -2.4423E-04 -1.0396E-04
     104-
 mid.  surface     1.8084E-04  1.7214E-04 -1.3399E-03  3.4666E-05  5.4924E-04  2.4330E-04
     105-
 mid.  surface     1.6656E-04  2.1163E-04 -1.3255E-03  3.4155E-05  4.5842E-04  3.8714E-04
     108-
 mid.  surface     1.8431E-04  1.7881E-04 -1.3294E-03  3.3197E-05  4.9213E-05 -1.8695E-04
     109-
 mid.  surface     1.7034E-04  2.1372E-04 -1.3070E-03  3.1545E-05 -1.5836E-04 -4.2599E-06
     112-
 mid.  surface     1.8820E-04  1.8188E-04 -1.3303E-03  3.1123E-05  6.3118E-04  2.2217E-04
     113-
 mid.  surface     1.7422E-04  2.1726E-04 -1.3079E-03  2.9723E-05  4.9033E-04  4.3804E-04
     131-
 mid.  surface     1.9306E-04  1.8794E-04 -1.4415E-03  1.7675E-05 -5.1448E-04 -4.2922E-04
     134-
 mid.  surface     1.7894E-04  2.2670E-04 -1.4290E-03  1.8510E-05 -5.2541E-04 -3.8618E-04
     135-
 mid.  surface     1.9619E-04  1.9061E-04 -1.4404E-03  1.7060E-05  1.0183E-04  7.1590E-05
     138-
 mid.  surface     1.8205E-04  2.2972E-04 -1.4280E-03  1.8023E-05  1.5410E-04  1.5444E-04
     139-
 mid.  surface     1.9931E-04  1.9359E-04 -1.4200E-03  1.6254E-05 -5.8817E-04 -4.8777E-04
     142-
 mid.  surface     1.8538E-04  2.2854E-04 -1.3998E-03  1.6083E-05 -5.9852E-04 -4.2102E-04
     143-
 mid.  surface     2.0367E-04  1.9816E-04 -1.4185E-03  1.5364E-05 -3.3574E-05 -4.8249E-05
     146-
 mid.  surface     1.8992E-04  2.3343E-04 -1.3983E-03  1.5465E-05  2.9567E-05  6.5141E-05
     155-
 mid.  surface     6.0270E-05  1.5375E-04 -1.0937E-03  8.5026E-06  2.5510E-05 -1.9974E-04
     156-
 mid.  surface     7.2815E-05  2.1614E-04 -1.2741E-03  3.3079E-05  4.7273E-04 -1.4963E-05
     157-
 mid.  surface     2.3451E-04  2.2348E-04 -1.5526E-03  1.2438E-04  6.8101E-06 -1.4401E-04
     158-
 mid.  surface     2.6491E-04  1.6948E-04 -1.3802E-03  1.1577E-04 -9.9603E-05 -1.0798E-04
     159-
 mid.  surface     6.1586E-05  1.5568E-04 -1.0943E-03  7.6508E-06  2.9957E-05  1.7114E-04
     160-
 mid.  surface     7.4462E-05  2.1920E-04 -1.2738E-03  3.3108E-05 -7.9268E-05  1.9750E-04
     161-
 mid.  surface     2.3646E-04  2.2547E-04 -1.5534E-03  1.2426E-04 -5.4828E-04 -4.8784E-05
     162-
 mid.  surface     2.6673E-04  1.7146E-04 -1.3806E-03  1.1510E-04 -1.1743E-04  2.4370E-06
     163-
 mid.  surface     6.9436E-05  5.5562E-05 -9.1667E-04 -4.8133E-05  5.8173E-05 -4.3570E-04
     164-
 mid.  surface     8.1726E-05  2.1790E-04 -1.2722E-03  3.2045E-05  7.1494E-04  1.0780E-04
     165-
 mid.  surface     2.3555E-04  2.2532E-04 -1.5380E-03  1.1946E-04 -3.5766E-04 -2.6746E-04
     166-
 mid.  surface     2.2272E-04  6.1324E-05 -1.1728E-03  3.8412E-05 -1.9823E-04 -4.2861E-05
     167-
 mid.  surface     7.3343E-05  5.9918E-05 -9.1697E-04 -4.9757E-05  4.5318E-05 -1.7319E-04
     168-
 mid.  surface     8.5670E-05  2.2425E-04 -1.2715E-03  3.1840E-05  1.8918E-04  3.1096E-04
     169-
 mid.  surface     2.4035E-04  2.2934E-04 -1.5395E-03  1.1907E-04 -8.8639E-04 -1.7616E-04
     170-
 mid.  surface     2.2742E-04  6.5831E-05 -1.1732E-03  3.7497E-05 -2.2402E-04  7.9921E-05
     187-
 mid.  surface     2.6988E-04  7.1906E-05 -1.3031E-03  5.4459E-05 -1.9368E-04 -5.2907E-05
     188-
 mid.  surface     2.7143E-04  7.3062E-05 -1.3040E-03  5.2969E-05  3.0815E-04  1.0237E-04
     195-
 mid.  surface     2.1916E-04  1.8133E-04 -1.2785E-03  4.3099E-05 -1.7741E-04  3.6685E-05
     196-
 mid.  surface     2.0229E-04  1.7510E-04 -1.4227E-03  3.1745E-05 -6.6799E-05  2.8373E-04
     197-
 mid.  surface     1.9463E-04  1.9505E-04 -1.5467E-03  3.7962E-05 -3.4238E-05  4.0641E-04
     198-
 mid.  surface     2.1081E-04  1.9997E-04 -1.3970E-03  4.6980E-05 -1.8086E-04  3.0733E-05
     199-
 mid.  surface     2.1898E-04  1.8276E-04 -1.2787E-03  4.2439E-05  1.2148E-04 -7.9158E-05
     200-
 mid.  surface     2.0201E-04  1.7619E-04 -1.4232E-03  3.0672E-05  1.8779E-06 -4.4320E-04
     201-
 mid.  surface     1.9473E-04  1.9550E-04 -1.5469E-03  3.6808E-05  4.1496E-05 -3.2130E-04
     202-
 mid.  surface     2.1080E-04  2.0085E-04 -1.3973E-03  4.6315E-05  1.4335E-04 -9.8594E-05
     219-
 mid.  surface     2.1661E-04  1.9958E-04 -1.2290E-03  3.0951E-05 -2.2614E-04 -4.2044E-05
     220-
 mid.  surface     2.0991E-04  1.9440E-04 -1.3519E-03  2.2881E-05 -1.7627E-04 -7.9930E-05
     221-
 mid.  surface     2.0639E-04  2.0689E-04 -1.4409E-03  2.5267E-05 -5.6660E-06  5.1010E-04
     222-
 mid.  surface     2.1298E-04  2.1142E-04 -1.3207E-03  3.1940E-05 -1.7122E-04 -6.6494E-05
     223-
 mid.  surface     2.2044E-04  2.0408E-04 -1.2293E-03  2.7731E-05 -1.7142E-05 -1.6853E-04
     224-
 mid.  surface     2.1050E-04  1.9958E-04 -1.3531E-03  2.0104E-05 -1.3438E-04 -6.4953E-04
     225-
 mid.  surface     2.0710E-04  2.1208E-04 -1.4412E-03  2.4281E-05  3.6421E-05 -5.8570E-05
     226-
 mid.  surface     2.1485E-04  2.1584E-04 -1.3212E-03  3.0292E-05  5.1735E-05 -1.9998E-04
