 LS-DYNA keyword deck by LS-PrePost                                      
                    ls-dyna smp d R14 R14.1.1s_1_ef50e1 date 06/16/2024



 e l e m e n t   s t r e s s   c a l c u l a t i o n s   f o r   t i m e  s t e p        1   ( at time 0.00000E+00 )

 element  materl
     ipt  stress       sig-xx      sig-yy      sig-zz      sig-xy      sig-yz      sig-zx                       yield
           state                                                                                  effsg      function
      45-      1
       1          -1.9509E-06 -1.9509E-06 -1.9509E-06  0.0000E+00  0.0000E+00  0.0000E+00    0.0000E+00    0.0000E+00
      47-      1
       1          -3.9019E-06 -3.9019E-06 -3.9019E-06  0.0000E+00  0.0000E+00  0.0000E+00    0.0000E+00    0.0000E+00
      53-      1
       1          -1.9509E-06 -1.9509E-06 -1.9509E-06  0.0000E+00  0.0000E+00  0.0000E+00    0.0000E+00    0.0000E+00
      61-      1
       1          -3.9019E-06 -3.9019E-06 -3.9019E-06  0.0000E+00  0.0000E+00  0.0000E+00    0.0000E+00    0.0000E+00
      67-      1
       1          -1.9509E-06 -1.9509E-06 -1.9509E-06  0.0000E+00  0.0000E+00  0.0000E+00    0.0000E+00    0.0000E+00
      79-      1
       1          -1.9509E-06 -1.9509E-06 -1.9509E-06  0.0000E+00  0.0000E+00  0.0000E+00    0.0000E+00    0.0000E+00
      81-      1
       1          -1.9509E-06 -1.9509E-06 -1.9509E-06  0.0000E+00  0.0000E+00  0.0000E+00    0.0000E+00    0.0000E+00



 e l e m e n t   s t r a i n   c a l c u l a t i o n s   f o r   t i m e  s t e p        1   ( at time  0.00000E+00 )

 element  strain       eps-xx      eps-yy      eps-zz      eps-xy      eps-yz      eps-zx                            yield
 num/ipt   state
      45-      1
      1            0.0000E+00  0.0000E+00  0.0000E+00  0.0000E+00  0.0000E+00  0.0000E+00
      47-      1
      1            0.0000E+00  0.0000E+00  0.0000E+00  0.0000E+00  0.0000E+00  0.0000E+00
      53-      1
      1            0.0000E+00  0.0000E+00  0.0000E+00  0.0000E+00  0.0000E+00  0.0000E+00
      61-      1
      1            0.0000E+00  0.0000E+00  0.0000E+00  0.0000E+00  0.0000E+00  0.0000E+00
      67-      1
      1            0.0000E+00  0.0000E+00  0.0000E+00  0.0000E+00  0.0000E+00  0.0000E+00
      79-      1
      1            0.0000E+00  0.0000E+00  0.0000E+00  0.0000E+00  0.0000E+00  0.0000E+00
      81-      1
      1            0.0000E+00  0.0000E+00  0.0000E+00  0.0000E+00  0.0000E+00  0.0000E+00



 e l e m e n t   s t r e s s   c a l c u l a t i o n s   f o r   t i m e  s t e p        6   ( at time 2.50000E+00 )

 element  materl
     ipt  stress       sig-xx      sig-yy      sig-zz      sig-xy      sig-yz      sig-zx                       yield
           state                                                                                  effsg      function
      45-      1
       1          -4.3392E+07 -4.3107E+07 -1.1586E+08  7.6029E+05 -1.0162E+06 -6.8287E+05    7.2656E+07    0.0000E+00
      47-      1
       1          -4.2261E+07 -4.2017E+07 -1.1501E+08  7.3243E+05 -2.3321E+06 -1.5733E+06    7.3045E+07    0.0000E+00
      53-      1
       1          -4.3201E+07 -4.2821E+07 -1.1757E+08  1.3495E+06 -1.1106E+06 -8.7513E+05    7.4641E+07    0.0000E+00
      61-      1
       1          -4.2245E+07 -4.4377E+07 -1.2784E+08  1.5445E+06 -7.9481E+05 -1.4199E+06    8.4638E+07    0.0000E+00
      67-      1
       1          -3.7050E+07 -3.8272E+07 -1.1902E+08  1.0294E+06 -3.3443E+06 -5.9032E+06    8.2233E+07    0.0000E+00
      79-      1
       1          -4.3012E+07 -4.2192E+07 -1.2334E+08  1.2002E+06 -1.4938E+06 -1.9455E+06    8.0877E+07    0.0000E+00
      81-      1
       1          -4.0974E+07 -4.0252E+07 -1.2082E+08  1.0747E+06 -2.2287E+06 -2.9136E+06    8.0484E+07    0.0000E+00



 e l e m e n t   s t r a i n   c a l c u l a t i o n s   f o r   t i m e  s t e p        6   ( at time  2.50000E+00 )

 element  strain       eps-xx      eps-yy      eps-zz      eps-xy      eps-yz      eps-zx                            yield
 num/ipt   state
      45-      1
      1            1.3920E-04  1.4463E-04 -1.2438E-03  1.4515E-05 -1.9373E-05 -1.3021E-05
      47-      1
      1            1.4611E-04  1.5079E-04 -1.2423E-03  1.3997E-05 -4.4461E-05 -3.0001E-05
      53-      1
      1            1.4874E-04  1.5599E-04 -1.2706E-03  2.5750E-05 -2.1173E-05 -1.6685E-05
      61-      1
      1            2.1884E-04  1.7819E-04 -1.4146E-03  2.9482E-05 -1.5152E-05 -2.7065E-05
      67-      1
      1            2.2187E-04  1.9854E-04 -1.3426E-03  1.9664E-05 -6.3756E-05 -1.1252E-04
      79-      1
      1            1.7592E-04  1.9157E-04 -1.3569E-03  2.2866E-05 -2.8467E-05 -3.7084E-05
      81-      1
      1            1.8380E-04  1.9758E-04 -1.3400E-03  2.0500E-05 -4.2475E-05 -5.5540E-05
