 LS-DYNA keyword deck by LS-PrePost                                      
                    ls-dyna smp d R14 R14.1.1s_1_ef50e1 date 06/16/2024

 n o d a l   f o r c e/e n e r g y    o u t p u t  t=   0.00000E+00

 velocity boundary condition forces/rigid body moments 

 nd#     105  xforce=   0.0000E+00   yforce=   0.0000E+00  zforce=   0.0000E+00   energy=   0.0000E+00   setid =     105 xmoment=   0.0000E+00 ymoment=   0.0000E+00 zmoment=   0.0000E+00
 nd#     106  xforce=   0.0000E+00   yforce=   0.0000E+00  zforce=   0.0000E+00   energy=   0.0000E+00   setid =     106 xmoment=   0.0000E+00 ymoment=   0.0000E+00 zmoment=   0.0000E+00
 nd#     107  xforce=   0.0000E+00   yforce=   0.0000E+00  zforce=   0.0000E+00   energy=   0.0000E+00   setid =     107 xmoment=   0.0000E+00 ymoment=   0.0000E+00 zmoment=   0.0000E+00
 nd#     108  xforce=   0.0000E+00   yforce=   0.0000E+00  zforce=   0.0000E+00   energy=   0.0000E+00   setid =     108 xmoment=   0.0000E+00 ymoment=   0.0000E+00 zmoment=   0.0000E+00
 nd#     137  xforce=   0.0000E+00   yforce=   0.0000E+00  zforce=   0.0000E+00   energy=   0.0000E+00   setid =     137 xmoment=   0.0000E+00 ymoment=   0.0000E+00 zmoment=   0.0000E+00
 nd#     138  xforce=   0.0000E+00   yforce=   0.0000E+00  zforce=   0.0000E+00   energy=   0.0000E+00   setid =     138 xmoment=   0.0000E+00 ymoment=   0.0000E+00 zmoment=   0.0000E+00
 nd#     139  xforce=   0.0000E+00   yforce=   0.0000E+00  zforce=   0.0000E+00   energy=   0.0000E+00   setid =     139 xmoment=   0.0000E+00 ymoment=   0.0000E+00 zmoment=   0.0000E+00
 nd#     140  xforce=   0.0000E+00   yforce=   0.0000E+00  zforce=   0.0000E+00   energy=   0.0000E+00   setid =     140 xmoment=   0.0000E+00 ymoment=   0.0000E+00 zmoment=   0.0000E+00
 nd#     162  xforce=   0.0000E+00   yforce=   0.0000E+00  zforce=   0.0000E+00   energy=   0.0000E+00   setid =     162 xmoment=   0.0000E+00 ymoment=   0.0000E+00 zmoment=   0.0000E+00
 nd#     163  xforce=   0.0000E+00   yforce=   0.0000E+00  zforce=   0.0000E+00   energy=   0.0000E+00   setid =     163 xmoment=   0.0000E+00 ymoment=   0.0000E+00 zmoment=   0.0000E+00
 nd#     164  xforce=   0.0000E+00   yforce=   0.0000E+00  zforce=   0.0000E+00   energy=   0.0000E+00   setid =     164 xmoment=   0.0000E+00 ymoment=   0.0000E+00 zmoment=   0.0000E+00
 nd#     179  xforce=   0.0000E+00   yforce=   0.0000E+00  zforce=   0.0000E+00   energy=   0.0000E+00   setid =     179 xmoment=   0.0000E+00 ymoment=   0.0000E+00 zmoment=   0.0000E+00
 nd#     180  xforce=   0.0000E+00   yforce=   0.0000E+00  zforce=   0.0000E+00   energy=   0.0000E+00   setid =     180 xmoment=   0.0000E+00 ymoment=   0.0000E+00 zmoment=   0.0000E+00
 nd#     188  xforce=   0.0000E+00   yforce=   0.0000E+00  zforce=   0.0000E+00   energy=   0.0000E+00   setid =     188 xmoment=   0.0000E+00 ymoment=   0.0000E+00 zmoment=   0.0000E+00
 nd#     210  xforce=   0.0000E+00   yforce=   0.0000E+00  zforce=   0.0000E+00   energy=   0.0000E+00   setid =     210 xmoment=   0.0000E+00 ymoment=   0.0000E+00 zmoment=   0.0000E+00
 nd#     211  xforce=   0.0000E+00   yforce=   0.0000E+00  zforce=   0.0000E+00   energy=   0.0000E+00   setid =     211 xmoment=   0.0000E+00 ymoment=   0.0000E+00 zmoment=   0.0000E+00
 nd#     212  xforce=   0.0000E+00   yforce=   0.0000E+00  zforce=   0.0000E+00   energy=   0.0000E+00   setid =     212 xmoment=   0.0000E+00 ymoment=   0.0000E+00 zmoment=   0.0000E+00
 nd#     220  xforce=   0.0000E+00   yforce=   0.0000E+00  zforce=   0.0000E+00   energy=   0.0000E+00   setid =     220 xmoment=   0.0000E+00 ymoment=   0.0000E+00 zmoment=   0.0000E+00
 nd#     228  xforce=   0.0000E+00   yforce=   0.0000E+00  zforce=   0.0000E+00   energy=   0.0000E+00   setid =     228 xmoment=   0.0000E+00 ymoment=   0.0000E+00 zmoment=   0.0000E+00
 nd#     787  xforce=   0.0000E+00   yforce=   0.0000E+00  zforce=   0.0000E+00   energy=   0.0000E+00   setid =     787 xmoment=   0.0000E+00 ymoment=   0.0000E+00 zmoment=   0.0000E+00
 nd#     788  xforce=   0.0000E+00   yforce=   0.0000E+00  zforce=   0.0000E+00   energy=   0.0000E+00   setid =     788 xmoment=   0.0000E+00 ymoment=   0.0000E+00 zmoment=   0.0000E+00
 nd#     789  xforce=   0.0000E+00   yforce=   0.0000E+00  zforce=   0.0000E+00   energy=   0.0000E+00   setid =     789 xmoment=   0.0000E+00 ymoment=   0.0000E+00 zmoment=   0.0000E+00
 nd#     790  xforce=   0.0000E+00   yforce=   0.0000E+00  zforce=   0.0000E+00   energy=   0.0000E+00   setid =     790 xmoment=   0.0000E+00 ymoment=   0.0000E+00 zmoment=   0.0000E+00
 nd#     791  xforce=   0.0000E+00   yforce=   0.0000E+00  zforce=   0.0000E+00   energy=   0.0000E+00   setid =     791 xmoment=   0.0000E+00 ymoment=   0.0000E+00 zmoment=   0.0000E+00
 nd#     792  xforce=   0.0000E+00   yforce=   0.0000E+00  zforce=   0.0000E+00   energy=   0.0000E+00   setid =     792 xmoment=   0.0000E+00 ymoment=   0.0000E+00 zmoment=   0.0000E+00
 nd#     793  xforce=   0.0000E+00   yforce=   0.0000E+00  zforce=   0.0000E+00   energy=   0.0000E+00   setid =     793 xmoment=   0.0000E+00 ymoment=   0.0000E+00 zmoment=   0.0000E+00
 nd#     794  xforce=   0.0000E+00   yforce=   0.0000E+00  zforce=   0.0000E+00   energy=   0.0000E+00   setid =     794 xmoment=   0.0000E+00 ymoment=   0.0000E+00 zmoment=   0.0000E+00
 nd#     955  xforce=   0.0000E+00   yforce=   0.0000E+00  zforce=   0.0000E+00   energy=   0.0000E+00   setid =     955 xmoment=   0.0000E+00 ymoment=   0.0000E+00 zmoment=   0.0000E+00
 nd#     956  xforce=   0.0000E+00   yforce=   0.0000E+00  zforce=   0.0000E+00   energy=   0.0000E+00   setid =     956 xmoment=   0.0000E+00 ymoment=   0.0000E+00 zmoment=   0.0000E+00
 nd#     957  xforce=   0.0000E+00   yforce=   0.0000E+00  zforce=   0.0000E+00   energy=   0.0000E+00   setid =     957 xmoment=   0.0000E+00 ymoment=   0.0000E+00 zmoment=   0.0000E+00
 nd#     958  xforce=   0.0000E+00   yforce=   0.0000E+00  zforce=   0.0000E+00   energy=   0.0000E+00   setid =     958 xmoment=   0.0000E+00 ymoment=   0.0000E+00 zmoment=   0.0000E+00
 nd#     959  xforce=   0.0000E+00   yforce=   0.0000E+00  zforce=   0.0000E+00   energy=   0.0000E+00   setid =     959 xmoment=   0.0000E+00 ymoment=   0.0000E+00 zmoment=   0.0000E+00
 nd#     960  xforce=   0.0000E+00   yforce=   0.0000E+00  zforce=   0.0000E+00   energy=   0.0000E+00   setid =     960 xmoment=   0.0000E+00 ymoment=   0.0000E+00 zmoment=   0.0000E+00
 nd#     961  xforce=   0.0000E+00   yforce=   0.0000E+00  zforce=   0.0000E+00   energy=   0.0000E+00   setid =     961 xmoment=   0.0000E+00 ymoment=   0.0000E+00 zmoment=   0.0000E+00
 nd#     962  xforce=   0.0000E+00   yforce=   0.0000E+00  zforce=   0.0000E+00   energy=   0.0000E+00   setid =     962 xmoment=   0.0000E+00 ymoment=   0.0000E+00 zmoment=   0.0000E+00
 nd#     975  xforce=   0.0000E+00   yforce=   0.0000E+00  zforce=   0.0000E+00   energy=   0.0000E+00   setid =     975 xmoment=   0.0000E+00 ymoment=   0.0000E+00 zmoment=   0.0000E+00
 nd#     977  xforce=   0.0000E+00   yforce=   0.0000E+00  zforce=   0.0000E+00   energy=   0.0000E+00   setid =     977 xmoment=   0.0000E+00 ymoment=   0.0000E+00 zmoment=   0.0000E+00
 nd#     978  xforce=   0.0000E+00   yforce=   0.0000E+00  zforce=   0.0000E+00   energy=   0.0000E+00   setid =     978 xmoment=   0.0000E+00 ymoment=   0.0000E+00 zmoment=   0.0000E+00
 nd#     980  xforce=   0.0000E+00   yforce=   0.0000E+00  zforce=   0.0000E+00   energy=   0.0000E+00   setid =     980 xmoment=   0.0000E+00 ymoment=   0.0000E+00 zmoment=   0.0000E+00
 nd#     981  xforce=   0.0000E+00   yforce=   0.0000E+00  zforce=   0.0000E+00   energy=   0.0000E+00   setid =     981 xmoment=   0.0000E+00 ymoment=   0.0000E+00 zmoment=   0.0000E+00
 nd#     983  xforce=   0.0000E+00   yforce=   0.0000E+00  zforce=   0.0000E+00   energy=   0.0000E+00   setid =     983 xmoment=   0.0000E+00 ymoment=   0.0000E+00 zmoment=   0.0000E+00
 nd#     984  xforce=   0.0000E+00   yforce=   0.0000E+00  zforce=   0.0000E+00   energy=   0.0000E+00   setid =     984 xmoment=   0.0000E+00 ymoment=   0.0000E+00 zmoment=   0.0000E+00
 nd#     986  xforce=   0.0000E+00   yforce=   0.0000E+00  zforce=   0.0000E+00   energy=   0.0000E+00   setid =     986 xmoment=   0.0000E+00 ymoment=   0.0000E+00 zmoment=   0.0000E+00
 nd#    1059  xforce=   0.0000E+00   yforce=   0.0000E+00  zforce=   0.0000E+00   energy=   0.0000E+00   setid =    1059 xmoment=   0.0000E+00 ymoment=   0.0000E+00 zmoment=   0.0000E+00
 nd#    1061  xforce=   0.0000E+00   yforce=   0.0000E+00  zforce=   0.0000E+00   energy=   0.0000E+00   setid =    1061 xmoment=   0.0000E+00 ymoment=   0.0000E+00 zmoment=   0.0000E+00
 nd#    1063  xforce=   0.0000E+00   yforce=   0.0000E+00  zforce=   0.0000E+00   energy=   0.0000E+00   setid =    1063 xmoment=   0.0000E+00 ymoment=   0.0000E+00 zmoment=   0.0000E+00
 nd#    1065  xforce=   0.0000E+00   yforce=   0.0000E+00  zforce=   0.0000E+00   energy=   0.0000E+00   setid =    1065 xmoment=   0.0000E+00 ymoment=   0.0000E+00 zmoment=   0.0000E+00
 nd#    1071  xforce=   0.0000E+00   yforce=   0.0000E+00  zforce=   0.0000E+00   energy=   0.0000E+00   setid =    1071 xmoment=   0.0000E+00 ymoment=   0.0000E+00 zmoment=   0.0000E+00
 nd#    1072  xforce=   0.0000E+00   yforce=   0.0000E+00  zforce=   0.0000E+00   energy=   0.0000E+00   setid =    1072 xmoment=   0.0000E+00 ymoment=   0.0000E+00 zmoment=   0.0000E+00
 nd#    1073  xforce=   0.0000E+00   yforce=   0.0000E+00  zforce=   0.0000E+00   energy=   0.0000E+00   setid =    1073 xmoment=   0.0000E+00 ymoment=   0.0000E+00 zmoment=   0.0000E+00
 nd#    1074  xforce=   0.0000E+00   yforce=   0.0000E+00  zforce=   0.0000E+00   energy=   0.0000E+00   setid =    1074 xmoment=   0.0000E+00 ymoment=   0.0000E+00 zmoment=   0.0000E+00
 nd#    1111  xforce=   0.0000E+00   yforce=   0.0000E+00  zforce=   0.0000E+00   energy=   0.0000E+00   setid =    1111 xmoment=   0.0000E+00 ymoment=   0.0000E+00 zmoment=   0.0000E+00
 nd#    1112  xforce=   0.0000E+00   yforce=   0.0000E+00  zforce=   0.0000E+00   energy=   0.0000E+00   setid =    1112 xmoment=   0.0000E+00 ymoment=   0.0000E+00 zmoment=   0.0000E+00
 nd#    1113  xforce=   0.0000E+00   yforce=   0.0000E+00  zforce=   0.0000E+00   energy=   0.0000E+00   setid =    1113 xmoment=   0.0000E+00 ymoment=   0.0000E+00 zmoment=   0.0000E+00
 nd#    1114  xforce=   0.0000E+00   yforce=   0.0000E+00  zforce=   0.0000E+00   energy=   0.0000E+00   setid =    1114 xmoment=   0.0000E+00 ymoment=   0.0000E+00 zmoment=   0.0000E+00
 nd#    1135  xforce=   0.0000E+00   yforce=   0.0000E+00  zforce=   0.0000E+00   energy=   0.0000E+00   setid =    1135 xmoment=   0.0000E+00 ymoment=   0.0000E+00 zmoment=   0.0000E+00
 nd#    1136  xforce=   0.0000E+00   yforce=   0.0000E+00  zforce=   0.0000E+00   energy=   0.0000E+00   setid =    1136 xmoment=   0.0000E+00 ymoment=   0.0000E+00 zmoment=   0.0000E+00
 nd#    1137  xforce=   0.0000E+00   yforce=   0.0000E+00  zforce=   0.0000E+00   energy=   0.0000E+00   setid =    1137 xmoment=   0.0000E+00 ymoment=   0.0000E+00 zmoment=   0.0000E+00
 nd#    1138  xforce=   0.0000E+00   yforce=   0.0000E+00  zforce=   0.0000E+00   energy=   0.0000E+00   setid =    1138 xmoment=   0.0000E+00 ymoment=   0.0000E+00 zmoment=   0.0000E+00
              xtotal=   0.0000E+00   ytotal=   0.0000E+00  ztotal=   0.0000E+00   etotal=   0.0000E+00

 n o d a l   f o r c e/e n e r g y    o u t p u t  t=   1.29245E+00

 velocity boundary condition forces/rigid body moments 

 nd#     105  xforce=   0.0000E+00   yforce=   0.0000E+00  zforce=  -5.3126E+01   energy=   3.4673E-04   setid =     105 xmoment=   0.0000E+00 ymoment=   0.0000E+00 zmoment=   0.0000E+00
 nd#     106  xforce=   0.0000E+00   yforce=   0.0000E+00  zforce=  -5.2506E+01   energy=   3.4160E-04   setid =     106 xmoment=   0.0000E+00 ymoment=   0.0000E+00 zmoment=   0.0000E+00
 nd#     107  xforce=   0.0000E+00   yforce=   0.0000E+00  zforce=  -6.0339E+01   energy=   3.9113E-04   setid =     107 xmoment=   0.0000E+00 ymoment=   0.0000E+00 zmoment=   0.0000E+00
 nd#     108  xforce=   0.0000E+00   yforce=   0.0000E+00  zforce=  -5.7751E+01   energy=   3.7625E-04   setid =     108 xmoment=   0.0000E+00 ymoment=   0.0000E+00 zmoment=   0.0000E+00
 nd#     137  xforce=   0.0000E+00   yforce=   0.0000E+00  zforce=  -6.4883E+01   energy=   4.1927E-04   setid =     137 xmoment=   0.0000E+00 ymoment=   0.0000E+00 zmoment=   0.0000E+00
 nd#     138  xforce=   0.0000E+00   yforce=   0.0000E+00  zforce=  -6.1067E+01   energy=   3.9503E-04   setid =     138 xmoment=   0.0000E+00 ymoment=   0.0000E+00 zmoment=   0.0000E+00
 nd#     139  xforce=   0.0000E+00   yforce=   0.0000E+00  zforce=  -3.3768E+01   energy=   2.1395E-04   setid =     139 xmoment=   0.0000E+00 ymoment=   0.0000E+00 zmoment=   0.0000E+00
 nd#     140  xforce=   0.0000E+00   yforce=   0.0000E+00  zforce=  -3.4054E+01   energy=   2.1823E-04   setid =     140 xmoment=   0.0000E+00 ymoment=   0.0000E+00 zmoment=   0.0000E+00
 nd#     162  xforce=   0.0000E+00   yforce=   0.0000E+00  zforce=  -2.9180E+01   energy=   1.8630E-04   setid =     162 xmoment=   0.0000E+00 ymoment=   0.0000E+00 zmoment=   0.0000E+00
 nd#     163  xforce=   0.0000E+00   yforce=   0.0000E+00  zforce=  -3.6426E+01   energy=   2.4733E-04   setid =     163 xmoment=   0.0000E+00 ymoment=   0.0000E+00 zmoment=   0.0000E+00
 nd#     164  xforce=   0.0000E+00   yforce=   0.0000E+00  zforce=  -3.5255E+01   energy=   2.2334E-04   setid =     164 xmoment=   0.0000E+00 ymoment=   0.0000E+00 zmoment=   0.0000E+00
 nd#     179  xforce=   0.0000E+00   yforce=   0.0000E+00  zforce=  -5.3588E+01   energy=   3.5046E-04   setid =     179 xmoment=   0.0000E+00 ymoment=   0.0000E+00 zmoment=   0.0000E+00
 nd#     180  xforce=   0.0000E+00   yforce=   0.0000E+00  zforce=  -3.9028E+01   energy=   2.4462E-04   setid =     180 xmoment=   0.0000E+00 ymoment=   0.0000E+00 zmoment=   0.0000E+00
 nd#     188  xforce=   0.0000E+00   yforce=   0.0000E+00  zforce=  -2.8276E+01   energy=   1.8562E-04   setid =     188 xmoment=   0.0000E+00 ymoment=   0.0000E+00 zmoment=   0.0000E+00
 nd#     210  xforce=   0.0000E+00   yforce=   0.0000E+00  zforce=  -3.6905E+01   energy=   2.2971E-04   setid =     210 xmoment=   0.0000E+00 ymoment=   0.0000E+00 zmoment=   0.0000E+00
 nd#     211  xforce=   0.0000E+00   yforce=   0.0000E+00  zforce=  -5.8253E+01   energy=   3.7546E-04   setid =     211 xmoment=   0.0000E+00 ymoment=   0.0000E+00 zmoment=   0.0000E+00
 nd#     212  xforce=   0.0000E+00   yforce=   0.0000E+00  zforce=  -3.0106E+01   energy=   1.9055E-04   setid =     212 xmoment=   0.0000E+00 ymoment=   0.0000E+00 zmoment=   0.0000E+00
 nd#     220  xforce=   0.0000E+00   yforce=   0.0000E+00  zforce=  -2.2258E+01   energy=   1.3686E-04   setid =     220 xmoment=   0.0000E+00 ymoment=   0.0000E+00 zmoment=   0.0000E+00
 nd#     228  xforce=   0.0000E+00   yforce=   0.0000E+00  zforce=  -3.5951E+01   energy=   2.2930E-04   setid =     228 xmoment=   0.0000E+00 ymoment=   0.0000E+00 zmoment=   0.0000E+00
 nd#     787  xforce=   0.0000E+00   yforce=   0.0000E+00  zforce=  -3.1853E+01   energy=   2.0370E-04   setid =     787 xmoment=   0.0000E+00 ymoment=   0.0000E+00 zmoment=   0.0000E+00
 nd#     788  xforce=   0.0000E+00   yforce=   0.0000E+00  zforce=  -2.6759E+01   energy=   1.7143E-04   setid =     788 xmoment=   0.0000E+00 ymoment=   0.0000E+00 zmoment=   0.0000E+00
 nd#     789  xforce=   0.0000E+00   yforce=   0.0000E+00  zforce=  -2.0761E+01   energy=   1.3315E-04   setid =     789 xmoment=   0.0000E+00 ymoment=   0.0000E+00 zmoment=   0.0000E+00
 nd#     790  xforce=   0.0000E+00   yforce=   0.0000E+00  zforce=  -1.4813E+01   energy=   9.4966E-05   setid =     790 xmoment=   0.0000E+00 ymoment=   0.0000E+00 zmoment=   0.0000E+00
 nd#     791  xforce=   0.0000E+00   yforce=   0.0000E+00  zforce=  -9.4996E+00   energy=   6.0748E-05   setid =     791 xmoment=   0.0000E+00 ymoment=   0.0000E+00 zmoment=   0.0000E+00
 nd#     792  xforce=   0.0000E+00   yforce=   0.0000E+00  zforce=  -4.8414E+00   energy=   3.0862E-05   setid =     792 xmoment=   0.0000E+00 ymoment=   0.0000E+00 zmoment=   0.0000E+00
 nd#     793  xforce=   0.0000E+00   yforce=   0.0000E+00  zforce=   3.3956E-02   energy=   4.9436E-08   setid =     793 xmoment=   0.0000E+00 ymoment=   0.0000E+00 zmoment=   0.0000E+00
 nd#     794  xforce=   0.0000E+00   yforce=   0.0000E+00  zforce=   1.1413E+00   energy=  -7.4501E-06   setid =     794 xmoment=   0.0000E+00 ymoment=   0.0000E+00 zmoment=   0.0000E+00
 nd#     955  xforce=   0.0000E+00   yforce=   0.0000E+00  zforce=  -2.4212E+01   energy=   1.5938E-04   setid =     955 xmoment=   0.0000E+00 ymoment=   0.0000E+00 zmoment=   0.0000E+00
 nd#     956  xforce=   0.0000E+00   yforce=   0.0000E+00  zforce=  -1.4725E+01   energy=   9.7494E-05   setid =     956 xmoment=   0.0000E+00 ymoment=   0.0000E+00 zmoment=   0.0000E+00
 nd#     957  xforce=   0.0000E+00   yforce=   0.0000E+00  zforce=  -2.6064E+01   energy=   1.7037E-04   setid =     957 xmoment=   0.0000E+00 ymoment=   0.0000E+00 zmoment=   0.0000E+00
 nd#     958  xforce=   0.0000E+00   yforce=   0.0000E+00  zforce=  -1.7166E+01   energy=   1.1190E-04   setid =     958 xmoment=   0.0000E+00 ymoment=   0.0000E+00 zmoment=   0.0000E+00
 nd#     959  xforce=   0.0000E+00   yforce=   0.0000E+00  zforce=  -2.6027E+01   energy=   1.6942E-04   setid =     959 xmoment=   0.0000E+00 ymoment=   0.0000E+00 zmoment=   0.0000E+00
 nd#     960  xforce=   0.0000E+00   yforce=   0.0000E+00  zforce=  -1.7152E+01   energy=   1.1088E-04   setid =     960 xmoment=   0.0000E+00 ymoment=   0.0000E+00 zmoment=   0.0000E+00
 nd#     961  xforce=   0.0000E+00   yforce=   0.0000E+00  zforce=  -1.1939E+01   energy=   7.8160E-05   setid =     961 xmoment=   0.0000E+00 ymoment=   0.0000E+00 zmoment=   0.0000E+00
 nd#     962  xforce=   0.0000E+00   yforce=   0.0000E+00  zforce=  -7.4345E+00   energy=   4.8541E-05   setid =     962 xmoment=   0.0000E+00 ymoment=   0.0000E+00 zmoment=   0.0000E+00
 nd#     975  xforce=   0.0000E+00   yforce=   0.0000E+00  zforce=   2.6829E+00   energy=  -1.4546E-05   setid =     975 xmoment=   0.0000E+00 ymoment=   0.0000E+00 zmoment=   0.0000E+00
 nd#     977  xforce=   0.0000E+00   yforce=   0.0000E+00  zforce=   6.6294E+00   energy=  -3.8852E-05   setid =     977 xmoment=   0.0000E+00 ymoment=   0.0000E+00 zmoment=   0.0000E+00
 nd#     978  xforce=   0.0000E+00   yforce=   0.0000E+00  zforce=  -8.2445E-01   energy=   6.3798E-06   setid =     978 xmoment=   0.0000E+00 ymoment=   0.0000E+00 zmoment=   0.0000E+00
 nd#     980  xforce=   0.0000E+00   yforce=   0.0000E+00  zforce=   3.9306E+00   energy=  -2.3325E-05   setid =     980 xmoment=   0.0000E+00 ymoment=   0.0000E+00 zmoment=   0.0000E+00
 nd#     981  xforce=   0.0000E+00   yforce=   0.0000E+00  zforce=  -2.0682E+00   energy=   1.2629E-05   setid =     981 xmoment=   0.0000E+00 ymoment=   0.0000E+00 zmoment=   0.0000E+00
 nd#     983  xforce=   0.0000E+00   yforce=   0.0000E+00  zforce=   9.2771E-01   energy=  -5.9075E-06   setid =     983 xmoment=   0.0000E+00 ymoment=   0.0000E+00 zmoment=   0.0000E+00
 nd#     984  xforce=   0.0000E+00   yforce=   0.0000E+00  zforce=  -2.2573E-01   energy=   1.1626E-06   setid =     984 xmoment=   0.0000E+00 ymoment=   0.0000E+00 zmoment=   0.0000E+00
 nd#     986  xforce=   0.0000E+00   yforce=   0.0000E+00  zforce=   2.8101E-01   energy=  -1.9638E-06   setid =     986 xmoment=   0.0000E+00 ymoment=   0.0000E+00 zmoment=   0.0000E+00
 nd#    1059  xforce=   0.0000E+00   yforce=   0.0000E+00  zforce=  -3.4860E+01   energy=   2.2861E-04   setid =    1059 xmoment=   0.0000E+00 ymoment=   0.0000E+00 zmoment=   0.0000E+00
 nd#    1061  xforce=   0.0000E+00   yforce=   0.0000E+00  zforce=  -3.6310E+01   energy=   2.3732E-04   setid =    1061 xmoment=   0.0000E+00 ymoment=   0.0000E+00 zmoment=   0.0000E+00
 nd#    1063  xforce=   0.0000E+00   yforce=   0.0000E+00  zforce=  -3.6406E+01   energy=   2.3751E-04   setid =    1063 xmoment=   0.0000E+00 ymoment=   0.0000E+00 zmoment=   0.0000E+00
 nd#    1065  xforce=   0.0000E+00   yforce=   0.0000E+00  zforce=  -1.7259E+01   energy=   1.1284E-04   setid =    1065 xmoment=   0.0000E+00 ymoment=   0.0000E+00 zmoment=   0.0000E+00
 nd#    1071  xforce=   0.0000E+00   yforce=   0.0000E+00  zforce=  -6.4009E+00   energy=   4.3426E-05   setid =    1071 xmoment=   0.0000E+00 ymoment=   0.0000E+00 zmoment=   0.0000E+00
 nd#    1072  xforce=   0.0000E+00   yforce=   0.0000E+00  zforce=  -9.4981E+00   energy=   6.1677E-05   setid =    1072 xmoment=   0.0000E+00 ymoment=   0.0000E+00 zmoment=   0.0000E+00
 nd#    1073  xforce=   0.0000E+00   yforce=   0.0000E+00  zforce=  -9.5777E+00   energy=   6.1168E-05   setid =    1073 xmoment=   0.0000E+00 ymoment=   0.0000E+00 zmoment=   0.0000E+00
 nd#    1074  xforce=   0.0000E+00   yforce=   0.0000E+00  zforce=  -3.6491E+00   energy=   2.3602E-05   setid =    1074 xmoment=   0.0000E+00 ymoment=   0.0000E+00 zmoment=   0.0000E+00
 nd#    1111  xforce=   0.0000E+00   yforce=   0.0000E+00  zforce=  -4.5452E+01   energy=   2.9712E-04   setid =    1111 xmoment=   0.0000E+00 ymoment=   0.0000E+00 zmoment=   0.0000E+00
 nd#    1112  xforce=   0.0000E+00   yforce=   0.0000E+00  zforce=  -4.6804E+01   energy=   3.0532E-04   setid =    1112 xmoment=   0.0000E+00 ymoment=   0.0000E+00 zmoment=   0.0000E+00
 nd#    1113  xforce=   0.0000E+00   yforce=   0.0000E+00  zforce=  -4.7366E+01   energy=   3.0870E-04   setid =    1113 xmoment=   0.0000E+00 ymoment=   0.0000E+00 zmoment=   0.0000E+00
 nd#    1114  xforce=   0.0000E+00   yforce=   0.0000E+00  zforce=  -2.3004E+01   energy=   1.4977E-04   setid =    1114 xmoment=   0.0000E+00 ymoment=   0.0000E+00 zmoment=   0.0000E+00
 nd#    1135  xforce=   0.0000E+00   yforce=   0.0000E+00  zforce=  -5.4020E+01   energy=   3.5224E-04   setid =    1135 xmoment=   0.0000E+00 ymoment=   0.0000E+00 zmoment=   0.0000E+00
 nd#    1136  xforce=   0.0000E+00   yforce=   0.0000E+00  zforce=  -5.5570E+01   energy=   3.6144E-04   setid =    1136 xmoment=   0.0000E+00 ymoment=   0.0000E+00 zmoment=   0.0000E+00
 nd#    1137  xforce=   0.0000E+00   yforce=   0.0000E+00  zforce=  -5.7143E+01   energy=   3.7128E-04   setid =    1137 xmoment=   0.0000E+00 ymoment=   0.0000E+00 zmoment=   0.0000E+00
 nd#    1138  xforce=   0.0000E+00   yforce=   0.0000E+00  zforce=  -2.8278E+01   energy=   1.8293E-04   setid =    1138 xmoment=   0.0000E+00 ymoment=   0.0000E+00 zmoment=   0.0000E+00
              xtotal=   0.0000E+00   ytotal=   0.0000E+00  ztotal=  -1.5751E+03   etotal=   1.0206E-02

 n o d a l   f o r c e/e n e r g y    o u t p u t  t=   2.54839E+00

 velocity boundary condition forces/rigid body moments 

 nd#     105  xforce=   0.0000E+00   yforce=   0.0000E+00  zforce=  -9.7814E+01   energy=   1.2946E-03   setid =     105 xmoment=   0.0000E+00 ymoment=   0.0000E+00 zmoment=   0.0000E+00
 nd#     106  xforce=   0.0000E+00   yforce=   0.0000E+00  zforce=  -9.7641E+01   energy=   1.2845E-03   setid =     106 xmoment=   0.0000E+00 ymoment=   0.0000E+00 zmoment=   0.0000E+00
 nd#     107  xforce=   0.0000E+00   yforce=   0.0000E+00  zforce=  -1.1248E+02   energy=   1.4764E-03   setid =     107 xmoment=   0.0000E+00 ymoment=   0.0000E+00 zmoment=   0.0000E+00
 nd#     108  xforce=   0.0000E+00   yforce=   0.0000E+00  zforce=  -1.0622E+02   energy=   1.4059E-03   setid =     108 xmoment=   0.0000E+00 ymoment=   0.0000E+00 zmoment=   0.0000E+00
 nd#     137  xforce=   0.0000E+00   yforce=   0.0000E+00  zforce=  -1.2058E+02   energy=   1.5839E-03   setid =     137 xmoment=   0.0000E+00 ymoment=   0.0000E+00 zmoment=   0.0000E+00
 nd#     138  xforce=   0.0000E+00   yforce=   0.0000E+00  zforce=  -1.1331E+02   energy=   1.4901E-03   setid =     138 xmoment=   0.0000E+00 ymoment=   0.0000E+00 zmoment=   0.0000E+00
 nd#     139  xforce=   0.0000E+00   yforce=   0.0000E+00  zforce=  -6.7011E+01   energy=   8.4682E-04   setid =     139 xmoment=   0.0000E+00 ymoment=   0.0000E+00 zmoment=   0.0000E+00
 nd#     140  xforce=   0.0000E+00   yforce=   0.0000E+00  zforce=  -6.5394E+01   energy=   8.4273E-04   setid =     140 xmoment=   0.0000E+00 ymoment=   0.0000E+00 zmoment=   0.0000E+00
 nd#     162  xforce=   0.0000E+00   yforce=   0.0000E+00  zforce=  -5.6791E+01   energy=   7.2617E-04   setid =     162 xmoment=   0.0000E+00 ymoment=   0.0000E+00 zmoment=   0.0000E+00
 nd#     163  xforce=   0.0000E+00   yforce=   0.0000E+00  zforce=  -6.1947E+01   energy=   8.6508E-04   setid =     163 xmoment=   0.0000E+00 ymoment=   0.0000E+00 zmoment=   0.0000E+00
 nd#     164  xforce=   0.0000E+00   yforce=   0.0000E+00  zforce=  -6.9038E+01   energy=   8.7827E-04   setid =     164 xmoment=   0.0000E+00 ymoment=   0.0000E+00 zmoment=   0.0000E+00
 nd#     179  xforce=   0.0000E+00   yforce=   0.0000E+00  zforce=  -9.7114E+01   energy=   1.2968E-03   setid =     179 xmoment=   0.0000E+00 ymoment=   0.0000E+00 zmoment=   0.0000E+00
 nd#     180  xforce=   0.0000E+00   yforce=   0.0000E+00  zforce=  -7.7383E+01   energy=   9.7565E-04   setid =     180 xmoment=   0.0000E+00 ymoment=   0.0000E+00 zmoment=   0.0000E+00
 nd#     188  xforce=   0.0000E+00   yforce=   0.0000E+00  zforce=  -5.1491E+01   energy=   6.8654E-04   setid =     188 xmoment=   0.0000E+00 ymoment=   0.0000E+00 zmoment=   0.0000E+00
 nd#     210  xforce=   0.0000E+00   yforce=   0.0000E+00  zforce=  -7.5552E+01   energy=   9.3591E-04   setid =     210 xmoment=   0.0000E+00 ymoment=   0.0000E+00 zmoment=   0.0000E+00
 nd#     211  xforce=   0.0000E+00   yforce=   0.0000E+00  zforce=  -1.0757E+02   energy=   1.4168E-03   setid =     211 xmoment=   0.0000E+00 ymoment=   0.0000E+00 zmoment=   0.0000E+00
 nd#     212  xforce=   0.0000E+00   yforce=   0.0000E+00  zforce=  -6.0974E+01   energy=   7.6251E-04   setid =     212 xmoment=   0.0000E+00 ymoment=   0.0000E+00 zmoment=   0.0000E+00
 nd#     220  xforce=   0.0000E+00   yforce=   0.0000E+00  zforce=  -4.6979E+01   energy=   5.7166E-04   setid =     220 xmoment=   0.0000E+00 ymoment=   0.0000E+00 zmoment=   0.0000E+00
 nd#     228  xforce=   0.0000E+00   yforce=   0.0000E+00  zforce=  -6.9158E+01   energy=   8.8935E-04   setid =     228 xmoment=   0.0000E+00 ymoment=   0.0000E+00 zmoment=   0.0000E+00
 nd#     787  xforce=   0.0000E+00   yforce=   0.0000E+00  zforce=  -6.0779E+01   energy=   7.8541E-04   setid =     787 xmoment=   0.0000E+00 ymoment=   0.0000E+00 zmoment=   0.0000E+00
 nd#     788  xforce=   0.0000E+00   yforce=   0.0000E+00  zforce=  -5.0703E+01   energy=   6.5787E-04   setid =     788 xmoment=   0.0000E+00 ymoment=   0.0000E+00 zmoment=   0.0000E+00
 nd#     789  xforce=   0.0000E+00   yforce=   0.0000E+00  zforce=  -3.9057E+01   energy=   5.0879E-04   setid =     789 xmoment=   0.0000E+00 ymoment=   0.0000E+00 zmoment=   0.0000E+00
 nd#     790  xforce=   0.0000E+00   yforce=   0.0000E+00  zforce=  -2.7682E+01   energy=   3.6182E-04   setid =     790 xmoment=   0.0000E+00 ymoment=   0.0000E+00 zmoment=   0.0000E+00
 nd#     791  xforce=   0.0000E+00   yforce=   0.0000E+00  zforce=  -1.7569E+01   energy=   2.3073E-04   setid =     791 xmoment=   0.0000E+00 ymoment=   0.0000E+00 zmoment=   0.0000E+00
 nd#     792  xforce=   0.0000E+00   yforce=   0.0000E+00  zforce=  -8.5852E+00   energy=   1.1518E-04   setid =     792 xmoment=   0.0000E+00 ymoment=   0.0000E+00 zmoment=   0.0000E+00
 nd#     793  xforce=   0.0000E+00   yforce=   0.0000E+00  zforce=   1.1844E+00   energy=  -7.6015E-06   setid =     793 xmoment=   0.0000E+00 ymoment=   0.0000E+00 zmoment=   0.0000E+00
 nd#     794  xforce=   0.0000E+00   yforce=   0.0000E+00  zforce=   2.6057E+00   energy=  -3.0980E-05   setid =     794 xmoment=   0.0000E+00 ymoment=   0.0000E+00 zmoment=   0.0000E+00
 nd#     955  xforce=   0.0000E+00   yforce=   0.0000E+00  zforce=  -4.2447E+01   energy=   5.7798E-04   setid =     955 xmoment=   0.0000E+00 ymoment=   0.0000E+00 zmoment=   0.0000E+00
 nd#     956  xforce=   0.0000E+00   yforce=   0.0000E+00  zforce=  -2.4804E+01   energy=   3.4573E-04   setid =     956 xmoment=   0.0000E+00 ymoment=   0.0000E+00 zmoment=   0.0000E+00
 nd#     957  xforce=   0.0000E+00   yforce=   0.0000E+00  zforce=  -4.6608E+01   energy=   6.2673E-04   setid =     957 xmoment=   0.0000E+00 ymoment=   0.0000E+00 zmoment=   0.0000E+00
 nd#     958  xforce=   0.0000E+00   yforce=   0.0000E+00  zforce=  -3.0250E+01   energy=   4.0966E-04   setid =     958 xmoment=   0.0000E+00 ymoment=   0.0000E+00 zmoment=   0.0000E+00
 nd#     959  xforce=   0.0000E+00   yforce=   0.0000E+00  zforce=  -4.6763E+01   energy=   6.2652E-04   setid =     959 xmoment=   0.0000E+00 ymoment=   0.0000E+00 zmoment=   0.0000E+00
 nd#     960  xforce=   0.0000E+00   yforce=   0.0000E+00  zforce=  -3.0666E+01   energy=   4.1117E-04   setid =     960 xmoment=   0.0000E+00 ymoment=   0.0000E+00 zmoment=   0.0000E+00
 nd#     961  xforce=   0.0000E+00   yforce=   0.0000E+00  zforce=  -2.1561E+01   energy=   2.8853E-04   setid =     961 xmoment=   0.0000E+00 ymoment=   0.0000E+00 zmoment=   0.0000E+00
 nd#     962  xforce=   0.0000E+00   yforce=   0.0000E+00  zforce=  -1.3296E+01   energy=   1.7872E-04   setid =     962 xmoment=   0.0000E+00 ymoment=   0.0000E+00 zmoment=   0.0000E+00
 nd#     975  xforce=   0.0000E+00   yforce=   0.0000E+00  zforce=   8.6825E+00   energy=  -8.5917E-05   setid =     975 xmoment=   0.0000E+00 ymoment=   0.0000E+00 zmoment=   0.0000E+00
 nd#     977  xforce=   0.0000E+00   yforce=   0.0000E+00  zforce=   1.6129E+01   energy=  -1.8177E-04   setid =     977 xmoment=   0.0000E+00 ymoment=   0.0000E+00 zmoment=   0.0000E+00
 nd#     978  xforce=   0.0000E+00   yforce=   0.0000E+00  zforce=   1.2041E+00   energy=   3.9957E-06   setid =     978 xmoment=   0.0000E+00 ymoment=   0.0000E+00 zmoment=   0.0000E+00
 nd#     980  xforce=   0.0000E+00   yforce=   0.0000E+00  zforce=   9.8413E+00   energy=  -1.0981E-04   setid =     980 xmoment=   0.0000E+00 ymoment=   0.0000E+00 zmoment=   0.0000E+00
 nd#     981  xforce=   0.0000E+00   yforce=   0.0000E+00  zforce=  -2.1078E+00   energy=   3.8853E-05   setid =     981 xmoment=   0.0000E+00 ymoment=   0.0000E+00 zmoment=   0.0000E+00
 nd#     983  xforce=   0.0000E+00   yforce=   0.0000E+00  zforce=   3.2400E+00   energy=  -3.2079E-05   setid =     983 xmoment=   0.0000E+00 ymoment=   0.0000E+00 zmoment=   0.0000E+00
 nd#     984  xforce=   0.0000E+00   yforce=   0.0000E+00  zforce=   2.1982E-01   energy=   1.1998E-06   setid =     984 xmoment=   0.0000E+00 ymoment=   0.0000E+00 zmoment=   0.0000E+00
 nd#     986  xforce=   0.0000E+00   yforce=   0.0000E+00  zforce=   1.0278E+00   energy=  -1.0182E-05   setid =     986 xmoment=   0.0000E+00 ymoment=   0.0000E+00 zmoment=   0.0000E+00
 nd#    1059  xforce=   0.0000E+00   yforce=   0.0000E+00  zforce=  -6.2337E+01   energy=   8.3898E-04   setid =    1059 xmoment=   0.0000E+00 ymoment=   0.0000E+00 zmoment=   0.0000E+00
 nd#    1061  xforce=   0.0000E+00   yforce=   0.0000E+00  zforce=  -6.5607E+01   energy=   8.7733E-04   setid =    1061 xmoment=   0.0000E+00 ymoment=   0.0000E+00 zmoment=   0.0000E+00
 nd#    1063  xforce=   0.0000E+00   yforce=   0.0000E+00  zforce=  -6.5691E+01   energy=   8.7865E-04   setid =    1063 xmoment=   0.0000E+00 ymoment=   0.0000E+00 zmoment=   0.0000E+00
 nd#    1065  xforce=   0.0000E+00   yforce=   0.0000E+00  zforce=  -3.1461E+01   energy=   4.1878E-04   setid =    1065 xmoment=   0.0000E+00 ymoment=   0.0000E+00 zmoment=   0.0000E+00
 nd#    1071  xforce=   0.0000E+00   yforce=   0.0000E+00  zforce=  -9.1131E+00   energy=   1.4085E-04   setid =    1071 xmoment=   0.0000E+00 ymoment=   0.0000E+00 zmoment=   0.0000E+00
 nd#    1072  xforce=   0.0000E+00   yforce=   0.0000E+00  zforce=  -1.5956E+01   energy=   2.2152E-04   setid =    1072 xmoment=   0.0000E+00 ymoment=   0.0000E+00 zmoment=   0.0000E+00
 nd#    1073  xforce=   0.0000E+00   yforce=   0.0000E+00  zforce=  -1.6631E+01   energy=   2.2575E-04   setid =    1073 xmoment=   0.0000E+00 ymoment=   0.0000E+00 zmoment=   0.0000E+00
 nd#    1074  xforce=   0.0000E+00   yforce=   0.0000E+00  zforce=  -6.3023E+00   energy=   8.6094E-05   setid =    1074 xmoment=   0.0000E+00 ymoment=   0.0000E+00 zmoment=   0.0000E+00
 nd#    1111  xforce=   0.0000E+00   yforce=   0.0000E+00  zforce=  -8.2388E+01   energy=   1.0999E-03   setid =    1111 xmoment=   0.0000E+00 ymoment=   0.0000E+00 zmoment=   0.0000E+00
 nd#    1112  xforce=   0.0000E+00   yforce=   0.0000E+00  zforce=  -8.5442E+01   energy=   1.1358E-03   setid =    1112 xmoment=   0.0000E+00 ymoment=   0.0000E+00 zmoment=   0.0000E+00
 nd#    1113  xforce=   0.0000E+00   yforce=   0.0000E+00  zforce=  -8.6055E+01   energy=   1.1466E-03   setid =    1113 xmoment=   0.0000E+00 ymoment=   0.0000E+00 zmoment=   0.0000E+00
 nd#    1114  xforce=   0.0000E+00   yforce=   0.0000E+00  zforce=  -4.2472E+01   energy=   5.6094E-04   setid =    1114 xmoment=   0.0000E+00 ymoment=   0.0000E+00 zmoment=   0.0000E+00
 nd#    1135  xforce=   0.0000E+00   yforce=   0.0000E+00  zforce=  -9.8899E+01   energy=   1.3125E-03   setid =    1135 xmoment=   0.0000E+00 ymoment=   0.0000E+00 zmoment=   0.0000E+00
 nd#    1136  xforce=   0.0000E+00   yforce=   0.0000E+00  zforce=  -1.0254E+02   energy=   1.3543E-03   setid =    1136 xmoment=   0.0000E+00 ymoment=   0.0000E+00 zmoment=   0.0000E+00
 nd#    1137  xforce=   0.0000E+00   yforce=   0.0000E+00  zforce=  -1.0478E+02   energy=   1.3881E-03   setid =    1137 xmoment=   0.0000E+00 ymoment=   0.0000E+00 zmoment=   0.0000E+00
 nd#    1138  xforce=   0.0000E+00   yforce=   0.0000E+00  zforce=  -5.3077E+01   energy=   6.9382E-04   setid =    1138 xmoment=   0.0000E+00 ymoment=   0.0000E+00 zmoment=   0.0000E+00
              xtotal=   0.0000E+00   ytotal=   0.0000E+00  ztotal=  -2.9019E+03   etotal=   3.8320E-02

 n o d a l   f o r c e/e n e r g y    o u t p u t  t=   3.19217E+00

 velocity boundary condition forces/rigid body moments 

 nd#     105  xforce=   0.0000E+00   yforce=   0.0000E+00  zforce=  -7.5314E+01   energy=   1.8152E-03   setid =     105 xmoment=   0.0000E+00 ymoment=   0.0000E+00 zmoment=   0.0000E+00
 nd#     106  xforce=   0.0000E+00   yforce=   0.0000E+00  zforce=  -1.2684E+02   energy=   2.0368E-03   setid =     106 xmoment=   0.0000E+00 ymoment=   0.0000E+00 zmoment=   0.0000E+00
 nd#     107  xforce=   0.0000E+00   yforce=   0.0000E+00  zforce=  -1.1882E+02   energy=   2.2219E-03   setid =     107 xmoment=   0.0000E+00 ymoment=   0.0000E+00 zmoment=   0.0000E+00
 nd#     108  xforce=   0.0000E+00   yforce=   0.0000E+00  zforce=  -7.5133E+01   energy=   1.9570E-03   setid =     108 xmoment=   0.0000E+00 ymoment=   0.0000E+00 zmoment=   0.0000E+00
 nd#     137  xforce=   0.0000E+00   yforce=   0.0000E+00  zforce=  -7.1586E+01   energy=   2.1574E-03   setid =     137 xmoment=   0.0000E+00 ymoment=   0.0000E+00 zmoment=   0.0000E+00
 nd#     138  xforce=   0.0000E+00   yforce=   0.0000E+00  zforce=  -7.3960E+01   energy=   2.0742E-03   setid =     138 xmoment=   0.0000E+00 ymoment=   0.0000E+00 zmoment=   0.0000E+00
 nd#     139  xforce=   0.0000E+00   yforce=   0.0000E+00  zforce=  -1.1063E+02   energy=   1.4610E-03   setid =     139 xmoment=   0.0000E+00 ymoment=   0.0000E+00 zmoment=   0.0000E+00
 nd#     140  xforce=   0.0000E+00   yforce=   0.0000E+00  zforce=  -8.0038E+01   energy=   1.3241E-03   setid =     140 xmoment=   0.0000E+00 ymoment=   0.0000E+00 zmoment=   0.0000E+00
 nd#     162  xforce=   0.0000E+00   yforce=   0.0000E+00  zforce=  -6.0756E+01   energy=   1.1090E-03   setid =     162 xmoment=   0.0000E+00 ymoment=   0.0000E+00 zmoment=   0.0000E+00
 nd#     163  xforce=   0.0000E+00   yforce=   0.0000E+00  zforce=  -1.9668E+01   energy=   1.0845E-03   setid =     163 xmoment=   0.0000E+00 ymoment=   0.0000E+00 zmoment=   0.0000E+00
 nd#     164  xforce=   0.0000E+00   yforce=   0.0000E+00  zforce=  -7.9072E+01   energy=   1.3503E-03   setid =     164 xmoment=   0.0000E+00 ymoment=   0.0000E+00 zmoment=   0.0000E+00
 nd#     179  xforce=   0.0000E+00   yforce=   0.0000E+00  zforce=   4.9520E+00   energy=   1.5040E-03   setid =     179 xmoment=   0.0000E+00 ymoment=   0.0000E+00 zmoment=   0.0000E+00
 nd#     180  xforce=   0.0000E+00   yforce=   0.0000E+00  zforce=  -7.3489E+01   energy=   1.4675E-03   setid =     180 xmoment=   0.0000E+00 ymoment=   0.0000E+00 zmoment=   0.0000E+00
 nd#     188  xforce=   0.0000E+00   yforce=   0.0000E+00  zforce=  -5.7290E+01   energy=   1.0519E-03   setid =     188 xmoment=   0.0000E+00 ymoment=   0.0000E+00 zmoment=   0.0000E+00
 nd#     210  xforce=   0.0000E+00   yforce=   0.0000E+00  zforce=  -1.0698E+02   energy=   1.5633E-03   setid =     210 xmoment=   0.0000E+00 ymoment=   0.0000E+00 zmoment=   0.0000E+00
 nd#     211  xforce=   0.0000E+00   yforce=   0.0000E+00  zforce=   1.8956E+01   energy=   1.6088E-03   setid =     211 xmoment=   0.0000E+00 ymoment=   0.0000E+00 zmoment=   0.0000E+00
 nd#     212  xforce=   0.0000E+00   yforce=   0.0000E+00  zforce=  -1.1493E+02   energy=   1.3651E-03   setid =     212 xmoment=   0.0000E+00 ymoment=   0.0000E+00 zmoment=   0.0000E+00
 nd#     220  xforce=   0.0000E+00   yforce=   0.0000E+00  zforce=  -9.8540E+01   energy=   1.0770E-03   setid =     220 xmoment=   0.0000E+00 ymoment=   0.0000E+00 zmoment=   0.0000E+00
 nd#     228  xforce=   0.0000E+00   yforce=   0.0000E+00  zforce=  -6.6736E+01   energy=   1.3182E-03   setid =     228 xmoment=   0.0000E+00 ymoment=   0.0000E+00 zmoment=   0.0000E+00
 nd#     787  xforce=   0.0000E+00   yforce=   0.0000E+00  zforce=  -5.9479E+01   energy=   1.1696E-03   setid =     787 xmoment=   0.0000E+00 ymoment=   0.0000E+00 zmoment=   0.0000E+00
 nd#     788  xforce=   0.0000E+00   yforce=   0.0000E+00  zforce=  -4.9924E+01   energy=   9.8551E-04   setid =     788 xmoment=   0.0000E+00 ymoment=   0.0000E+00 zmoment=   0.0000E+00
 nd#     789  xforce=   0.0000E+00   yforce=   0.0000E+00  zforce=  -3.8525E+01   energy=   7.6843E-04   setid =     789 xmoment=   0.0000E+00 ymoment=   0.0000E+00 zmoment=   0.0000E+00
 nd#     790  xforce=   0.0000E+00   yforce=   0.0000E+00  zforce=  -2.4995E+01   energy=   5.4474E-04   setid =     790 xmoment=   0.0000E+00 ymoment=   0.0000E+00 zmoment=   0.0000E+00
 nd#     791  xforce=   0.0000E+00   yforce=   0.0000E+00  zforce=  -1.5451E+01   energy=   3.5779E-04   setid =     791 xmoment=   0.0000E+00 ymoment=   0.0000E+00 zmoment=   0.0000E+00
 nd#     792  xforce=   0.0000E+00   yforce=   0.0000E+00  zforce=  -5.8458E+00   energy=   1.8928E-04   setid =     792 xmoment=   0.0000E+00 ymoment=   0.0000E+00 zmoment=   0.0000E+00
 nd#     793  xforce=   0.0000E+00   yforce=   0.0000E+00  zforce=   9.6780E+00   energy=  -1.0325E-05   setid =     793 xmoment=   0.0000E+00 ymoment=   0.0000E+00 zmoment=   0.0000E+00
 nd#     794  xforce=   0.0000E+00   yforce=   0.0000E+00  zforce=   3.0937E+00   energy=  -2.5349E-05   setid =     794 xmoment=   0.0000E+00 ymoment=   0.0000E+00 zmoment=   0.0000E+00
 nd#     955  xforce=   0.0000E+00   yforce=   0.0000E+00  zforce=  -1.7842E+01   energy=   7.8169E-04   setid =     955 xmoment=   0.0000E+00 ymoment=   0.0000E+00 zmoment=   0.0000E+00
 nd#     956  xforce=   0.0000E+00   yforce=   0.0000E+00  zforce=  -3.8301E+00   energy=   4.6482E-04   setid =     956 xmoment=   0.0000E+00 ymoment=   0.0000E+00 zmoment=   0.0000E+00
 nd#     957  xforce=   0.0000E+00   yforce=   0.0000E+00  zforce=  -3.4963E+01   energy=   9.0922E-04   setid =     957 xmoment=   0.0000E+00 ymoment=   0.0000E+00 zmoment=   0.0000E+00
 nd#     958  xforce=   0.0000E+00   yforce=   0.0000E+00  zforce=  -2.0160E+01   energy=   6.0896E-04   setid =     958 xmoment=   0.0000E+00 ymoment=   0.0000E+00 zmoment=   0.0000E+00
 nd#     959  xforce=   0.0000E+00   yforce=   0.0000E+00  zforce=  -1.7845E+01   energy=   8.3953E-04   setid =     959 xmoment=   0.0000E+00 ymoment=   0.0000E+00 zmoment=   0.0000E+00
 nd#     960  xforce=   0.0000E+00   yforce=   0.0000E+00  zforce=  -9.4810E+00   energy=   5.6656E-04   setid =     960 xmoment=   0.0000E+00 ymoment=   0.0000E+00 zmoment=   0.0000E+00
 nd#     961  xforce=   0.0000E+00   yforce=   0.0000E+00  zforce=  -2.6724E+01   energy=   4.6450E-04   setid =     961 xmoment=   0.0000E+00 ymoment=   0.0000E+00 zmoment=   0.0000E+00
 nd#     962  xforce=   0.0000E+00   yforce=   0.0000E+00  zforce=  -1.9699E+01   energy=   3.1288E-04   setid =     962 xmoment=   0.0000E+00 ymoment=   0.0000E+00 zmoment=   0.0000E+00
 nd#     975  xforce=   0.0000E+00   yforce=   0.0000E+00  zforce=   2.8124E+01   energy=  -1.4070E-04   setid =     975 xmoment=   0.0000E+00 ymoment=   0.0000E+00 zmoment=   0.0000E+00
 nd#     977  xforce=   0.0000E+00   yforce=   0.0000E+00  zforce=   4.3793E+01   energy=  -3.5371E-04   setid =     977 xmoment=   0.0000E+00 ymoment=   0.0000E+00 zmoment=   0.0000E+00
 nd#     978  xforce=   0.0000E+00   yforce=   0.0000E+00  zforce=   2.0815E+01   energy=  -1.7807E-06   setid =     978 xmoment=   0.0000E+00 ymoment=   0.0000E+00 zmoment=   0.0000E+00
 nd#     980  xforce=   0.0000E+00   yforce=   0.0000E+00  zforce=   2.5752E+01   energy=  -1.8885E-04   setid =     980 xmoment=   0.0000E+00 ymoment=   0.0000E+00 zmoment=   0.0000E+00
 nd#     981  xforce=   0.0000E+00   yforce=   0.0000E+00  zforce=   2.0208E+01   energy=   4.0255E-05   setid =     981 xmoment=   0.0000E+00 ymoment=   0.0000E+00 zmoment=   0.0000E+00
 nd#     983  xforce=   0.0000E+00   yforce=   0.0000E+00  zforce=   2.5097E+01   energy=  -9.5963E-05   setid =     983 xmoment=   0.0000E+00 ymoment=   0.0000E+00 zmoment=   0.0000E+00
 nd#     984  xforce=   0.0000E+00   yforce=   0.0000E+00  zforce=  -2.1516E+00   energy=   4.9233E-05   setid =     984 xmoment=   0.0000E+00 ymoment=   0.0000E+00 zmoment=   0.0000E+00
 nd#     986  xforce=   0.0000E+00   yforce=   0.0000E+00  zforce=   5.3736E+00   energy=  -1.0893E-05   setid =     986 xmoment=   0.0000E+00 ymoment=   0.0000E+00 zmoment=   0.0000E+00
 nd#    1059  xforce=   0.0000E+00   yforce=   0.0000E+00  zforce=  -3.5857E+01   energy=   1.1514E-03   setid =    1059 xmoment=   0.0000E+00 ymoment=   0.0000E+00 zmoment=   0.0000E+00
 nd#    1061  xforce=   0.0000E+00   yforce=   0.0000E+00  zforce=  -5.4467E+01   energy=   1.2714E-03   setid =    1061 xmoment=   0.0000E+00 ymoment=   0.0000E+00 zmoment=   0.0000E+00
 nd#    1063  xforce=   0.0000E+00   yforce=   0.0000E+00  zforce=  -2.7274E+01   energy=   1.1596E-03   setid =    1063 xmoment=   0.0000E+00 ymoment=   0.0000E+00 zmoment=   0.0000E+00
 nd#    1065  xforce=   0.0000E+00   yforce=   0.0000E+00  zforce=  -3.6030E+01   energy=   6.4523E-04   setid =    1065 xmoment=   0.0000E+00 ymoment=   0.0000E+00 zmoment=   0.0000E+00
 nd#    1071  xforce=   0.0000E+00   yforce=   0.0000E+00  zforce=   1.0258E+01   energy=   1.8094E-04   setid =    1071 xmoment=   0.0000E+00 ymoment=   0.0000E+00 zmoment=   0.0000E+00
 nd#    1072  xforce=   0.0000E+00   yforce=   0.0000E+00  zforce=  -5.3739E+00   energy=   3.4287E-04   setid =    1072 xmoment=   0.0000E+00 ymoment=   0.0000E+00 zmoment=   0.0000E+00
 nd#    1073  xforce=   0.0000E+00   yforce=   0.0000E+00  zforce=   1.7901E+00   energy=   3.1628E-04   setid =    1073 xmoment=   0.0000E+00 ymoment=   0.0000E+00 zmoment=   0.0000E+00
 nd#    1074  xforce=   0.0000E+00   yforce=   0.0000E+00  zforce=  -1.2560E+01   energy=   1.8200E-04   setid =    1074 xmoment=   0.0000E+00 ymoment=   0.0000E+00 zmoment=   0.0000E+00
 nd#    1111  xforce=   0.0000E+00   yforce=   0.0000E+00  zforce=  -5.0855E+01   energy=   1.5095E-03   setid =    1111 xmoment=   0.0000E+00 ymoment=   0.0000E+00 zmoment=   0.0000E+00
 nd#    1112  xforce=   0.0000E+00   yforce=   0.0000E+00  zforce=  -7.7407E+01   energy=   1.6562E-03   setid =    1112 xmoment=   0.0000E+00 ymoment=   0.0000E+00 zmoment=   0.0000E+00
 nd#    1113  xforce=   0.0000E+00   yforce=   0.0000E+00  zforce=  -3.7245E+01   energy=   1.5068E-03   setid =    1113 xmoment=   0.0000E+00 ymoment=   0.0000E+00 zmoment=   0.0000E+00
 nd#    1114  xforce=   0.0000E+00   yforce=   0.0000E+00  zforce=  -4.6473E+01   energy=   8.4935E-04   setid =    1114 xmoment=   0.0000E+00 ymoment=   0.0000E+00 zmoment=   0.0000E+00
 nd#    1135  xforce=   0.0000E+00   yforce=   0.0000E+00  zforce=  -6.6460E+01   energy=   1.8136E-03   setid =    1135 xmoment=   0.0000E+00 ymoment=   0.0000E+00 zmoment=   0.0000E+00
 nd#    1136  xforce=   0.0000E+00   yforce=   0.0000E+00  zforce=  -1.0246E+02   energy=   2.0125E-03   setid =    1136 xmoment=   0.0000E+00 ymoment=   0.0000E+00 zmoment=   0.0000E+00
 nd#    1137  xforce=   0.0000E+00   yforce=   0.0000E+00  zforce=  -5.4235E+01   energy=   1.8577E-03   setid =    1137 xmoment=   0.0000E+00 ymoment=   0.0000E+00 zmoment=   0.0000E+00
 nd#    1138  xforce=   0.0000E+00   yforce=   0.0000E+00  zforce=  -6.1202E+01   energy=   1.0700E-03   setid =    1138 xmoment=   0.0000E+00 ymoment=   0.0000E+00 zmoment=   0.0000E+00
              xtotal=   0.0000E+00   ytotal=   0.0000E+00  ztotal=  -2.2067E+03   etotal=   5.5298E-02

 n o d a l   f o r c e/e n e r g y    o u t p u t  t=   4.41335E+00

 velocity boundary condition forces/rigid body moments 

 nd#     105  xforce=   0.0000E+00   yforce=   0.0000E+00  zforce=  -6.7964E+01   energy=   2.6610E-03   setid =     105 xmoment=   0.0000E+00 ymoment=   0.0000E+00 zmoment=   0.0000E+00
 nd#     106  xforce=   0.0000E+00   yforce=   0.0000E+00  zforce=  -1.5765E+02   energy=   3.9390E-03   setid =     106 xmoment=   0.0000E+00 ymoment=   0.0000E+00 zmoment=   0.0000E+00
 nd#     107  xforce=   0.0000E+00   yforce=   0.0000E+00  zforce=  -1.3433E+02   energy=   3.8345E-03   setid =     107 xmoment=   0.0000E+00 ymoment=   0.0000E+00 zmoment=   0.0000E+00
 nd#     108  xforce=   0.0000E+00   yforce=   0.0000E+00  zforce=  -6.9793E+01   energy=   2.8098E-03   setid =     108 xmoment=   0.0000E+00 ymoment=   0.0000E+00 zmoment=   0.0000E+00
 nd#     137  xforce=   0.0000E+00   yforce=   0.0000E+00  zforce=  -5.9235E+01   energy=   2.8135E-03   setid =     137 xmoment=   0.0000E+00 ymoment=   0.0000E+00 zmoment=   0.0000E+00
 nd#     138  xforce=   0.0000E+00   yforce=   0.0000E+00  zforce=  -5.3478E+01   energy=   2.6970E-03   setid =     138 xmoment=   0.0000E+00 ymoment=   0.0000E+00 zmoment=   0.0000E+00
 nd#     139  xforce=   0.0000E+00   yforce=   0.0000E+00  zforce=  -1.4606E+02   energy=   3.1802E-03   setid =     139 xmoment=   0.0000E+00 ymoment=   0.0000E+00 zmoment=   0.0000E+00
 nd#     140  xforce=   0.0000E+00   yforce=   0.0000E+00  zforce=  -9.0706E+01   energy=   2.3909E-03   setid =     140 xmoment=   0.0000E+00 ymoment=   0.0000E+00 zmoment=   0.0000E+00
 nd#     162  xforce=   0.0000E+00   yforce=   0.0000E+00  zforce=  -6.0685E+01   energy=   1.8828E-03   setid =     162 xmoment=   0.0000E+00 ymoment=   0.0000E+00 zmoment=   0.0000E+00
 nd#     163  xforce=   0.0000E+00   yforce=   0.0000E+00  zforce=   7.0513E+00   energy=   1.2059E-03   setid =     163 xmoment=   0.0000E+00 ymoment=   0.0000E+00 zmoment=   0.0000E+00
 nd#     164  xforce=   0.0000E+00   yforce=   0.0000E+00  zforce=  -8.6909E+01   energy=   2.3624E-03   setid =     164 xmoment=   0.0000E+00 ymoment=   0.0000E+00 zmoment=   0.0000E+00
 nd#     179  xforce=   0.0000E+00   yforce=   0.0000E+00  zforce=   6.1388E+01   energy=   7.4351E-04   setid =     179 xmoment=   0.0000E+00 ymoment=   0.0000E+00 zmoment=   0.0000E+00
 nd#     180  xforce=   0.0000E+00   yforce=   0.0000E+00  zforce=  -6.0626E+01   energy=   2.1212E-03   setid =     180 xmoment=   0.0000E+00 ymoment=   0.0000E+00 zmoment=   0.0000E+00
 nd#     188  xforce=   0.0000E+00   yforce=   0.0000E+00  zforce=  -6.0383E+01   energy=   1.8457E-03   setid =     188 xmoment=   0.0000E+00 ymoment=   0.0000E+00 zmoment=   0.0000E+00
 nd#     210  xforce=   0.0000E+00   yforce=   0.0000E+00  zforce=  -1.3143E+02   energy=   3.1017E-03   setid =     210 xmoment=   0.0000E+00 ymoment=   0.0000E+00 zmoment=   0.0000E+00
 nd#     211  xforce=   0.0000E+00   yforce=   0.0000E+00  zforce=   9.0811E+01   energy=   4.3715E-04   setid =     211 xmoment=   0.0000E+00 ymoment=   0.0000E+00 zmoment=   0.0000E+00
 nd#     212  xforce=   0.0000E+00   yforce=   0.0000E+00  zforce=  -1.5461E+02   energy=   3.2375E-03   setid =     212 xmoment=   0.0000E+00 ymoment=   0.0000E+00 zmoment=   0.0000E+00
 nd#     220  xforce=   0.0000E+00   yforce=   0.0000E+00  zforce=  -1.2797E+02   energy=   2.5608E-03   setid =     220 xmoment=   0.0000E+00 ymoment=   0.0000E+00 zmoment=   0.0000E+00
 nd#     228  xforce=   0.0000E+00   yforce=   0.0000E+00  zforce=  -7.1176E+01   energy=   2.1508E-03   setid =     228 xmoment=   0.0000E+00 ymoment=   0.0000E+00 zmoment=   0.0000E+00
 nd#     787  xforce=   0.0000E+00   yforce=   0.0000E+00  zforce=  -6.4838E+01   energy=   1.9198E-03   setid =     787 xmoment=   0.0000E+00 ymoment=   0.0000E+00 zmoment=   0.0000E+00
 nd#     788  xforce=   0.0000E+00   yforce=   0.0000E+00  zforce=  -5.7267E+01   energy=   1.6370E-03   setid =     788 xmoment=   0.0000E+00 ymoment=   0.0000E+00 zmoment=   0.0000E+00
 nd#     789  xforce=   0.0000E+00   yforce=   0.0000E+00  zforce=  -4.7278E+01   energy=   1.3008E-03   setid =     789 xmoment=   0.0000E+00 ymoment=   0.0000E+00 zmoment=   0.0000E+00
 nd#     790  xforce=   0.0000E+00   yforce=   0.0000E+00  zforce=  -3.5752E+01   energy=   9.3478E-04   setid =     790 xmoment=   0.0000E+00 ymoment=   0.0000E+00 zmoment=   0.0000E+00
 nd#     791  xforce=   0.0000E+00   yforce=   0.0000E+00  zforce=  -2.6985E+01   energy=   6.4439E-04   setid =     791 xmoment=   0.0000E+00 ymoment=   0.0000E+00 zmoment=   0.0000E+00
 nd#     792  xforce=   0.0000E+00   yforce=   0.0000E+00  zforce=  -1.9650E+01   energy=   3.8438E-04   setid =     792 xmoment=   0.0000E+00 ymoment=   0.0000E+00 zmoment=   0.0000E+00
 nd#     793  xforce=   0.0000E+00   yforce=   0.0000E+00  zforce=  -6.5310E+00   energy=   2.3044E-05   setid =     793 xmoment=   0.0000E+00 ymoment=   0.0000E+00 zmoment=   0.0000E+00
 nd#     794  xforce=   0.0000E+00   yforce=   0.0000E+00  zforce=  -6.0961E+00   energy=   2.7949E-05   setid =     794 xmoment=   0.0000E+00 ymoment=   0.0000E+00 zmoment=   0.0000E+00
 nd#     955  xforce=   0.0000E+00   yforce=   0.0000E+00  zforce=  -2.8493E+01   energy=   1.0938E-03   setid =     955 xmoment=   0.0000E+00 ymoment=   0.0000E+00 zmoment=   0.0000E+00
 nd#     956  xforce=   0.0000E+00   yforce=   0.0000E+00  zforce=  -2.0245E+01   energy=   6.6248E-04   setid =     956 xmoment=   0.0000E+00 ymoment=   0.0000E+00 zmoment=   0.0000E+00
 nd#     957  xforce=   0.0000E+00   yforce=   0.0000E+00  zforce=  -5.1069E+01   energy=   1.4810E-03   setid =     957 xmoment=   0.0000E+00 ymoment=   0.0000E+00 zmoment=   0.0000E+00
 nd#     958  xforce=   0.0000E+00   yforce=   0.0000E+00  zforce=  -4.0919E+01   energy=   1.0412E-03   setid =     958 xmoment=   0.0000E+00 ymoment=   0.0000E+00 zmoment=   0.0000E+00
 nd#     959  xforce=   0.0000E+00   yforce=   0.0000E+00  zforce=  -2.6293E+01   energy=   1.1156E-03   setid =     959 xmoment=   0.0000E+00 ymoment=   0.0000E+00 zmoment=   0.0000E+00
 nd#     960  xforce=   0.0000E+00   yforce=   0.0000E+00  zforce=  -2.4736E+01   energy=   8.0739E-04   setid =     960 xmoment=   0.0000E+00 ymoment=   0.0000E+00 zmoment=   0.0000E+00
 nd#     961  xforce=   0.0000E+00   yforce=   0.0000E+00  zforce=  -3.4654E+01   energy=   8.7278E-04   setid =     961 xmoment=   0.0000E+00 ymoment=   0.0000E+00 zmoment=   0.0000E+00
 nd#     962  xforce=   0.0000E+00   yforce=   0.0000E+00  zforce=  -3.0074E+01   energy=   6.5839E-04   setid =     962 xmoment=   0.0000E+00 ymoment=   0.0000E+00 zmoment=   0.0000E+00
 nd#     975  xforce=   0.0000E+00   yforce=   0.0000E+00  zforce=  -1.2617E+00   energy=  -2.0009E-04   setid =     975 xmoment=   0.0000E+00 ymoment=   0.0000E+00 zmoment=   0.0000E+00
 nd#     977  xforce=   0.0000E+00   yforce=   0.0000E+00  zforce=   3.2666E+01   energy=  -7.5705E-04   setid =     977 xmoment=   0.0000E+00 ymoment=   0.0000E+00 zmoment=   0.0000E+00
 nd#     978  xforce=   0.0000E+00   yforce=   0.0000E+00  zforce=  -1.1180E+01   energy=   3.8851E-05   setid =     978 xmoment=   0.0000E+00 ymoment=   0.0000E+00 zmoment=   0.0000E+00
 nd#     980  xforce=   0.0000E+00   yforce=   0.0000E+00  zforce=   9.6097E+00   energy=  -3.4491E-04   setid =     980 xmoment=   0.0000E+00 ymoment=   0.0000E+00 zmoment=   0.0000E+00
 nd#     981  xforce=   0.0000E+00   yforce=   0.0000E+00  zforce=  -8.8902E+00   energy=   5.2483E-05   setid =     981 xmoment=   0.0000E+00 ymoment=   0.0000E+00 zmoment=   0.0000E+00
 nd#     983  xforce=   0.0000E+00   yforce=   0.0000E+00  zforce=   9.9655E+00   energy=  -2.6749E-04   setid =     983 xmoment=   0.0000E+00 ymoment=   0.0000E+00 zmoment=   0.0000E+00
 nd#     984  xforce=   0.0000E+00   yforce=   0.0000E+00  zforce=  -1.8495E+01   energy=   2.3454E-04   setid =     984 xmoment=   0.0000E+00 ymoment=   0.0000E+00 zmoment=   0.0000E+00
 nd#     986  xforce=   0.0000E+00   yforce=   0.0000E+00  zforce=  -3.2514E+00   energy=   4.8126E-06   setid =     986 xmoment=   0.0000E+00 ymoment=   0.0000E+00 zmoment=   0.0000E+00
 nd#    1059  xforce=   0.0000E+00   yforce=   0.0000E+00  zforce=  -3.9595E+01   energy=   1.6227E-03   setid =    1059 xmoment=   0.0000E+00 ymoment=   0.0000E+00 zmoment=   0.0000E+00
 nd#    1061  xforce=   0.0000E+00   yforce=   0.0000E+00  zforce=  -6.7049E+01   energy=   2.0463E-03   setid =    1061 xmoment=   0.0000E+00 ymoment=   0.0000E+00 zmoment=   0.0000E+00
 nd#    1063  xforce=   0.0000E+00   yforce=   0.0000E+00  zforce=  -2.9388E+01   energy=   1.4797E-03   setid =    1063 xmoment=   0.0000E+00 ymoment=   0.0000E+00 zmoment=   0.0000E+00
 nd#    1065  xforce=   0.0000E+00   yforce=   0.0000E+00  zforce=  -4.1469E+01   energy=   1.1409E-03   setid =    1065 xmoment=   0.0000E+00 ymoment=   0.0000E+00 zmoment=   0.0000E+00
 nd#    1071  xforce=   0.0000E+00   yforce=   0.0000E+00  zforce=  -1.2625E+01   energy=   2.7138E-04   setid =    1071 xmoment=   0.0000E+00 ymoment=   0.0000E+00 zmoment=   0.0000E+00
 nd#    1072  xforce=   0.0000E+00   yforce=   0.0000E+00  zforce=  -3.2039E+01   energy=   6.4856E-04   setid =    1072 xmoment=   0.0000E+00 ymoment=   0.0000E+00 zmoment=   0.0000E+00
 nd#    1073  xforce=   0.0000E+00   yforce=   0.0000E+00  zforce=  -2.0184E+01   energy=   4.8455E-04   setid =    1073 xmoment=   0.0000E+00 ymoment=   0.0000E+00 zmoment=   0.0000E+00
 nd#    1074  xforce=   0.0000E+00   yforce=   0.0000E+00  zforce=  -2.5745E+01   energy=   4.6623E-04   setid =    1074 xmoment=   0.0000E+00 ymoment=   0.0000E+00 zmoment=   0.0000E+00
 nd#    1111  xforce=   0.0000E+00   yforce=   0.0000E+00  zforce=  -5.2522E+01   energy=   2.1371E-03   setid =    1111 xmoment=   0.0000E+00 ymoment=   0.0000E+00 zmoment=   0.0000E+00
 nd#    1112  xforce=   0.0000E+00   yforce=   0.0000E+00  zforce=  -8.8930E+01   energy=   2.6983E-03   setid =    1112 xmoment=   0.0000E+00 ymoment=   0.0000E+00 zmoment=   0.0000E+00
 nd#    1113  xforce=   0.0000E+00   yforce=   0.0000E+00  zforce=  -3.8367E+01   energy=   1.9243E-03   setid =    1113 xmoment=   0.0000E+00 ymoment=   0.0000E+00 zmoment=   0.0000E+00
 nd#    1114  xforce=   0.0000E+00   yforce=   0.0000E+00  zforce=  -5.2188E+01   energy=   1.4712E-03   setid =    1114 xmoment=   0.0000E+00 ymoment=   0.0000E+00 zmoment=   0.0000E+00
 nd#    1135  xforce=   0.0000E+00   yforce=   0.0000E+00  zforce=  -6.5127E+01   energy=   2.6038E-03   setid =    1135 xmoment=   0.0000E+00 ymoment=   0.0000E+00 zmoment=   0.0000E+00
 nd#    1136  xforce=   0.0000E+00   yforce=   0.0000E+00  zforce=  -1.1265E+02   energy=   3.3649E-03   setid =    1136 xmoment=   0.0000E+00 ymoment=   0.0000E+00 zmoment=   0.0000E+00
 nd#    1137  xforce=   0.0000E+00   yforce=   0.0000E+00  zforce=  -4.7521E+01   energy=   2.4018E-03   setid =    1137 xmoment=   0.0000E+00 ymoment=   0.0000E+00 zmoment=   0.0000E+00
 nd#    1138  xforce=   0.0000E+00   yforce=   0.0000E+00  zforce=  -6.5746E+01   energy=   1.8579E-03   setid =    1138 xmoment=   0.0000E+00 ymoment=   0.0000E+00 zmoment=   0.0000E+00
              xtotal=   0.0000E+00   ytotal=   0.0000E+00  ztotal=  -2.6766E+03   etotal=   8.5961E-02

 n o d a l   f o r c e/e n e r g y    o u t p u t  t=   5.26901E+00

 velocity boundary condition forces/rigid body moments 

 nd#     105  xforce=   0.0000E+00   yforce=   0.0000E+00  zforce=  -7.1567E+01   energy=   3.2580E-03   setid =     105 xmoment=   0.0000E+00 ymoment=   0.0000E+00 zmoment=   0.0000E+00
 nd#     106  xforce=   0.0000E+00   yforce=   0.0000E+00  zforce=  -1.5668E+02   energy=   5.2838E-03   setid =     106 xmoment=   0.0000E+00 ymoment=   0.0000E+00 zmoment=   0.0000E+00
 nd#     107  xforce=   0.0000E+00   yforce=   0.0000E+00  zforce=  -1.3849E+02   energy=   5.0017E-03   setid =     107 xmoment=   0.0000E+00 ymoment=   0.0000E+00 zmoment=   0.0000E+00
 nd#     108  xforce=   0.0000E+00   yforce=   0.0000E+00  zforce=  -6.9474E+01   energy=   3.4056E-03   setid =     108 xmoment=   0.0000E+00 ymoment=   0.0000E+00 zmoment=   0.0000E+00
 nd#     137  xforce=   0.0000E+00   yforce=   0.0000E+00  zforce=  -6.3178E+01   energy=   3.3373E-03   setid =     137 xmoment=   0.0000E+00 ymoment=   0.0000E+00 zmoment=   0.0000E+00
 nd#     138  xforce=   0.0000E+00   yforce=   0.0000E+00  zforce=  -5.4264E+01   energy=   3.1579E-03   setid =     138 xmoment=   0.0000E+00 ymoment=   0.0000E+00 zmoment=   0.0000E+00
 nd#     139  xforce=   0.0000E+00   yforce=   0.0000E+00  zforce=  -1.4969E+02   energy=   4.4455E-03   setid =     139 xmoment=   0.0000E+00 ymoment=   0.0000E+00 zmoment=   0.0000E+00
 nd#     140  xforce=   0.0000E+00   yforce=   0.0000E+00  zforce=  -9.4571E+01   energy=   3.1836E-03   setid =     140 xmoment=   0.0000E+00 ymoment=   0.0000E+00 zmoment=   0.0000E+00
 nd#     162  xforce=   0.0000E+00   yforce=   0.0000E+00  zforce=  -5.8656E+01   energy=   2.3934E-03   setid =     162 xmoment=   0.0000E+00 ymoment=   0.0000E+00 zmoment=   0.0000E+00
 nd#     163  xforce=   0.0000E+00   yforce=   0.0000E+00  zforce=   2.0458E+01   energy=   1.0882E-03   setid =     163 xmoment=   0.0000E+00 ymoment=   0.0000E+00 zmoment=   0.0000E+00
 nd#     164  xforce=   0.0000E+00   yforce=   0.0000E+00  zforce=  -9.3295E+01   energy=   3.1334E-03   setid =     164 xmoment=   0.0000E+00 ymoment=   0.0000E+00 zmoment=   0.0000E+00
 nd#     179  xforce=   0.0000E+00   yforce=   0.0000E+00  zforce=   6.6149E+01   energy=   1.9786E-04   setid =     179 xmoment=   0.0000E+00 ymoment=   0.0000E+00 zmoment=   0.0000E+00
 nd#     180  xforce=   0.0000E+00   yforce=   0.0000E+00  zforce=  -6.3701E+01   energy=   2.6531E-03   setid =     180 xmoment=   0.0000E+00 ymoment=   0.0000E+00 zmoment=   0.0000E+00
 nd#     188  xforce=   0.0000E+00   yforce=   0.0000E+00  zforce=  -5.6312E+01   energy=   2.3450E-03   setid =     188 xmoment=   0.0000E+00 ymoment=   0.0000E+00 zmoment=   0.0000E+00
 nd#     210  xforce=   0.0000E+00   yforce=   0.0000E+00  zforce=  -1.4023E+02   energy=   4.2640E-03   setid =     210 xmoment=   0.0000E+00 ymoment=   0.0000E+00 zmoment=   0.0000E+00
 nd#     211  xforce=   0.0000E+00   yforce=   0.0000E+00  zforce=   8.7709E+01   energy=  -3.2661E-04   setid =     211 xmoment=   0.0000E+00 ymoment=   0.0000E+00 zmoment=   0.0000E+00
 nd#     212  xforce=   0.0000E+00   yforce=   0.0000E+00  zforce=  -1.6385E+02   energy=   4.6000E-03   setid =     212 xmoment=   0.0000E+00 ymoment=   0.0000E+00 zmoment=   0.0000E+00
 nd#     220  xforce=   0.0000E+00   yforce=   0.0000E+00  zforce=  -1.3491E+02   energy=   3.6855E-03   setid =     220 xmoment=   0.0000E+00 ymoment=   0.0000E+00 zmoment=   0.0000E+00
 nd#     228  xforce=   0.0000E+00   yforce=   0.0000E+00  zforce=  -7.4411E+01   energy=   2.7736E-03   setid =     228 xmoment=   0.0000E+00 ymoment=   0.0000E+00 zmoment=   0.0000E+00
 nd#     787  xforce=   0.0000E+00   yforce=   0.0000E+00  zforce=  -6.8636E+01   energy=   2.4909E-03   setid =     787 xmoment=   0.0000E+00 ymoment=   0.0000E+00 zmoment=   0.0000E+00
 nd#     788  xforce=   0.0000E+00   yforce=   0.0000E+00  zforce=  -6.0944E+01   energy=   2.1427E-03   setid =     788 xmoment=   0.0000E+00 ymoment=   0.0000E+00 zmoment=   0.0000E+00
 nd#     789  xforce=   0.0000E+00   yforce=   0.0000E+00  zforce=  -5.1165E+01   energy=   1.7220E-03   setid =     789 xmoment=   0.0000E+00 ymoment=   0.0000E+00 zmoment=   0.0000E+00
 nd#     790  xforce=   0.0000E+00   yforce=   0.0000E+00  zforce=  -3.9118E+01   energy=   1.2551E-03   setid =     790 xmoment=   0.0000E+00 ymoment=   0.0000E+00 zmoment=   0.0000E+00
 nd#     791  xforce=   0.0000E+00   yforce=   0.0000E+00  zforce=  -2.9662E+01   energy=   8.8674E-04   setid =     791 xmoment=   0.0000E+00 ymoment=   0.0000E+00 zmoment=   0.0000E+00
 nd#     792  xforce=   0.0000E+00   yforce=   0.0000E+00  zforce=  -2.1917E+01   energy=   5.6222E-04   setid =     792 xmoment=   0.0000E+00 ymoment=   0.0000E+00 zmoment=   0.0000E+00
 nd#     793  xforce=   0.0000E+00   yforce=   0.0000E+00  zforce=  -8.4236E+00   energy=   8.7024E-05   setid =     793 xmoment=   0.0000E+00 ymoment=   0.0000E+00 zmoment=   0.0000E+00
 nd#     794  xforce=   0.0000E+00   yforce=   0.0000E+00  zforce=  -6.6618E+00   energy=   8.2531E-05   setid =     794 xmoment=   0.0000E+00 ymoment=   0.0000E+00 zmoment=   0.0000E+00
 nd#     955  xforce=   0.0000E+00   yforce=   0.0000E+00  zforce=  -3.1449E+01   energy=   1.3502E-03   setid =     955 xmoment=   0.0000E+00 ymoment=   0.0000E+00 zmoment=   0.0000E+00
 nd#     956  xforce=   0.0000E+00   yforce=   0.0000E+00  zforce=  -2.2520E+01   energy=   8.4544E-04   setid =     956 xmoment=   0.0000E+00 ymoment=   0.0000E+00 zmoment=   0.0000E+00
 nd#     957  xforce=   0.0000E+00   yforce=   0.0000E+00  zforce=  -5.5485E+01   energy=   1.9369E-03   setid =     957 xmoment=   0.0000E+00 ymoment=   0.0000E+00 zmoment=   0.0000E+00
 nd#     958  xforce=   0.0000E+00   yforce=   0.0000E+00  zforce=  -4.4098E+01   energy=   1.4049E-03   setid =     958 xmoment=   0.0000E+00 ymoment=   0.0000E+00 zmoment=   0.0000E+00
 nd#     959  xforce=   0.0000E+00   yforce=   0.0000E+00  zforce=  -2.8877E+01   energy=   1.3517E-03   setid =     959 xmoment=   0.0000E+00 ymoment=   0.0000E+00 zmoment=   0.0000E+00
 nd#     960  xforce=   0.0000E+00   yforce=   0.0000E+00  zforce=  -2.6799E+01   energy=   1.0279E-03   setid =     960 xmoment=   0.0000E+00 ymoment=   0.0000E+00 zmoment=   0.0000E+00
 nd#     961  xforce=   0.0000E+00   yforce=   0.0000E+00  zforce=  -3.7016E+01   energy=   1.1794E-03   setid =     961 xmoment=   0.0000E+00 ymoment=   0.0000E+00 zmoment=   0.0000E+00
 nd#     962  xforce=   0.0000E+00   yforce=   0.0000E+00  zforce=  -3.2040E+01   energy=   9.2413E-04   setid =     962 xmoment=   0.0000E+00 ymoment=   0.0000E+00 zmoment=   0.0000E+00
 nd#     975  xforce=   0.0000E+00   yforce=   0.0000E+00  zforce=  -4.0019E+00   energy=  -1.7757E-04   setid =     975 xmoment=   0.0000E+00 ymoment=   0.0000E+00 zmoment=   0.0000E+00
 nd#     977  xforce=   0.0000E+00   yforce=   0.0000E+00  zforce=   3.4595E+01   energy=  -1.0448E-03   setid =     977 xmoment=   0.0000E+00 ymoment=   0.0000E+00 zmoment=   0.0000E+00
 nd#     978  xforce=   0.0000E+00   yforce=   0.0000E+00  zforce=  -1.4233E+01   energy=   1.4758E-04   setid =     978 xmoment=   0.0000E+00 ymoment=   0.0000E+00 zmoment=   0.0000E+00
 nd#     980  xforce=   0.0000E+00   yforce=   0.0000E+00  zforce=   9.8645E+00   energy=  -4.2822E-04   setid =     980 xmoment=   0.0000E+00 ymoment=   0.0000E+00 zmoment=   0.0000E+00
 nd#     981  xforce=   0.0000E+00   yforce=   0.0000E+00  zforce=  -1.2489E+01   energy=   1.4395E-04   setid =     981 xmoment=   0.0000E+00 ymoment=   0.0000E+00 zmoment=   0.0000E+00
 nd#     983  xforce=   0.0000E+00   yforce=   0.0000E+00  zforce=   9.4445E+00   energy=  -3.5054E-04   setid =     983 xmoment=   0.0000E+00 ymoment=   0.0000E+00 zmoment=   0.0000E+00
 nd#     984  xforce=   0.0000E+00   yforce=   0.0000E+00  zforce=  -2.1171E+01   energy=   4.0424E-04   setid =     984 xmoment=   0.0000E+00 ymoment=   0.0000E+00 zmoment=   0.0000E+00
 nd#     986  xforce=   0.0000E+00   yforce=   0.0000E+00  zforce=  -4.1636E+00   energy=   3.6536E-05   setid =     986 xmoment=   0.0000E+00 ymoment=   0.0000E+00 zmoment=   0.0000E+00
 nd#    1059  xforce=   0.0000E+00   yforce=   0.0000E+00  zforce=  -4.1223E+01   energy=   1.9685E-03   setid =    1059 xmoment=   0.0000E+00 ymoment=   0.0000E+00 zmoment=   0.0000E+00
 nd#    1061  xforce=   0.0000E+00   yforce=   0.0000E+00  zforce=  -7.0600E+01   energy=   2.6352E-03   setid =    1061 xmoment=   0.0000E+00 ymoment=   0.0000E+00 zmoment=   0.0000E+00
 nd#    1063  xforce=   0.0000E+00   yforce=   0.0000E+00  zforce=  -3.0344E+01   energy=   1.7353E-03   setid =    1063 xmoment=   0.0000E+00 ymoment=   0.0000E+00 zmoment=   0.0000E+00
 nd#    1065  xforce=   0.0000E+00   yforce=   0.0000E+00  zforce=  -4.3237E+01   energy=   1.5033E-03   setid =    1065 xmoment=   0.0000E+00 ymoment=   0.0000E+00 zmoment=   0.0000E+00
 nd#    1071  xforce=   0.0000E+00   yforce=   0.0000E+00  zforce=  -1.5330E+01   energy=   3.9098E-04   setid =    1071 xmoment=   0.0000E+00 ymoment=   0.0000E+00 zmoment=   0.0000E+00
 nd#    1072  xforce=   0.0000E+00   yforce=   0.0000E+00  zforce=  -3.5858E+01   energy=   9.3904E-04   setid =    1072 xmoment=   0.0000E+00 ymoment=   0.0000E+00 zmoment=   0.0000E+00
 nd#    1073  xforce=   0.0000E+00   yforce=   0.0000E+00  zforce=  -2.3744E+01   energy=   6.7249E-04   setid =    1073 xmoment=   0.0000E+00 ymoment=   0.0000E+00 zmoment=   0.0000E+00
 nd#    1074  xforce=   0.0000E+00   yforce=   0.0000E+00  zforce=  -2.8501E+01   energy=   6.9831E-04   setid =    1074 xmoment=   0.0000E+00 ymoment=   0.0000E+00 zmoment=   0.0000E+00
 nd#    1111  xforce=   0.0000E+00   yforce=   0.0000E+00  zforce=  -5.4656E+01   energy=   2.5957E-03   setid =    1111 xmoment=   0.0000E+00 ymoment=   0.0000E+00 zmoment=   0.0000E+00
 nd#    1112  xforce=   0.0000E+00   yforce=   0.0000E+00  zforce=  -9.1710E+01   energy=   3.4712E-03   setid =    1112 xmoment=   0.0000E+00 ymoment=   0.0000E+00 zmoment=   0.0000E+00
 nd#    1113  xforce=   0.0000E+00   yforce=   0.0000E+00  zforce=  -4.1353E+01   energy=   2.2653E-03   setid =    1113 xmoment=   0.0000E+00 ymoment=   0.0000E+00 zmoment=   0.0000E+00
 nd#    1114  xforce=   0.0000E+00   yforce=   0.0000E+00  zforce=  -5.4626E+01   energy=   1.9281E-03   setid =    1114 xmoment=   0.0000E+00 ymoment=   0.0000E+00 zmoment=   0.0000E+00
 nd#    1135  xforce=   0.0000E+00   yforce=   0.0000E+00  zforce=  -6.5215E+01   energy=   3.1614E-03   setid =    1135 xmoment=   0.0000E+00 ymoment=   0.0000E+00 zmoment=   0.0000E+00
 nd#    1136  xforce=   0.0000E+00   yforce=   0.0000E+00  zforce=  -1.1497E+02   energy=   4.3387E-03   setid =    1136 xmoment=   0.0000E+00 ymoment=   0.0000E+00 zmoment=   0.0000E+00
 nd#    1137  xforce=   0.0000E+00   yforce=   0.0000E+00  zforce=  -5.0705E+01   energy=   2.8220E-03   setid =    1137 xmoment=   0.0000E+00 ymoment=   0.0000E+00 zmoment=   0.0000E+00
 nd#    1138  xforce=   0.0000E+00   yforce=   0.0000E+00  zforce=  -6.8521E+01   energy=   2.4323E-03   setid =    1138 xmoment=   0.0000E+00 ymoment=   0.0000E+00 zmoment=   0.0000E+00
              xtotal=   0.0000E+00   ytotal=   0.0000E+00  ztotal=  -2.8065E+03   etotal=   1.0942E-01

 n o d a l   f o r c e/e n e r g y    o u t p u t  t=   6.62515E+00

 velocity boundary condition forces/rigid body moments 

 nd#     105  xforce=   0.0000E+00   yforce=   0.0000E+00  zforce=  -7.4521E+01   energy=   4.2485E-03   setid =     105 xmoment=   0.0000E+00 ymoment=   0.0000E+00 zmoment=   0.0000E+00
 nd#     106  xforce=   0.0000E+00   yforce=   0.0000E+00  zforce=  -1.6546E+02   energy=   7.4681E-03   setid =     106 xmoment=   0.0000E+00 ymoment=   0.0000E+00 zmoment=   0.0000E+00
 nd#     107  xforce=   0.0000E+00   yforce=   0.0000E+00  zforce=  -1.5152E+02   energy=   6.9682E-03   setid =     107 xmoment=   0.0000E+00 ymoment=   0.0000E+00 zmoment=   0.0000E+00
 nd#     108  xforce=   0.0000E+00   yforce=   0.0000E+00  zforce=  -7.2068E+01   energy=   4.3654E-03   setid =     108 xmoment=   0.0000E+00 ymoment=   0.0000E+00 zmoment=   0.0000E+00
 nd#     137  xforce=   0.0000E+00   yforce=   0.0000E+00  zforce=  -6.2945E+01   energy=   4.1925E-03   setid =     137 xmoment=   0.0000E+00 ymoment=   0.0000E+00 zmoment=   0.0000E+00
 nd#     138  xforce=   0.0000E+00   yforce=   0.0000E+00  zforce=  -4.9260E+01   energy=   3.8599E-03   setid =     138 xmoment=   0.0000E+00 ymoment=   0.0000E+00 zmoment=   0.0000E+00
 nd#     139  xforce=   0.0000E+00   yforce=   0.0000E+00  zforce=  -1.6315E+02   energy=   6.5668E-03   setid =     139 xmoment=   0.0000E+00 ymoment=   0.0000E+00 zmoment=   0.0000E+00
 nd#     140  xforce=   0.0000E+00   yforce=   0.0000E+00  zforce=  -1.0204E+02   energy=   4.5167E-03   setid =     140 xmoment=   0.0000E+00 ymoment=   0.0000E+00 zmoment=   0.0000E+00
 nd#     162  xforce=   0.0000E+00   yforce=   0.0000E+00  zforce=  -6.0808E+01   energy=   3.2034E-03   setid =     162 xmoment=   0.0000E+00 ymoment=   0.0000E+00 zmoment=   0.0000E+00
 nd#     163  xforce=   0.0000E+00   yforce=   0.0000E+00  zforce=   3.6108E+01   energy=   7.0466E-04   setid =     163 xmoment=   0.0000E+00 ymoment=   0.0000E+00 zmoment=   0.0000E+00
 nd#     164  xforce=   0.0000E+00   yforce=   0.0000E+00  zforce=  -1.0310E+02   energy=   4.4651E-03   setid =     164 xmoment=   0.0000E+00 ymoment=   0.0000E+00 zmoment=   0.0000E+00
 nd#     179  xforce=   0.0000E+00   yforce=   0.0000E+00  zforce=   8.5531E+01   energy=  -8.3063E-04   setid =     179 xmoment=   0.0000E+00 ymoment=   0.0000E+00 zmoment=   0.0000E+00
 nd#     180  xforce=   0.0000E+00   yforce=   0.0000E+00  zforce=  -6.5508E+01   energy=   3.5292E-03   setid =     180 xmoment=   0.0000E+00 ymoment=   0.0000E+00 zmoment=   0.0000E+00
 nd#     188  xforce=   0.0000E+00   yforce=   0.0000E+00  zforce=  -5.5697E+01   energy=   3.1045E-03   setid =     188 xmoment=   0.0000E+00 ymoment=   0.0000E+00 zmoment=   0.0000E+00
 nd#     210  xforce=   0.0000E+00   yforce=   0.0000E+00  zforce=  -1.5425E+02   energy=   6.2608E-03   setid =     210 xmoment=   0.0000E+00 ymoment=   0.0000E+00 zmoment=   0.0000E+00
 nd#     211  xforce=   0.0000E+00   yforce=   0.0000E+00  zforce=   9.5838E+01   energy=  -1.5712E-03   setid =     211 xmoment=   0.0000E+00 ymoment=   0.0000E+00 zmoment=   0.0000E+00
 nd#     212  xforce=   0.0000E+00   yforce=   0.0000E+00  zforce=  -1.7205E+02   energy=   6.8776E-03   setid =     212 xmoment=   0.0000E+00 ymoment=   0.0000E+00 zmoment=   0.0000E+00
 nd#     220  xforce=   0.0000E+00   yforce=   0.0000E+00  zforce=  -1.4547E+02   energy=   5.5866E-03   setid =     220 xmoment=   0.0000E+00 ymoment=   0.0000E+00 zmoment=   0.0000E+00
 nd#     228  xforce=   0.0000E+00   yforce=   0.0000E+00  zforce=  -7.9673E+01   energy=   3.8184E-03   setid =     228 xmoment=   0.0000E+00 ymoment=   0.0000E+00 zmoment=   0.0000E+00
 nd#     787  xforce=   0.0000E+00   yforce=   0.0000E+00  zforce=  -7.3638E+01   energy=   3.4556E-03   setid =     787 xmoment=   0.0000E+00 ymoment=   0.0000E+00 zmoment=   0.0000E+00
 nd#     788  xforce=   0.0000E+00   yforce=   0.0000E+00  zforce=  -6.5572E+01   energy=   3.0006E-03   setid =     788 xmoment=   0.0000E+00 ymoment=   0.0000E+00 zmoment=   0.0000E+00
 nd#     789  xforce=   0.0000E+00   yforce=   0.0000E+00  zforce=  -5.6232E+01   energy=   2.4502E-03   setid =     789 xmoment=   0.0000E+00 ymoment=   0.0000E+00 zmoment=   0.0000E+00
 nd#     790  xforce=   0.0000E+00   yforce=   0.0000E+00  zforce=  -4.4455E+01   energy=   1.8218E-03   setid =     790 xmoment=   0.0000E+00 ymoment=   0.0000E+00 zmoment=   0.0000E+00
 nd#     791  xforce=   0.0000E+00   yforce=   0.0000E+00  zforce=  -3.3779E+01   energy=   1.3169E-03   setid =     791 xmoment=   0.0000E+00 ymoment=   0.0000E+00 zmoment=   0.0000E+00
 nd#     792  xforce=   0.0000E+00   yforce=   0.0000E+00  zforce=  -2.5064E+01   energy=   8.8077E-04   setid =     792 xmoment=   0.0000E+00 ymoment=   0.0000E+00 zmoment=   0.0000E+00
 nd#     793  xforce=   0.0000E+00   yforce=   0.0000E+00  zforce=  -1.0999E+01   energy=   2.1872E-04   setid =     793 xmoment=   0.0000E+00 ymoment=   0.0000E+00 zmoment=   0.0000E+00
 nd#     794  xforce=   0.0000E+00   yforce=   0.0000E+00  zforce=  -7.6763E+00   energy=   1.7975E-04   setid =     794 xmoment=   0.0000E+00 ymoment=   0.0000E+00 zmoment=   0.0000E+00
 nd#     955  xforce=   0.0000E+00   yforce=   0.0000E+00  zforce=  -3.5970E+01   energy=   1.8074E-03   setid =     955 xmoment=   0.0000E+00 ymoment=   0.0000E+00 zmoment=   0.0000E+00
 nd#     956  xforce=   0.0000E+00   yforce=   0.0000E+00  zforce=  -2.6898E+01   energy=   1.1805E-03   setid =     956 xmoment=   0.0000E+00 ymoment=   0.0000E+00 zmoment=   0.0000E+00
 nd#     957  xforce=   0.0000E+00   yforce=   0.0000E+00  zforce=  -6.3298E+01   energy=   2.7423E-03   setid =     957 xmoment=   0.0000E+00 ymoment=   0.0000E+00 zmoment=   0.0000E+00
 nd#     958  xforce=   0.0000E+00   yforce=   0.0000E+00  zforce=  -5.0849E+01   energy=   2.0487E-03   setid =     958 xmoment=   0.0000E+00 ymoment=   0.0000E+00 zmoment=   0.0000E+00
 nd#     959  xforce=   0.0000E+00   yforce=   0.0000E+00  zforce=  -3.2164E+01   energy=   1.7656E-03   setid =     959 xmoment=   0.0000E+00 ymoment=   0.0000E+00 zmoment=   0.0000E+00
 nd#     960  xforce=   0.0000E+00   yforce=   0.0000E+00  zforce=  -3.0668E+01   energy=   1.4175E-03   setid =     960 xmoment=   0.0000E+00 ymoment=   0.0000E+00 zmoment=   0.0000E+00
 nd#     961  xforce=   0.0000E+00   yforce=   0.0000E+00  zforce=  -4.2642E+01   energy=   1.7195E-03   setid =     961 xmoment=   0.0000E+00 ymoment=   0.0000E+00 zmoment=   0.0000E+00
 nd#     962  xforce=   0.0000E+00   yforce=   0.0000E+00  zforce=  -3.7388E+01   energy=   1.3949E-03   setid =     962 xmoment=   0.0000E+00 ymoment=   0.0000E+00 zmoment=   0.0000E+00
 nd#     975  xforce=   0.0000E+00   yforce=   0.0000E+00  zforce=  -8.4343E+00   energy=  -9.3240E-05   setid =     975 xmoment=   0.0000E+00 ymoment=   0.0000E+00 zmoment=   0.0000E+00
 nd#     977  xforce=   0.0000E+00   yforce=   0.0000E+00  zforce=   3.6601E+01   energy=  -1.5276E-03   setid =     977 xmoment=   0.0000E+00 ymoment=   0.0000E+00 zmoment=   0.0000E+00
 nd#     978  xforce=   0.0000E+00   yforce=   0.0000E+00  zforce=  -1.8860E+01   energy=   3.7197E-04   setid =     978 xmoment=   0.0000E+00 ymoment=   0.0000E+00 zmoment=   0.0000E+00
 nd#     980  xforce=   0.0000E+00   yforce=   0.0000E+00  zforce=   9.2147E+00   energy=  -5.5759E-04   setid =     980 xmoment=   0.0000E+00 ymoment=   0.0000E+00 zmoment=   0.0000E+00
 nd#     981  xforce=   0.0000E+00   yforce=   0.0000E+00  zforce=  -1.5937E+01   energy=   3.3670E-04   setid =     981 xmoment=   0.0000E+00 ymoment=   0.0000E+00 zmoment=   0.0000E+00
 nd#     983  xforce=   0.0000E+00   yforce=   0.0000E+00  zforce=   1.0371E+01   energy=  -4.8490E-04   setid =     983 xmoment=   0.0000E+00 ymoment=   0.0000E+00 zmoment=   0.0000E+00
 nd#     984  xforce=   0.0000E+00   yforce=   0.0000E+00  zforce=  -2.5269E+01   energy=   7.1914E-04   setid =     984 xmoment=   0.0000E+00 ymoment=   0.0000E+00 zmoment=   0.0000E+00
 nd#     986  xforce=   0.0000E+00   yforce=   0.0000E+00  zforce=  -4.7894E+00   energy=   9.7243E-05   setid =     986 xmoment=   0.0000E+00 ymoment=   0.0000E+00 zmoment=   0.0000E+00
 nd#    1059  xforce=   0.0000E+00   yforce=   0.0000E+00  zforce=  -4.6105E+01   energy=   2.5607E-03   setid =    1059 xmoment=   0.0000E+00 ymoment=   0.0000E+00 zmoment=   0.0000E+00
 nd#    1061  xforce=   0.0000E+00   yforce=   0.0000E+00  zforce=  -8.0651E+01   energy=   3.6608E-03   setid =    1061 xmoment=   0.0000E+00 ymoment=   0.0000E+00 zmoment=   0.0000E+00
 nd#    1063  xforce=   0.0000E+00   yforce=   0.0000E+00  zforce=  -3.6027E+01   energy=   2.1853E-03   setid =    1063 xmoment=   0.0000E+00 ymoment=   0.0000E+00 zmoment=   0.0000E+00
 nd#    1065  xforce=   0.0000E+00   yforce=   0.0000E+00  zforce=  -4.9511E+01   energy=   2.1322E-03   setid =    1065 xmoment=   0.0000E+00 ymoment=   0.0000E+00 zmoment=   0.0000E+00
 nd#    1071  xforce=   0.0000E+00   yforce=   0.0000E+00  zforce=  -1.9800E+01   energy=   6.2919E-04   setid =    1071 xmoment=   0.0000E+00 ymoment=   0.0000E+00 zmoment=   0.0000E+00
 nd#    1072  xforce=   0.0000E+00   yforce=   0.0000E+00  zforce=  -4.1417E+01   energy=   1.4630E-03   setid =    1072 xmoment=   0.0000E+00 ymoment=   0.0000E+00 zmoment=   0.0000E+00
 nd#    1073  xforce=   0.0000E+00   yforce=   0.0000E+00  zforce=  -2.7476E+01   energy=   1.0198E-03   setid =    1073 xmoment=   0.0000E+00 ymoment=   0.0000E+00 zmoment=   0.0000E+00
 nd#    1074  xforce=   0.0000E+00   yforce=   0.0000E+00  zforce=  -3.3300E+01   energy=   1.1174E-03   setid =    1074 xmoment=   0.0000E+00 ymoment=   0.0000E+00 zmoment=   0.0000E+00
 nd#    1111  xforce=   0.0000E+00   yforce=   0.0000E+00  zforce=  -5.9003E+01   energy=   3.3664E-03   setid =    1111 xmoment=   0.0000E+00 ymoment=   0.0000E+00 zmoment=   0.0000E+00
 nd#    1112  xforce=   0.0000E+00   yforce=   0.0000E+00  zforce=  -1.0194E+02   energy=   4.7842E-03   setid =    1112 xmoment=   0.0000E+00 ymoment=   0.0000E+00 zmoment=   0.0000E+00
 nd#    1113  xforce=   0.0000E+00   yforce=   0.0000E+00  zforce=  -4.5157E+01   energy=   2.8519E-03   setid =    1113 xmoment=   0.0000E+00 ymoment=   0.0000E+00 zmoment=   0.0000E+00
 nd#    1114  xforce=   0.0000E+00   yforce=   0.0000E+00  zforce=  -5.9809E+01   energy=   2.7041E-03   setid =    1114 xmoment=   0.0000E+00 ymoment=   0.0000E+00 zmoment=   0.0000E+00
 nd#    1135  xforce=   0.0000E+00   yforce=   0.0000E+00  zforce=  -6.8155E+01   energy=   4.0657E-03   setid =    1135 xmoment=   0.0000E+00 ymoment=   0.0000E+00 zmoment=   0.0000E+00
 nd#    1136  xforce=   0.0000E+00   yforce=   0.0000E+00  zforce=  -1.2787E+02   energy=   5.9853E-03   setid =    1136 xmoment=   0.0000E+00 ymoment=   0.0000E+00 zmoment=   0.0000E+00
 nd#    1137  xforce=   0.0000E+00   yforce=   0.0000E+00  zforce=  -5.2596E+01   energy=   3.5225E-03   setid =    1137 xmoment=   0.0000E+00 ymoment=   0.0000E+00 zmoment=   0.0000E+00
 nd#    1138  xforce=   0.0000E+00   yforce=   0.0000E+00  zforce=  -7.4111E+01   energy=   3.3994E-03   setid =    1138 xmoment=   0.0000E+00 ymoment=   0.0000E+00 zmoment=   0.0000E+00
              xtotal=   0.0000E+00   ytotal=   0.0000E+00  ztotal=  -3.0374E+03   etotal=   1.4905E-01

 n o d a l   f o r c e/e n e r g y    o u t p u t  t=   8.77448E+00

 velocity boundary condition forces/rigid body moments 

 nd#     105  xforce=   0.0000E+00   yforce=   0.0000E+00  zforce=  -7.7747E+01   energy=   5.8849E-03   setid =     105 xmoment=   0.0000E+00 ymoment=   0.0000E+00 zmoment=   0.0000E+00
 nd#     106  xforce=   0.0000E+00   yforce=   0.0000E+00  zforce=  -1.8054E+02   energy=   1.1187E-02   setid =     106 xmoment=   0.0000E+00 ymoment=   0.0000E+00 zmoment=   0.0000E+00
 nd#     107  xforce=   0.0000E+00   yforce=   0.0000E+00  zforce=  -1.6913E+02   energy=   1.0414E-02   setid =     107 xmoment=   0.0000E+00 ymoment=   0.0000E+00 zmoment=   0.0000E+00
 nd#     108  xforce=   0.0000E+00   yforce=   0.0000E+00  zforce=  -7.7707E+01   energy=   5.9750E-03   setid =     108 xmoment=   0.0000E+00 ymoment=   0.0000E+00 zmoment=   0.0000E+00
[...]
 nd#     188  xforce=   0.0000E+00   yforce=   0.0000E+00  zforce=  -3.9044E+00   energy=   9.3817E-03   setid =     188 xmoment=   0.0000E+00 ymoment=   0.0000E+00 zmoment=   0.0000E+00
 nd#     210  xforce=   0.0000E+00   yforce=   0.0000E+00  zforce=  -7.3407E+01   energy=   3.2249E-02   setid =     210 xmoment=   0.0000E+00 ymoment=   0.0000E+00 zmoment=   0.0000E+00
 nd#     211  xforce=   0.0000E+00   yforce=   0.0000E+00  zforce=  -2.2017E+02   energy=   4.6949E-03   setid =     211 xmoment=   0.0000E+00 ymoment=   0.0000E+00 zmoment=   0.0000E+00
 nd#     212  xforce=   0.0000E+00   yforce=   0.0000E+00  zforce=   2.3683E+01   energy=   2.2601E-02   setid =     212 xmoment=   0.0000E+00 ymoment=   0.0000E+00 zmoment=   0.0000E+00
 nd#     220  xforce=   0.0000E+00   yforce=   0.0000E+00  zforce=  -5.7403E+01   energy=   2.9097E-02   setid =     220 xmoment=   0.0000E+00 ymoment=   0.0000E+00 zmoment=   0.0000E+00
 nd#     228  xforce=   0.0000E+00   yforce=   0.0000E+00  zforce=  -7.5331E+01   energy=   2.2267E-02   setid =     228 xmoment=   0.0000E+00 ymoment=   0.0000E+00 zmoment=   0.0000E+00
 nd#     787  xforce=   0.0000E+00   yforce=   0.0000E+00  zforce=  -6.7377E+01   energy=   1.9568E-02   setid =     787 xmoment=   0.0000E+00 ymoment=   0.0000E+00 zmoment=   0.0000E+00
 nd#     788  xforce=   0.0000E+00   yforce=   0.0000E+00  zforce=  -6.2472E+01   energy=   1.7753E-02   setid =     788 xmoment=   0.0000E+00 ymoment=   0.0000E+00 zmoment=   0.0000E+00
 nd#     789  xforce=   0.0000E+00   yforce=   0.0000E+00  zforce=  -5.6494E+01   energy=   1.5321E-02   setid =     789 xmoment=   0.0000E+00 ymoment=   0.0000E+00 zmoment=   0.0000E+00
 nd#     790  xforce=   0.0000E+00   yforce=   0.0000E+00  zforce=  -4.8331E+01   energy=   1.2525E-02   setid =     790 xmoment=   0.0000E+00 ymoment=   0.0000E+00 zmoment=   0.0000E+00
 nd#     791  xforce=   0.0000E+00   yforce=   0.0000E+00  zforce=  -3.6858E+01   energy=   9.5168E-03   setid =     791 xmoment=   0.0000E+00 ymoment=   0.0000E+00 zmoment=   0.0000E+00
 nd#     792  xforce=   0.0000E+00   yforce=   0.0000E+00  zforce=  -2.5515E+01   energy=   6.8437E-03   setid =     792 xmoment=   0.0000E+00 ymoment=   0.0000E+00 zmoment=   0.0000E+00
 nd#     793  xforce=   0.0000E+00   yforce=   0.0000E+00  zforce=  -7.6985E+00   energy=   2.8702E-03   setid =     793 xmoment=   0.0000E+00 ymoment=   0.0000E+00 zmoment=   0.0000E+00
 nd#     794  xforce=   0.0000E+00   yforce=   0.0000E+00  zforce=   2.4926E+00   energy=   1.0320E-03   setid =     794 xmoment=   0.0000E+00 ymoment=   0.0000E+00 zmoment=   0.0000E+00
 nd#     955  xforce=   0.0000E+00   yforce=   0.0000E+00  zforce=  -3.3361E+01   energy=   1.0174E-02   setid =     955 xmoment=   0.0000E+00 ymoment=   0.0000E+00 zmoment=   0.0000E+00
 nd#     956  xforce=   0.0000E+00   yforce=   0.0000E+00  zforce=  -2.6522E+01   energy=   7.8761E-03   setid =     956 xmoment=   0.0000E+00 ymoment=   0.0000E+00 zmoment=   0.0000E+00
 nd#     957  xforce=   0.0000E+00   yforce=   0.0000E+00  zforce=  -7.2472E+01   energy=   1.8527E-02   setid =     957 xmoment=   0.0000E+00 ymoment=   0.0000E+00 zmoment=   0.0000E+00
 nd#     958  xforce=   0.0000E+00   yforce=   0.0000E+00  zforce=  -5.8139E+01   energy=   1.4763E-02   setid =     958 xmoment=   0.0000E+00 ymoment=   0.0000E+00 zmoment=   0.0000E+00
 nd#     959  xforce=   0.0000E+00   yforce=   0.0000E+00  zforce=  -4.9602E+01   energy=   1.0996E-02   setid =     959 xmoment=   0.0000E+00 ymoment=   0.0000E+00 zmoment=   0.0000E+00
 nd#     960  xforce=   0.0000E+00   yforce=   0.0000E+00  zforce=  -4.1585E+01   energy=   9.8177E-03   setid =     960 xmoment=   0.0000E+00 ymoment=   0.0000E+00 zmoment=   0.0000E+00
 nd#     961  xforce=   0.0000E+00   yforce=   0.0000E+00  zforce=  -3.8177E+01   energy=   1.1617E-02   setid =     961 xmoment=   0.0000E+00 ymoment=   0.0000E+00 zmoment=   0.0000E+00
 nd#     962  xforce=   0.0000E+00   yforce=   0.0000E+00  zforce=  -3.3268E+01   energy=   1.0187E-02   setid =     962 xmoment=   0.0000E+00 ymoment=   0.0000E+00 zmoment=   0.0000E+00
 nd#     975  xforce=   0.0000E+00   yforce=   0.0000E+00  zforce=  -5.7368E+00   energy=   2.5801E-03   setid =     975 xmoment=   0.0000E+00 ymoment=   0.0000E+00 zmoment=   0.0000E+00
 nd#     977  xforce=   0.0000E+00   yforce=   0.0000E+00  zforce=   4.9220E+01   energy=  -9.9195E-03   setid =     977 xmoment=   0.0000E+00 ymoment=   0.0000E+00 zmoment=   0.0000E+00
 nd#     978  xforce=   0.0000E+00   yforce=   0.0000E+00  zforce=  -1.6052E+01   energy=   5.1028E-03   setid =     978 xmoment=   0.0000E+00 ymoment=   0.0000E+00 zmoment=   0.0000E+00
 nd#     980  xforce=   0.0000E+00   yforce=   0.0000E+00  zforce=   2.4618E+01   energy=  -3.2194E-03   setid =     980 xmoment=   0.0000E+00 ymoment=   0.0000E+00 zmoment=   0.0000E+00
 nd#     981  xforce=   0.0000E+00   yforce=   0.0000E+00  zforce=  -1.2757E+01   energy=   4.1014E-03   setid =     981 xmoment=   0.0000E+00 ymoment=   0.0000E+00 zmoment=   0.0000E+00
 nd#     983  xforce=   0.0000E+00   yforce=   0.0000E+00  zforce=   1.9170E+01   energy=  -3.4598E-03   setid =     983 xmoment=   0.0000E+00 ymoment=   0.0000E+00 zmoment=   0.0000E+00
 nd#     984  xforce=   0.0000E+00   yforce=   0.0000E+00  zforce=  -1.6236E+01   energy=   6.1462E-03   setid =     984 xmoment=   0.0000E+00 ymoment=   0.0000E+00 zmoment=   0.0000E+00
 nd#     986  xforce=   0.0000E+00   yforce=   0.0000E+00  zforce=   1.5115E+00   energy=   7.7145E-04   setid =     986 xmoment=   0.0000E+00 ymoment=   0.0000E+00 zmoment=   0.0000E+00
 nd#    1059  xforce=   0.0000E+00   yforce=   0.0000E+00  zforce=  -4.0412E+01   energy=   1.2835E-02   setid =    1059 xmoment=   0.0000E+00 ymoment=   0.0000E+00 zmoment=   0.0000E+00
 nd#    1061  xforce=   0.0000E+00   yforce=   0.0000E+00  zforce=  -9.0316E+01   energy=   2.3577E-02   setid =    1061 xmoment=   0.0000E+00 ymoment=   0.0000E+00 zmoment=   0.0000E+00
 nd#    1063  xforce=   0.0000E+00   yforce=   0.0000E+00  zforce=  -6.3920E+01   energy=   1.3347E-02   setid =    1063 xmoment=   0.0000E+00 ymoment=   0.0000E+00 zmoment=   0.0000E+00
 nd#    1065  xforce=   0.0000E+00   yforce=   0.0000E+00  zforce=  -4.3266E+01   energy=   1.3460E-02   setid =    1065 xmoment=   0.0000E+00 ymoment=   0.0000E+00 zmoment=   0.0000E+00
 nd#    1071  xforce=   0.0000E+00   yforce=   0.0000E+00  zforce=  -1.8635E+01   energy=   5.6842E-03   setid =    1071 xmoment=   0.0000E+00 ymoment=   0.0000E+00 zmoment=   0.0000E+00
 nd#    1072  xforce=   0.0000E+00   yforce=   0.0000E+00  zforce=  -4.4354E+01   energy=   1.1440E-02   setid =    1072 xmoment=   0.0000E+00 ymoment=   0.0000E+00 zmoment=   0.0000E+00
 nd#    1073  xforce=   0.0000E+00   yforce=   0.0000E+00  zforce=  -3.0449E+01   energy=   7.7603E-03   setid =    1073 xmoment=   0.0000E+00 ymoment=   0.0000E+00 zmoment=   0.0000E+00
 nd#    1074  xforce=   0.0000E+00   yforce=   0.0000E+00  zforce=  -2.6265E+01   energy=   8.5471E-03   setid =    1074 xmoment=   0.0000E+00 ymoment=   0.0000E+00 zmoment=   0.0000E+00
 nd#    1111  xforce=   0.0000E+00   yforce=   0.0000E+00  zforce=  -4.7101E+01   energy=   1.5577E-02   setid =    1111 xmoment=   0.0000E+00 ymoment=   0.0000E+00 zmoment=   0.0000E+00
 nd#    1112  xforce=   0.0000E+00   yforce=   0.0000E+00  zforce=  -1.0597E+02   energy=   2.8634E-02   setid =    1112 xmoment=   0.0000E+00 ymoment=   0.0000E+00 zmoment=   0.0000E+00
 nd#    1113  xforce=   0.0000E+00   yforce=   0.0000E+00  zforce=  -7.9705E+01   energy=   1.5886E-02   setid =    1113 xmoment=   0.0000E+00 ymoment=   0.0000E+00 zmoment=   0.0000E+00
 nd#    1114  xforce=   0.0000E+00   yforce=   0.0000E+00  zforce=  -4.7834E+01   energy=   1.5491E-02   setid =    1114 xmoment=   0.0000E+00 ymoment=   0.0000E+00 zmoment=   0.0000E+00
 nd#    1135  xforce=   0.0000E+00   yforce=   0.0000E+00  zforce=  -5.4656E+01   energy=   1.7648E-02   setid =    1135 xmoment=   0.0000E+00 ymoment=   0.0000E+00 zmoment=   0.0000E+00
 nd#    1136  xforce=   0.0000E+00   yforce=   0.0000E+00  zforce=  -1.3079E+02   energy=   3.4855E-02   setid =    1136 xmoment=   0.0000E+00 ymoment=   0.0000E+00 zmoment=   0.0000E+00
 nd#    1137  xforce=   0.0000E+00   yforce=   0.0000E+00  zforce=  -1.0256E+02   energy=   1.8884E-02   setid =    1137 xmoment=   0.0000E+00 ymoment=   0.0000E+00 zmoment=   0.0000E+00
 nd#    1138  xforce=   0.0000E+00   yforce=   0.0000E+00  zforce=  -6.5103E+01   energy=   1.8797E-02   setid =    1138 xmoment=   0.0000E+00 ymoment=   0.0000E+00 zmoment=   0.0000E+00
              xtotal=   0.0000E+00   ytotal=   0.0000E+00  ztotal=  -2.8648E+03   etotal=   8.1185E-01

 n o d a l   f o r c e/e n e r g y    o u t p u t  t=   2.80129E+01

 velocity boundary condition forces/rigid body moments 

 nd#     105  xforce=   0.0000E+00   yforce=   0.0000E+00  zforce=   2.3781E+01   energy=   1.2869E-02   setid =     105 xmoment=   0.0000E+00 ymoment=   0.0000E+00 zmoment=   0.0000E+00
 nd#     106  xforce=   0.0000E+00   yforce=   0.0000E+00  zforce=  -2.5102E+01   energy=   3.7441E-02   setid =     106 xmoment=   0.0000E+00 ymoment=   0.0000E+00 zmoment=   0.0000E+00
 nd#     107  xforce=   0.0000E+00   yforce=   0.0000E+00  zforce=  -1.3244E+02   energy=   4.1431E-02   setid =     107 xmoment=   0.0000E+00 ymoment=   0.0000E+00 zmoment=   0.0000E+00
 nd#     108  xforce=   0.0000E+00   yforce=   0.0000E+00  zforce=  -6.1041E+01   energy=   1.9446E-02   setid =     108 xmoment=   0.0000E+00 ymoment=   0.0000E+00 zmoment=   0.0000E+00
 nd#     137  xforce=   0.0000E+00   yforce=   0.0000E+00  zforce=  -1.4710E+02   energy=   2.5540E-02   setid =     137 xmoment=   0.0000E+00 ymoment=   0.0000E+00 zmoment=   0.0000E+00
 nd#     138  xforce=   0.0000E+00   yforce=   0.0000E+00  zforce=  -7.6327E+01   energy=   1.9808E-02   setid =     138 xmoment=   0.0000E+00 ymoment=   0.0000E+00 zmoment=   0.0000E+00
 nd#     139  xforce=   0.0000E+00   yforce=   0.0000E+00  zforce=  -3.4278E+00   energy=   3.3887E-02   setid =     139 xmoment=   0.0000E+00 ymoment=   0.0000E+00 zmoment=   0.0000E+00
 nd#     140  xforce=   0.0000E+00   yforce=   0.0000E+00  zforce=  -6.2068E+01   energy=   2.5544E-02   setid =     140 xmoment=   0.0000E+00 ymoment=   0.0000E+00 zmoment=   0.0000E+00
 nd#     162  xforce=   0.0000E+00   yforce=   0.0000E+00  zforce=  -1.7370E+01   energy=   1.3781E-02   setid =     162 xmoment=   0.0000E+00 ymoment=   0.0000E+00 zmoment=   0.0000E+00
 nd#     163  xforce=   0.0000E+00   yforce=   0.0000E+00  zforce=   5.7601E+01   energy=  -2.1768E-02   setid =     163 xmoment=   0.0000E+00 ymoment=   0.0000E+00 zmoment=   0.0000E+00
 nd#     164  xforce=   0.0000E+00   yforce=   0.0000E+00  zforce=  -5.8749E+01   energy=   2.8601E-02   setid =     164 xmoment=   0.0000E+00 ymoment=   0.0000E+00 zmoment=   0.0000E+00
 nd#     179  xforce=   0.0000E+00   yforce=   0.0000E+00  zforce=  -1.0564E+02   energy=  -6.1083E-03   setid =     179 xmoment=   0.0000E+00 ymoment=   0.0000E+00 zmoment=   0.0000E+00
 nd#     180  xforce=   0.0000E+00   yforce=   0.0000E+00  zforce=  -1.4664E+02   energy=   2.4750E-02   setid =     180 xmoment=   0.0000E+00 ymoment=   0.0000E+00 zmoment=   0.0000E+00
 nd#     188  xforce=   0.0000E+00   yforce=   0.0000E+00  zforce=  -1.2655E+00   energy=   9.4195E-03   setid =     188 xmoment=   0.0000E+00 ymoment=   0.0000E+00 zmoment=   0.0000E+00
 nd#     210  xforce=   0.0000E+00   yforce=   0.0000E+00  zforce=  -6.7104E+01   energy=   3.2897E-02   setid =     210 xmoment=   0.0000E+00 ymoment=   0.0000E+00 zmoment=   0.0000E+00
 nd#     211  xforce=   0.0000E+00   yforce=   0.0000E+00  zforce=  -2.6386E+02   energy=   6.9939E-03   setid =     211 xmoment=   0.0000E+00 ymoment=   0.0000E+00 zmoment=   0.0000E+00
 nd#     212  xforce=   0.0000E+00   yforce=   0.0000E+00  zforce=   1.3338E+01   energy=   2.2375E-02   setid =     212 xmoment=   0.0000E+00 ymoment=   0.0000E+00 zmoment=   0.0000E+00
 nd#     220  xforce=   0.0000E+00   yforce=   0.0000E+00  zforce=  -5.2360E+01   energy=   2.9590E-02   setid =     220 xmoment=   0.0000E+00 ymoment=   0.0000E+00 zmoment=   0.0000E+00
 nd#     228  xforce=   0.0000E+00   yforce=   0.0000E+00  zforce=  -6.3601E+01   energy=   2.2923E-02   setid =     228 xmoment=   0.0000E+00 ymoment=   0.0000E+00 zmoment=   0.0000E+00
 nd#     787  xforce=   0.0000E+00   yforce=   0.0000E+00  zforce=  -5.3435E+01   energy=   2.0140E-02   setid =     787 xmoment=   0.0000E+00 ymoment=   0.0000E+00 zmoment=   0.0000E+00
 nd#     788  xforce=   0.0000E+00   yforce=   0.0000E+00  zforce=  -5.1994E+01   energy=   1.8283E-02   setid =     788 xmoment=   0.0000E+00 ymoment=   0.0000E+00 zmoment=   0.0000E+00
 nd#     789  xforce=   0.0000E+00   yforce=   0.0000E+00  zforce=  -4.6355E+01   energy=   1.5794E-02   setid =     789 xmoment=   0.0000E+00 ymoment=   0.0000E+00 zmoment=   0.0000E+00
 nd#     790  xforce=   0.0000E+00   yforce=   0.0000E+00  zforce=  -3.8197E+01   energy=   1.2918E-02   setid =     790 xmoment=   0.0000E+00 ymoment=   0.0000E+00 zmoment=   0.0000E+00
 nd#     791  xforce=   0.0000E+00   yforce=   0.0000E+00  zforce=  -2.6261E+01   energy=   9.8006E-03   setid =     791 xmoment=   0.0000E+00 ymoment=   0.0000E+00 zmoment=   0.0000E+00
 nd#     792  xforce=   0.0000E+00   yforce=   0.0000E+00  zforce=  -1.3550E+01   energy=   7.0087E-03   setid =     792 xmoment=   0.0000E+00 ymoment=   0.0000E+00 zmoment=   0.0000E+00
 nd#     793  xforce=   0.0000E+00   yforce=   0.0000E+00  zforce=   5.4612E+00   energy=   2.8568E-03   setid =     793 xmoment=   0.0000E+00 ymoment=   0.0000E+00 zmoment=   0.0000E+00
 nd#     794  xforce=   0.0000E+00   yforce=   0.0000E+00  zforce=   1.0110E+01   energy=   9.6003E-04   setid =     794 xmoment=   0.0000E+00 ymoment=   0.0000E+00 zmoment=   0.0000E+00
 nd#     955  xforce=   0.0000E+00   yforce=   0.0000E+00  zforce=  -1.6653E+01   energy=   1.0378E-02   setid =     955 xmoment=   0.0000E+00 ymoment=   0.0000E+00 zmoment=   0.0000E+00
 nd#     956  xforce=   0.0000E+00   yforce=   0.0000E+00  zforce=  -7.4867E+00   energy=   8.0034E-03   setid =     956 xmoment=   0.0000E+00 ymoment=   0.0000E+00 zmoment=   0.0000E+00
 nd#     957  xforce=   0.0000E+00   yforce=   0.0000E+00  zforce=  -5.6572E+01   energy=   1.9099E-02   setid =     957 xmoment=   0.0000E+00 ymoment=   0.0000E+00 zmoment=   0.0000E+00
 nd#     958  xforce=   0.0000E+00   yforce=   0.0000E+00  zforce=  -4.0036E+01   energy=   1.5185E-02   setid =     958 xmoment=   0.0000E+00 ymoment=   0.0000E+00 zmoment=   0.0000E+00
 nd#     959  xforce=   0.0000E+00   yforce=   0.0000E+00  zforce=  -3.7663E+01   energy=   1.1377E-02   setid =     959 xmoment=   0.0000E+00 ymoment=   0.0000E+00 zmoment=   0.0000E+00
 nd#     960  xforce=   0.0000E+00   yforce=   0.0000E+00  zforce=  -2.6243E+01   energy=   1.0100E-02   setid =     960 xmoment=   0.0000E+00 ymoment=   0.0000E+00 zmoment=   0.0000E+00
 nd#     961  xforce=   0.0000E+00   yforce=   0.0000E+00  zforce=  -2.6453E+01   energy=   1.1906E-02   setid =     961 xmoment=   0.0000E+00 ymoment=   0.0000E+00 zmoment=   0.0000E+00
 nd#     962  xforce=   0.0000E+00   yforce=   0.0000E+00  zforce=  -2.0592E+01   energy=   1.0423E-02   setid =     962 xmoment=   0.0000E+00 ymoment=   0.0000E+00 zmoment=   0.0000E+00
 nd#     975  xforce=   0.0000E+00   yforce=   0.0000E+00  zforce=   2.3532E+01   energy=   2.4356E-03   setid =     975 xmoment=   0.0000E+00 ymoment=   0.0000E+00 zmoment=   0.0000E+00
 nd#     977  xforce=   0.0000E+00   yforce=   0.0000E+00  zforce=   6.5896E+01   energy=  -1.0498E-02   setid =     977 xmoment=   0.0000E+00 ymoment=   0.0000E+00 zmoment=   0.0000E+00
 nd#     978  xforce=   0.0000E+00   yforce=   0.0000E+00  zforce=   7.9704E+00   energy=   5.0832E-03   setid =     978 xmoment=   0.0000E+00 ymoment=   0.0000E+00 zmoment=   0.0000E+00
 nd#     980  xforce=   0.0000E+00   yforce=   0.0000E+00  zforce=   3.8917E+01   energy=  -3.5508E-03   setid =     980 xmoment=   0.0000E+00 ymoment=   0.0000E+00 zmoment=   0.0000E+00
 nd#     981  xforce=   0.0000E+00   yforce=   0.0000E+00  zforce=   1.0033E+01   energy=   4.0640E-03   setid =     981 xmoment=   0.0000E+00 ymoment=   0.0000E+00 zmoment=   0.0000E+00
 nd#     983  xforce=   0.0000E+00   yforce=   0.0000E+00  zforce=   3.2705E+01   energy=  -3.7347E-03   setid =     983 xmoment=   0.0000E+00 ymoment=   0.0000E+00 zmoment=   0.0000E+00
 nd#     984  xforce=   0.0000E+00   yforce=   0.0000E+00  zforce=  -1.0871E+00   energy=   6.2031E-03   setid =     984 xmoment=   0.0000E+00 ymoment=   0.0000E+00 zmoment=   0.0000E+00
 nd#     986  xforce=   0.0000E+00   yforce=   0.0000E+00  zforce=   9.5605E+00   energy=   7.0449E-04   setid =     986 xmoment=   0.0000E+00 ymoment=   0.0000E+00 zmoment=   0.0000E+00
 nd#    1059  xforce=   0.0000E+00   yforce=   0.0000E+00  zforce=  -2.5720E+01   energy=   1.3119E-02   setid =    1059 xmoment=   0.0000E+00 ymoment=   0.0000E+00 zmoment=   0.0000E+00
 nd#    1061  xforce=   0.0000E+00   yforce=   0.0000E+00  zforce=  -7.5636E+01   energy=   2.4329E-02   setid =    1061 xmoment=   0.0000E+00 ymoment=   0.0000E+00 zmoment=   0.0000E+00
 nd#    1063  xforce=   0.0000E+00   yforce=   0.0000E+00  zforce=  -5.5276E+01   energy=   1.3881E-02   setid =    1063 xmoment=   0.0000E+00 ymoment=   0.0000E+00 zmoment=   0.0000E+00
 nd#    1065  xforce=   0.0000E+00   yforce=   0.0000E+00  zforce=  -3.2418E+01   energy=   1.3803E-02   setid =    1065 xmoment=   0.0000E+00 ymoment=   0.0000E+00 zmoment=   0.0000E+00
 nd#    1071  xforce=   0.0000E+00   yforce=   0.0000E+00  zforce=   4.1797E+00   energy=   5.7094E-03   setid =    1071 xmoment=   0.0000E+00 ymoment=   0.0000E+00 zmoment=   0.0000E+00
 nd#    1072  xforce=   0.0000E+00   yforce=   0.0000E+00  zforce=  -2.3584E+01   energy=   1.1714E-02   setid =    1072 xmoment=   0.0000E+00 ymoment=   0.0000E+00 zmoment=   0.0000E+00
 nd#    1073  xforce=   0.0000E+00   yforce=   0.0000E+00  zforce=  -1.1707E+01   energy=   7.9199E-03   setid =    1073 xmoment=   0.0000E+00 ymoment=   0.0000E+00 zmoment=   0.0000E+00
 nd#    1074  xforce=   0.0000E+00   yforce=   0.0000E+00  zforce=  -1.2466E+01   energy=   8.7112E-03   setid =    1074 xmoment=   0.0000E+00 ymoment=   0.0000E+00 zmoment=   0.0000E+00
 nd#    1111  xforce=   0.0000E+00   yforce=   0.0000E+00  zforce=  -3.3895E+01   energy=   1.5936E-02   setid =    1111 xmoment=   0.0000E+00 ymoment=   0.0000E+00 zmoment=   0.0000E+00
 nd#    1112  xforce=   0.0000E+00   yforce=   0.0000E+00  zforce=  -9.0898E+01   energy=   2.9542E-02   setid =    1112 xmoment=   0.0000E+00 ymoment=   0.0000E+00 zmoment=   0.0000E+00
 nd#    1113  xforce=   0.0000E+00   yforce=   0.0000E+00  zforce=  -7.2773E+01   energy=   1.6583E-02   setid =    1113 xmoment=   0.0000E+00 ymoment=   0.0000E+00 zmoment=   0.0000E+00
 nd#    1114  xforce=   0.0000E+00   yforce=   0.0000E+00  zforce=  -3.7774E+01   energy=   1.5881E-02   setid =    1114 xmoment=   0.0000E+00 ymoment=   0.0000E+00 zmoment=   0.0000E+00
 nd#    1135  xforce=   0.0000E+00   yforce=   0.0000E+00  zforce=  -3.8905E+01   energy=   1.8084E-02   setid =    1135 xmoment=   0.0000E+00 ymoment=   0.0000E+00 zmoment=   0.0000E+00
 nd#    1136  xforce=   0.0000E+00   yforce=   0.0000E+00  zforce=  -1.1260E+02   energy=   3.6000E-02   setid =    1136 xmoment=   0.0000E+00 ymoment=   0.0000E+00 zmoment=   0.0000E+00
 nd#    1137  xforce=   0.0000E+00   yforce=   0.0000E+00  zforce=  -9.8789E+01   energy=   1.9821E-02   setid =    1137 xmoment=   0.0000E+00 ymoment=   0.0000E+00 zmoment=   0.0000E+00
 nd#    1138  xforce=   0.0000E+00   yforce=   0.0000E+00  zforce=  -4.9481E+01   energy=   1.9361E-02   setid =    1138 xmoment=   0.0000E+00 ymoment=   0.0000E+00 zmoment=   0.0000E+00
              xtotal=   0.0000E+00   ytotal=   0.0000E+00  ztotal=  -2.2155E+03   etotal=   8.3476E-01
