 LS-DYNA keyword deck by LS-PrePost                                      
                    ls-dyna smp d R14 R14.1.1s_1_ef50e1 date 06/16/2024



 n o d a l  s t r e s s  c a l c u l a t i o n s   f o r   t i m e  s t e p        1   ( at time 0.00000E+00 )

 node (global)
          stress       sig-xx      sig-yy      sig-zz      sig-xy      sig-yz      sig-zx       plastic
                                                                                                 strain 



 n o d a l  s t r a i n  c a l c u l a t i o n s   f o r   t i m e  s t e p        1   ( at time 0.00000E+00 )

 node (global)
          strain       eps-xx      eps-yy      eps-zz      eps-xy      eps-yz      eps-zx       



 n o d a l  s t r e s s  c a l c u l a t i o n s   f o r   t i m e  s t e p       10   ( at time 1.29245E+00 )

 node (global)
          stress       sig-xx      sig-yy      sig-zz      sig-xy      sig-yz      sig-zx       plastic
                                                                                                 strain 



 n o d a l  s t r a i n  c a l c u l a t i o n s   f o r   t i m e  s t e p       10   ( at time 1.29245E+00 )

 node (global)
          strain       eps-xx      eps-yy      eps-zz      eps-xy      eps-yz      eps-zx       



 n o d a l  s t r e s s  c a l c u l a t i o n s   f o r   t i m e  s t e p       14   ( at time 2.54839E+00 )

 node (global)
          stress       sig-xx      sig-yy      sig-zz      sig-xy      sig-yz      sig-zx       plastic
                                                                                                 strain 



 n o d a l  s t r a i n  c a l c u l a t i o n s   f o r   t i m e  s t e p       14   ( at time 2.54839E+00 )

 node (global)
          strain       eps-xx      eps-yy      eps-zz      eps-xy      eps-yz      eps-zx       



 n o d a l  s t r e s s  c a l c u l a t i o n s   f o r   t i m e  s t e p      483   ( at time 3.19217E+00 )

 node (global)
          stress       sig-xx      sig-yy      sig-zz      sig-xy      sig-yz      sig-zx       plastic
                                                                                                 strain 



 n o d a l  s t r a i n  c a l c u l a t i o n s   f o r   t i m e  s t e p      483   ( at time 3.19217E+00 )

 node (global)
          strain       eps-xx      eps-yy      eps-zz      eps-xy      eps-yz      eps-zx       



 n o d a l  s t r e s s  c a l c u l a t i o n s   f o r   t i m e  s t e p      501   ( at time 4.41335E+00 )

 node (global)
          stress       sig-xx      sig-yy      sig-zz      sig-xy      sig-yz      sig-zx       plastic
                                                                                                 strain 



 n o d a l  s t r a i n  c a l c u l a t i o n s   f o r   t i m e  s t e p      501   ( at time 4.41335E+00 )

 node (global)
          strain       eps-xx      eps-yy      eps-zz      eps-xy      eps-yz      eps-zx       



 n o d a l  s t r e s s  c a l c u l a t i o n s   f o r   t i m e  s t e p      507   ( at time 5.26901E+00 )

 node (global)
          stress       sig-xx      sig-yy      sig-zz      sig-xy      sig-yz      sig-zx       plastic
                                                                                                 strain 



 n o d a l  s t r a i n  c a l c u l a t i o n s   f o r   t i m e  s t e p      507   ( at time 5.26901E+00 )

 node (global)
          strain       eps-xx      eps-yy      eps-zz      eps-xy      eps-yz      eps-zx       



 n o d a l  s t r e s s  c a l c u l a t i o n s   f o r   t i m e  s t e p      514   ( at time 6.62515E+00 )

 node (global)
          stress       sig-xx      sig-yy      sig-zz      sig-xy      sig-yz      sig-zx       plastic
                                                                                                 strain 



 n o d a l  s t r a i n  c a l c u l a t i o n s   f o r   t i m e  s t e p      514   ( at time 6.62515E+00 )

 node (global)
          strain       eps-xx      eps-yy      eps-zz      eps-xy      eps-yz      eps-zx       



 n o d a l  s t r e s s  c a l c u l a t i o n s   f o r   t i m e  s t e p      522   ( at time 8.77448E+00 )

 node (global)
          stress       sig-xx      sig-yy      sig-zz      sig-xy      sig-yz      sig-zx       plastic
                                                                                                 strain 



 n o d a l  s t r a i n  c a l c u l a t i o n s   f o r   t i m e  s t e p      522   ( at time 8.77448E+00 )

 node (global)
          strain       eps-xx      eps-yy      eps-zz      eps-xy      eps-yz      eps-zx       



 n o d a l  s t r e s s  c a l c u l a t i o n s   f o r   t i m e  s t e p      530   ( at time 1.09238E+01 )

 node (global)
          stress       sig-xx      sig-yy      sig-zz      sig-xy      sig-yz      sig-zx       plastic
                                                                                                 strain 



 n o d a l  s t r a i n  c a l c u l a t i o n s   f o r   t i m e  s t e p      530   ( at time 1.09238E+01 )

 node (global)
          strain       eps-xx      eps-yy      eps-zz      eps-xy      eps-yz      eps-zx       



 n o d a l  s t r e s s  c a l c u l a t i o n s   f o r   t i m e  s t e p      547   ( at time 1.30731E+01 )

 node (global)
          stress       sig-xx      sig-yy      sig-zz      sig-xy      sig-yz      sig-zx       plastic
                                                                                                 strain 



 n o d a l  s t r a i n  c a l c u l a t i o n s   f o r   t i m e  s t e p      547   ( at time 1.30731E+01 )

 node (global)
          strain       eps-xx      eps-yy      eps-zz      eps-xy      eps-yz      eps-zx       



 n o d a l  s t r e s s  c a l c u l a t i o n s   f o r   t i m e  s t e p      564   ( at time 1.52225E+01 )

 node (global)
          stress       sig-xx      sig-yy      sig-zz      sig-xy      sig-yz      sig-zx       plastic
                                                                                                 strain 



 n o d a l  s t r a i n  c a l c u l a t i o n s   f o r   t i m e  s t e p      564   ( at time 1.52225E+01 )

 node (global)
          strain       eps-xx      eps-yy      eps-zz      eps-xy      eps-yz      eps-zx       



 n o d a l  s t r e s s  c a l c u l a t i o n s   f o r   t i m e  s t e p      572   ( at time 1.73718E+01 )

 node (global)
          stress       sig-xx      sig-yy      sig-zz      sig-xy      sig-yz      sig-zx       plastic
                                                                                                 strain 



 n o d a l  s t r a i n  c a l c u l a t i o n s   f o r   t i m e  s t e p      572   ( at time 1.73718E+01 )

 node (global)
          strain       eps-xx      eps-yy      eps-zz      eps-xy      eps-yz      eps-zx       



 n o d a l  s t r e s s  c a l c u l a t i o n s   f o r   t i m e  s t e p      580   ( at time 1.95211E+01 )

 node (global)
          stress       sig-xx      sig-yy      sig-zz      sig-xy      sig-yz      sig-zx       plastic
                                                                                                 strain 



 n o d a l  s t r a i n  c a l c u l a t i o n s   f o r   t i m e  s t e p      580   ( at time 1.95211E+01 )

 node (global)
          strain       eps-xx      eps-yy      eps-zz      eps-xy      eps-yz      eps-zx       



 n o d a l  s t r e s s  c a l c u l a t i o n s   f o r   t i m e  s t e p      588   ( at time 2.16705E+01 )

 node (global)
          stress       sig-xx      sig-yy      sig-zz      sig-xy      sig-yz      sig-zx       plastic
                                                                                                 strain 



 n o d a l  s t r a i n  c a l c u l a t i o n s   f o r   t i m e  s t e p      588   ( at time 2.16705E+01 )

 node (global)
          strain       eps-xx      eps-yy      eps-zz      eps-xy      eps-yz      eps-zx       



 n o d a l  s t r e s s  c a l c u l a t i o n s   f o r   t i m e  s t e p      597   ( at time 2.38198E+01 )

 node (global)
          stress       sig-xx      sig-yy      sig-zz      sig-xy      sig-yz      sig-zx       plastic
                                                                                                 strain 



 n o d a l  s t r a i n  c a l c u l a t i o n s   f o r   t i m e  s t e p      597   ( at time 2.38198E+01 )

 node (global)
          strain       eps-xx      eps-yy      eps-zz      eps-xy      eps-yz      eps-zx       



 n o d a l  s t r e s s  c a l c u l a t i o n s   f o r   t i m e  s t e p      605   ( at time 2.59691E+01 )

 node (global)
          stress       sig-xx      sig-yy      sig-zz      sig-xy      sig-yz      sig-zx       plastic
                                                                                                 strain 



 n o d a l  s t r a i n  c a l c u l a t i o n s   f o r   t i m e  s t e p      605   ( at time 2.59691E+01 )

 node (global)
          strain       eps-xx      eps-yy      eps-zz      eps-xy      eps-yz      eps-zx       



 n o d a l  s t r e s s  c a l c u l a t i o n s   f o r   t i m e  s t e p     1127   ( at time 2.61841E+01 )

 node (global)
          stress       sig-xx      sig-yy      sig-zz      sig-xy      sig-yz      sig-zx       plastic
                                                                                                 strain 



 n o d a l  s t r a i n  c a l c u l a t i o n s   f o r   t i m e  s t e p     1127   ( at time 2.61841E+01 )

 node (global)
          strain       eps-xx      eps-yy      eps-zz      eps-xy      eps-yz      eps-zx       



 n o d a l  s t r e s s  c a l c u l a t i o n s   f o r   t i m e  s t e p     1626   ( at time 2.70693E+01 )

 node (global)
          stress       sig-xx      sig-yy      sig-zz      sig-xy      sig-yz      sig-zx       plastic
                                                                                                 strain 



 n o d a l  s t r a i n  c a l c u l a t i o n s   f o r   t i m e  s t e p     1626   ( at time 2.70693E+01 )

 node (global)
          strain       eps-xx      eps-yy      eps-zz      eps-xy      eps-yz      eps-zx       



 n o d a l  s t r e s s  c a l c u l a t i o n s   f o r   t i m e  s t e p     2711   ( at time 2.80129E+01 )

 node (global)
          stress       sig-xx      sig-yy      sig-zz      sig-xy      sig-yz      sig-zx       plastic
                                                                                                 strain 



 n o d a l  s t r a i n  c a l c u l a t i o n s   f o r   t i m e  s t e p     2711   ( at time 2.80129E+01 )

 node (global)
          strain       eps-xx      eps-yy      eps-zz      eps-xy      eps-yz      eps-zx       
