 LS-DYNA keyword deck by LS-PrePost                                      
                    ls-dyna smp d R14 R14.1.1s_1_ef50e1 date 06/16/2024

{BEGIN LEGEND}
 Entity #        Title
        1                                                                                     
        2                                                                                     
        3                                                                                     
        4                                                                                     
        5                                                                                     
        6                                                                                     
        7                                                                                     
        8                                                                                     
        9                                                                                     
       10                                                                                     
       11                                                                                     
       12                                                                                     
       13                                                                                     
       14                                                                                     
       15                                                                                     
       16                                                                                     
       17                                                                                     
       18                                                                                     
       19                                                                                     
      105                                                                                     
      106                                                                                     
      107                                                                                     
      108                                                                                     
      137                                                                                     
      138                                                                                     
      139                                                                                     
      140                                                                                     
      162                                                                                     
      163                                                                                     
      164                                                                                     
      179                                                                                     
      180                                                                                     
      188                                                                                     
      210                                                                                     
      211                                                                                     
      212                                                                                     
      220                                                                                     
      228                                                                                     
      787                                                                                     
      788                                                                                     
      789                                                                                     
      790                                                                                     
      791                                                                                     
      792                                                                                     
      793                                                                                     
      794                                                                                     
      955                                                                                     
      956                                                                                     
      957                                                                                     
      958                                                                                     
      959                                                                                     
      960                                                                                     
      961                                                                                     
      962                                                                                     
      975                                                                                     
      977                                                                                     
      978                                                                                     
      980                                                                                     
      981                                                                                     
      983                                                                                     
      984                                                                                     
      986                                                                                     
     1059                                                                                     
     1061                                                                                     
     1063                                                                                     
     1065                                                                                     
     1071                                                                                     
     1072                                                                                     
     1073                                                                                     
     1074                                                                                     
     1111                                                                                     
     1112                                                                                     
     1113                                                                                     
     1114                                                                                     
     1135                                                                                     
     1136                                                                                     
     1137                                                                                     
     1138                                                                                     
{END LEGEND}




 n o d a l   p r i n t   o u t   f o r   t i m e  s t e p       1                              ( at time 0.0000000E+00 )

 nodal point  x-disp     y-disp      z-disp      x-vel       y-vel       z-vel      x-accl      y-accl      z-accl      x-coor      y-coor      z-coor
        1  0.00000E+00 0.00000E+00 0.00000E+00 0.00000E+00 0.00000E+00 0.00000E+00 0.00000E+00 0.00000E+00 0.00000E+00 3.17500E-03 0.00000E+00-8.88000E-19
        2  0.00000E+00 0.00000E+00 0.00000E+00 0.00000E+00 0.00000E+00 0.00000E+00 0.00000E+00 0.00000E+00 0.00000E+00 2.38130E-03 0.00000E+00 0.00000E+00
        3  0.00000E+00 0.00000E+00 0.00000E+00 0.00000E+00 0.00000E+00 0.00000E+00 0.00000E+00 0.00000E+00 0.00000E+00 1.58750E-03 0.00000E+00 0.00000E+00
        4  0.00000E+00 0.00000E+00 0.00000E+00 0.00000E+00 0.00000E+00 0.00000E+00 0.00000E+00 0.00000E+00 0.00000E+00 7.93750E-04 0.00000E+00 0.00000E+00
        5  0.00000E+00 0.00000E+00 0.00000E+00 0.00000E+00 0.00000E+00 0.00000E+00 0.00000E+00 0.00000E+00 0.00000E+00 0.00000E+00 0.00000E+00 0.00000E+00
        6  0.00000E+00 0.00000E+00 0.00000E+00 0.00000E+00 0.00000E+00 0.00000E+00 0.00000E+00 0.00000E+00 0.00000E+00 4.86000E-20 7.93750E-04 0.00000E+00
        7  0.00000E+00 0.00000E+00 0.00000E+00 0.00000E+00 0.00000E+00 0.00000E+00 0.00000E+00 0.00000E+00 0.00000E+00 9.72100E-20 1.58750E-03 0.00000E+00
        8  0.00000E+00 0.00000E+00 0.00000E+00 0.00000E+00 0.00000E+00 0.00000E+00 0.00000E+00 0.00000E+00 0.00000E+00 1.45800E-19 2.38130E-03 0.00000E+00
        9  0.00000E+00 0.00000E+00 0.00000E+00 0.00000E+00 0.00000E+00 0.00000E+00 0.00000E+00 0.00000E+00 0.00000E+00 1.94400E-19 3.17500E-03 0.00000E+00
       10  0.00000E+00 0.00000E+00 0.00000E+00 0.00000E+00 0.00000E+00 0.00000E+00 0.00000E+00 0.00000E+00 0.00000E+00 1.21500E-03 2.93330E-03 0.00000E+00
       11  0.00000E+00 0.00000E+00 0.00000E+00 0.00000E+00 0.00000E+00 0.00000E+00 0.00000E+00 0.00000E+00 0.00000E+00 2.24510E-03 2.24510E-03 0.00000E+00
       12  0.00000E+00 0.00000E+00 0.00000E+00 0.00000E+00 0.00000E+00 0.00000E+00 0.00000E+00 0.00000E+00 0.00000E+00 2.93330E-03 1.21500E-03 0.00000E+00
       13  0.00000E+00 0.00000E+00 0.00000E+00 0.00000E+00 0.00000E+00 0.00000E+00 0.00000E+00 0.00000E+00 0.00000E+00 1.30830E-03 1.35190E-03 0.00000E+00
       14  0.00000E+00 0.00000E+00 0.00000E+00 0.00000E+00 0.00000E+00 0.00000E+00 0.00000E+00 0.00000E+00 0.00000E+00 1.48830E-03 7.06977E-04 0.00000E+00
       15  0.00000E+00 0.00000E+00 0.00000E+00 0.00000E+00 0.00000E+00 0.00000E+00 0.00000E+00 0.00000E+00 0.00000E+00 6.69510E-04 1.50700E-03 0.00000E+00
       16  0.00000E+00 0.00000E+00 0.00000E+00 0.00000E+00 0.00000E+00 0.00000E+00 0.00000E+00 0.00000E+00 0.00000E+00 7.53638E-04 7.82337E-04 0.00000E+00
       17  0.00000E+00 0.00000E+00 0.00000E+00 0.00000E+00 0.00000E+00 0.00000E+00 0.00000E+00 0.00000E+00 0.00000E+00 1.73630E-03 1.76750E-03 0.00000E+00
       18  0.00000E+00 0.00000E+00 0.00000E+00 0.00000E+00 0.00000E+00 0.00000E+00 0.00000E+00 0.00000E+00 0.00000E+00 9.20131E-04 2.19110E-03 0.00000E+00
       19  0.00000E+00 0.00000E+00 0.00000E+00 0.00000E+00 0.00000E+00 0.00000E+00 0.00000E+00 0.00000E+00 0.00000E+00 2.16330E-03 9.50859E-04 0.00000E+00
      105  0.00000E+00 0.00000E+00 0.00000E+00 0.00000E+00 0.00000E+00 0.00000E+00 0.00000E+00 0.00000E+00 0.00000E+00 1.28740E-03 3.06620E-03 1.01600E-02
      106  0.00000E+00 0.00000E+00 0.00000E+00 0.00000E+00 0.00000E+00 0.00000E+00 0.00000E+00 0.00000E+00 0.00000E+00 2.43000E-03 2.47360E-03 1.01600E-02
      107  0.00000E+00 0.00000E+00 0.00000E+00 0.00000E+00 0.00000E+00 0.00000E+00 0.00000E+00 0.00000E+00 0.00000E+00 3.14300E-03 3.14320E-03 1.01600E-02
      108  0.00000E+00 0.00000E+00 0.00000E+00 0.00000E+00 0.00000E+00 0.00000E+00 0.00000E+00 0.00000E+00 0.00000E+00 1.70080E-03 4.10680E-03 1.01600E-02
      137  0.00000E+00 0.00000E+00 0.00000E+00 0.00000E+00 0.00000E+00 0.00000E+00 0.00000E+00 0.00000E+00 0.00000E+00 4.10670E-03 1.70080E-03 1.01600E-02
      138  0.00000E+00 0.00000E+00 0.00000E+00 0.00000E+00 0.00000E+00 0.00000E+00 0.00000E+00 0.00000E+00 0.00000E+00 3.02720E-03 1.33050E-03 1.01600E-02
      139  0.00000E+00 0.00000E+00 0.00000E+00 0.00000E+00 0.00000E+00 0.00000E+00 0.00000E+00 0.00000E+00 0.00000E+00 3.33380E-03 0.00000E+00 1.01600E-02
      140  0.00000E+00 0.00000E+00 0.00000E+00 0.00000E+00 0.00000E+00 0.00000E+00 0.00000E+00 0.00000E+00 0.00000E+00 4.44500E-03 0.00000E+00 1.01600E-02
      162  0.00000E+00 0.00000E+00 0.00000E+00 0.00000E+00 0.00000E+00 0.00000E+00 0.00000E+00 0.00000E+00 0.00000E+00 1.36100E-19 2.22250E-03 1.01600E-02
      163  0.00000E+00 0.00000E+00 0.00000E+00 0.00000E+00 0.00000E+00 0.00000E+00 0.00000E+00 0.00000E+00 0.00000E+00 9.36731E-04 2.10870E-03 1.01600E-02
      164  0.00000E+00 0.00000E+00 0.00000E+00 0.00000E+00 0.00000E+00 0.00000E+00 0.00000E+00 0.00000E+00 0.00000E+00 2.04100E-19 3.33380E-03 1.01600E-02
      179  0.00000E+00 0.00000E+00 0.00000E+00 0.00000E+00 0.00000E+00 0.00000E+00 0.00000E+00 0.00000E+00 0.00000E+00 1.05430E-03 1.09450E-03 1.01600E-02
      180  0.00000E+00 0.00000E+00 0.00000E+00 0.00000E+00 0.00000E+00 0.00000E+00 0.00000E+00 0.00000E+00 0.00000E+00 6.80400E-20 1.11130E-03 1.01600E-02
      188  0.00000E+00 0.00000E+00 0.00000E+00 0.00000E+00 0.00000E+00 0.00000E+00 0.00000E+00 0.00000E+00 0.00000E+00 1.83090E-03 1.89190E-03 1.01600E-02
      210  0.00000E+00 0.00000E+00 0.00000E+00 0.00000E+00 0.00000E+00 0.00000E+00 0.00000E+00 0.00000E+00 0.00000E+00 2.22250E-03 0.00000E+00 1.01600E-02
      211  0.00000E+00 0.00000E+00 0.00000E+00 0.00000E+00 0.00000E+00 0.00000E+00 0.00000E+00 0.00000E+00 0.00000E+00 2.08260E-03 9.89152E-04 1.01600E-02
      212  0.00000E+00 0.00000E+00 0.00000E+00 0.00000E+00 0.00000E+00 0.00000E+00 0.00000E+00 0.00000E+00 0.00000E+00 1.11130E-03 0.00000E+00 1.01600E-02
      220  0.00000E+00 0.00000E+00 0.00000E+00 0.00000E+00 0.00000E+00 0.00000E+00 0.00000E+00 0.00000E+00 0.00000E+00 0.00000E+00 0.00000E+00 1.01600E-02
      228  0.00000E+00 0.00000E+00 0.00000E+00 0.00000E+00 0.00000E+00 0.00000E+00 0.00000E+00 0.00000E+00 0.00000E+00 2.72200E-19 4.44500E-03 1.01600E-02
      787  0.00000E+00 0.00000E+00 0.00000E+00 0.00000E+00 0.00000E+00 0.00000E+00 0.00000E+00 0.00000E+00 0.00000E+00 3.35400E-19 5.47690E-03 1.01600E-02
      788  0.00000E+00 0.00000E+00 0.00000E+00 0.00000E+00 0.00000E+00 0.00000E+00 0.00000E+00 0.00000E+00 0.00000E+00 3.98500E-19 6.50880E-03 1.01600E-02
      789  0.00000E+00 0.00000E+00 0.00000E+00 0.00000E+00 0.00000E+00 0.00000E+00 0.00000E+00 0.00000E+00 0.00000E+00 4.61700E-19 7.54060E-03 1.01600E-02
      790  0.00000E+00 0.00000E+00 0.00000E+00 0.00000E+00 0.00000E+00 0.00000E+00 0.00000E+00 0.00000E+00 0.00000E+00 5.24900E-19 8.57250E-03 1.01600E-02
      791  0.00000E+00 0.00000E+00 0.00000E+00 0.00000E+00 0.00000E+00 0.00000E+00 0.00000E+00 0.00000E+00 0.00000E+00 5.88100E-19 9.60440E-03 1.01600E-02
      792  0.00000E+00 0.00000E+00 0.00000E+00 0.00000E+00 0.00000E+00 0.00000E+00 0.00000E+00 0.00000E+00 0.00000E+00 6.51300E-19 1.06363E-02 1.01600E-02
      793  0.00000E+00 0.00000E+00 0.00000E+00 0.00000E+00 0.00000E+00 0.00000E+00 0.00000E+00 0.00000E+00 0.00000E+00 7.14500E-19 1.16681E-02 1.01600E-02
      794  0.00000E+00 0.00000E+00 0.00000E+00 0.00000E+00 0.00000E+00 0.00000E+00 0.00000E+00 0.00000E+00 0.00000E+00 7.77700E-19 1.27000E-02 1.01600E-02
      955  0.00000E+00 0.00000E+00 0.00000E+00 0.00000E+00 0.00000E+00 0.00000E+00 0.00000E+00 0.00000E+00 0.00000E+00 3.24950E-03 7.93270E-03 1.01600E-02
      956  0.00000E+00 0.00000E+00 0.00000E+00 0.00000E+00 0.00000E+00 0.00000E+00 0.00000E+00 0.00000E+00 0.00000E+00 3.63660E-03 8.88920E-03 1.01600E-02
      957  0.00000E+00 0.00000E+00 0.00000E+00 0.00000E+00 0.00000E+00 0.00000E+00 0.00000E+00 0.00000E+00 0.00000E+00 6.06600E-03 6.05740E-03 1.01600E-02
      958  0.00000E+00 0.00000E+00 0.00000E+00 0.00000E+00 0.00000E+00 0.00000E+00 0.00000E+00 0.00000E+00 0.00000E+00 6.79670E-03 6.78600E-03 1.01600E-02
      959  0.00000E+00 0.00000E+00 0.00000E+00 0.00000E+00 0.00000E+00 0.00000E+00 0.00000E+00 0.00000E+00 0.00000E+00 7.92980E-03 3.25680E-03 1.01600E-02
      960  0.00000E+00 0.00000E+00 0.00000E+00 0.00000E+00 0.00000E+00 0.00000E+00 0.00000E+00 0.00000E+00 0.00000E+00 8.88550E-03 3.64580E-03 1.01600E-02
      961  0.00000E+00 0.00000E+00 0.00000E+00 0.00000E+00 0.00000E+00 0.00000E+00 0.00000E+00 0.00000E+00 0.00000E+00 8.57250E-03 0.00000E+00 1.01600E-02
      962  0.00000E+00 0.00000E+00 0.00000E+00 0.00000E+00 0.00000E+00 0.00000E+00 0.00000E+00 0.00000E+00 0.00000E+00 9.60440E-03 0.00000E+00 1.01600E-02
      975  0.00000E+00 0.00000E+00 0.00000E+00 0.00000E+00 0.00000E+00 0.00000E+00 0.00000E+00 0.00000E+00 0.00000E+00 4.41090E-03 1.08023E-02 1.01600E-02
      977  0.00000E+00 0.00000E+00 0.00000E+00 0.00000E+00 0.00000E+00 0.00000E+00 0.00000E+00 0.00000E+00 0.00000E+00 4.79810E-03 1.17588E-02 1.01600E-02
      978  0.00000E+00 0.00000E+00 0.00000E+00 0.00000E+00 0.00000E+00 0.00000E+00 0.00000E+00 0.00000E+00 0.00000E+00 8.25800E-03 8.24320E-03 1.01600E-02
      980  0.00000E+00 0.00000E+00 0.00000E+00 0.00000E+00 0.00000E+00 0.00000E+00 0.00000E+00 0.00000E+00 0.00000E+00 8.98870E-03 8.97180E-03 1.01600E-02
      981  0.00000E+00 0.00000E+00 0.00000E+00 0.00000E+00 0.00000E+00 0.00000E+00 0.00000E+00 0.00000E+00 0.00000E+00 1.07969E-02 4.42390E-03 1.01600E-02
      983  0.00000E+00 0.00000E+00 0.00000E+00 0.00000E+00 0.00000E+00 0.00000E+00 0.00000E+00 0.00000E+00 0.00000E+00 1.17527E-02 4.81300E-03 1.01600E-02
      984  0.00000E+00 0.00000E+00 0.00000E+00 0.00000E+00 0.00000E+00 0.00000E+00 0.00000E+00 0.00000E+00 0.00000E+00 1.16681E-02 0.00000E+00 1.01600E-02
      986  0.00000E+00 0.00000E+00 0.00000E+00 0.00000E+00 0.00000E+00 0.00000E+00 0.00000E+00 0.00000E+00 0.00000E+00 1.27000E-02 0.00000E+00 1.01600E-02
     1059  0.00000E+00 0.00000E+00 0.00000E+00 0.00000E+00 0.00000E+00 0.00000E+00 0.00000E+00 0.00000E+00 0.00000E+00 2.86230E-03 6.97620E-03 1.01600E-02
     1061  0.00000E+00 0.00000E+00 0.00000E+00 0.00000E+00 0.00000E+00 0.00000E+00 0.00000E+00 0.00000E+00 0.00000E+00 5.33520E-03 5.32880E-03 1.01600E-02
     1063  0.00000E+00 0.00000E+00 0.00000E+00 0.00000E+00 0.00000E+00 0.00000E+00 0.00000E+00 0.00000E+00 0.00000E+00 6.97400E-03 2.86770E-03 1.01600E-02
     1065  0.00000E+00 0.00000E+00 0.00000E+00 0.00000E+00 0.00000E+00 0.00000E+00 0.00000E+00 0.00000E+00 0.00000E+00 7.54060E-03 0.00000E+00 1.01600E-02
     1071  0.00000E+00 0.00000E+00 0.00000E+00 0.00000E+00 0.00000E+00 0.00000E+00 0.00000E+00 0.00000E+00 0.00000E+00 4.02380E-03 9.84570E-03 1.01600E-02
     1072  0.00000E+00 0.00000E+00 0.00000E+00 0.00000E+00 0.00000E+00 0.00000E+00 0.00000E+00 0.00000E+00 0.00000E+00 7.52740E-03 7.51460E-03 1.01600E-02
     1073  0.00000E+00 0.00000E+00 0.00000E+00 0.00000E+00 0.00000E+00 0.00000E+00 0.00000E+00 0.00000E+00 0.00000E+00 9.84120E-03 4.03480E-03 1.01600E-02
     1074  0.00000E+00 0.00000E+00 0.00000E+00 0.00000E+00 0.00000E+00 0.00000E+00 0.00000E+00 0.00000E+00 0.00000E+00 1.06363E-02 0.00000E+00 1.01600E-02
     1111  0.00000E+00 0.00000E+00 0.00000E+00 0.00000E+00 0.00000E+00 0.00000E+00 0.00000E+00 0.00000E+00 0.00000E+00 2.47510E-03 6.01970E-03 1.01600E-02
     1112  0.00000E+00 0.00000E+00 0.00000E+00 0.00000E+00 0.00000E+00 0.00000E+00 0.00000E+00 0.00000E+00 0.00000E+00 4.60450E-03 4.60030E-03 1.01600E-02
     1113  0.00000E+00 0.00000E+00 0.00000E+00 0.00000E+00 0.00000E+00 0.00000E+00 0.00000E+00 0.00000E+00 0.00000E+00 6.01830E-03 2.47880E-03 1.01600E-02
     1114  0.00000E+00 0.00000E+00 0.00000E+00 0.00000E+00 0.00000E+00 0.00000E+00 0.00000E+00 0.00000E+00 0.00000E+00 6.50880E-03 0.00000E+00 1.01600E-02
     1135  0.00000E+00 0.00000E+00 0.00000E+00 0.00000E+00 0.00000E+00 0.00000E+00 0.00000E+00 0.00000E+00 0.00000E+00 2.08800E-03 5.06320E-03 1.01600E-02
     1136  0.00000E+00 0.00000E+00 0.00000E+00 0.00000E+00 0.00000E+00 0.00000E+00 0.00000E+00 0.00000E+00 0.00000E+00 3.87380E-03 3.87170E-03 1.01600E-02
     1137  0.00000E+00 0.00000E+00 0.00000E+00 0.00000E+00 0.00000E+00 0.00000E+00 0.00000E+00 0.00000E+00 0.00000E+00 5.06250E-03 2.08980E-03 1.01600E-02
     1138  0.00000E+00 0.00000E+00 0.00000E+00 0.00000E+00 0.00000E+00 0.00000E+00 0.00000E+00 0.00000E+00 0.00000E+00 5.47690E-03 0.00000E+00 1.01600E-02



 n o d a l   p r i n t   o u t   f o r   t i m e  s t e p      10                              ( at time 1.2924466E+00 )

 nodal point  x-disp     y-disp      z-disp      x-vel       y-vel       z-vel      x-accl      y-accl      z-accl      x-coor      y-coor      z-coor
        1  1.53992E-06 0.00000E+00 0.00000E+00 0.00000E+00 0.00000E+00 0.00000E+00 0.00000E+00 0.00000E+00 0.00000E+00 3.17654E-03 0.00000E+00-8.88000E-19
        2  5.84446E-07 0.00000E+00 0.00000E+00 0.00000E+00 0.00000E+00 0.00000E+00 0.00000E+00 0.00000E+00 0.00000E+00 2.38188E-03 0.00000E+00 0.00000E+00
        3  2.26488E-07 0.00000E+00 0.00000E+00 0.00000E+00 0.00000E+00 0.00000E+00 0.00000E+00 0.00000E+00 0.00000E+00 1.58773E-03 0.00000E+00 0.00000E+00
        4  8.10575E-08 0.00000E+00 0.00000E+00 0.00000E+00 0.00000E+00 0.00000E+00 0.00000E+00 0.00000E+00 0.00000E+00 7.93831E-04 0.00000E+00 0.00000E+00
        5  0.00000E+00 0.00000E+00 0.00000E+00 0.00000E+00 0.00000E+00 0.00000E+00 0.00000E+00 0.00000E+00 0.00000E+00 0.00000E+00 0.00000E+00 0.00000E+00
        6  0.00000E+00 2.81354E-08 0.00000E+00 0.00000E+00 0.00000E+00 0.00000E+00 0.00000E+00 0.00000E+00 0.00000E+00 4.86000E-20 7.93778E-04 0.00000E+00
        7  0.00000E+00 1.35547E-07 0.00000E+00 0.00000E+00 0.00000E+00 0.00000E+00 0.00000E+00 0.00000E+00 0.00000E+00 9.72100E-20 1.58764E-03 0.00000E+00
        8  0.00000E+00 6.00222E-07 0.00000E+00 0.00000E+00 0.00000E+00 0.00000E+00 0.00000E+00 0.00000E+00 0.00000E+00 1.45800E-19 2.38190E-03 0.00000E+00
        9  0.00000E+00 1.72569E-06 0.00000E+00 0.00000E+00 0.00000E+00 0.00000E+00 0.00000E+00 0.00000E+00 0.00000E+00 1.94400E-19 3.17673E-03 0.00000E+00
       10  6.46137E-07 1.87179E-06 0.00000E+00 0.00000E+00 0.00000E+00 0.00000E+00 0.00000E+00 0.00000E+00 0.00000E+00 1.21565E-03 2.93517E-03 0.00000E+00
       11  1.24600E-06 1.68010E-06 0.00000E+00 0.00000E+00 0.00000E+00 0.00000E+00 0.00000E+00 0.00000E+00 0.00000E+00 2.24635E-03 2.24678E-03 0.00000E+00
       12  1.45616E-06 9.33314E-07 0.00000E+00 0.00000E+00 0.00000E+00 0.00000E+00 0.00000E+00 0.00000E+00 0.00000E+00 2.93476E-03 1.21593E-03 0.00000E+00
       13  4.46325E-07 4.01057E-07 0.00000E+00 0.00000E+00 0.00000E+00 0.00000E+00 0.00000E+00 0.00000E+00 0.00000E+00 1.30875E-03 1.35230E-03 0.00000E+00
       14  2.51724E-07 1.57370E-07 0.00000E+00 0.00000E+00 0.00000E+00 0.00000E+00 0.00000E+00 0.00000E+00 0.00000E+00 1.48855E-03 7.07134E-04 0.00000E+00
       15  2.12950E-07 3.79730E-07 0.00000E+00 0.00000E+00 0.00000E+00 0.00000E+00 0.00000E+00 0.00000E+00 0.00000E+00 6.69723E-04 1.50738E-03 0.00000E+00
       16  1.08918E-07 1.67684E-07 0.00000E+00 0.00000E+00 0.00000E+00 0.00000E+00 0.00000E+00 0.00000E+00 0.00000E+00 7.53747E-04 7.82505E-04 0.00000E+00
       17  7.84574E-07 6.88418E-07 0.00000E+00 0.00000E+00 0.00000E+00 0.00000E+00 0.00000E+00 0.00000E+00 0.00000E+00 1.73708E-03 1.76819E-03 0.00000E+00
       18  4.20684E-07 7.58809E-07 0.00000E+00 0.00000E+00 0.00000E+00 0.00000E+00 0.00000E+00 0.00000E+00 0.00000E+00 9.20551E-04 2.19186E-03 0.00000E+00
       19  5.97554E-07 2.57649E-07 0.00000E+00 0.00000E+00 0.00000E+00 0.00000E+00 0.00000E+00 0.00000E+00 0.00000E+00 2.16390E-03 9.51116E-04 0.00000E+00
      105  3.85074E-07 9.07941E-07-1.29245E-05 0.00000E+00 0.00000E+00 0.00000E+00 0.00000E+00 0.00000E+00 0.00000E+00 1.28779E-03 3.06711E-03 1.01471E-02
      106  7.50273E-07 8.26730E-07-1.29245E-05 0.00000E+00 0.00000E+00 0.00000E+00 0.00000E+00 0.00000E+00 0.00000E+00 2.43075E-03 2.47443E-03 1.01471E-02
      107  8.78412E-07 9.39712E-07-1.29245E-05 0.00000E+00 0.00000E+00 0.00000E+00 0.00000E+00 0.00000E+00 0.00000E+00 3.14388E-03 3.14414E-03 1.01471E-02
      108  4.67895E-07 1.23929E-06-1.29245E-05 0.00000E+00 0.00000E+00 0.00000E+00 0.00000E+00 0.00000E+00 0.00000E+00 1.70127E-03 4.10804E-03 1.01471E-02
      137  1.15371E-06 5.23893E-07-1.29245E-05 0.00000E+00 0.00000E+00 0.00000E+00 0.00000E+00 0.00000E+00 0.00000E+00 4.10785E-03 1.70132E-03 1.01471E-02
      138  8.52930E-07 4.51275E-07-1.29245E-05 0.00000E+00 0.00000E+00 0.00000E+00 0.00000E+00 0.00000E+00 0.00000E+00 3.02805E-03 1.33095E-03 1.01471E-02
      139  1.03924E-06 0.00000E+00-1.29245E-05 0.00000E+00 0.00000E+00 0.00000E+00 0.00000E+00 0.00000E+00 0.00000E+00 3.33484E-03 0.00000E+00 1.01471E-02
      140  1.24934E-06 0.00000E+00-1.29245E-05 0.00000E+00 0.00000E+00 0.00000E+00 0.00000E+00 0.00000E+00 0.00000E+00 4.44625E-03 0.00000E+00 1.01471E-02
      162  0.00000E+00 8.09765E-07-1.29245E-05 0.00000E+00 0.00000E+00 0.00000E+00 0.00000E+00 0.00000E+00 0.00000E+00 1.36100E-19 2.22331E-03 1.01471E-02
      163  2.48964E-07 6.95420E-07-1.29245E-05 0.00000E+00 0.00000E+00 0.00000E+00 0.00000E+00 0.00000E+00 0.00000E+00 9.36980E-04 2.10940E-03 1.01471E-02
      164  0.00000E+00 1.14848E-06-1.29245E-05 0.00000E+00 0.00000E+00 0.00000E+00 0.00000E+00 0.00000E+00 0.00000E+00 2.04100E-19 3.33495E-03 1.01471E-02
      179  3.76986E-07 4.53559E-07-1.29245E-05 0.00000E+00 0.00000E+00 0.00000E+00 0.00000E+00 0.00000E+00 0.00000E+00 1.05468E-03 1.09495E-03 1.01471E-02
      180  0.00000E+00 4.32541E-07-1.29245E-05 0.00000E+00 0.00000E+00 0.00000E+00 0.00000E+00 0.00000E+00 0.00000E+00 6.80400E-20 1.11173E-03 1.01471E-02
      188  5.62038E-07 6.43044E-07-1.29245E-05 0.00000E+00 0.00000E+00 0.00000E+00 0.00000E+00 0.00000E+00 0.00000E+00 1.83146E-03 1.89254E-03 1.01471E-02
      210  7.25963E-07 0.00000E+00-1.29245E-05 0.00000E+00 0.00000E+00 0.00000E+00 0.00000E+00 0.00000E+00 0.00000E+00 2.22323E-03 0.00000E+00 1.01471E-02
      211  6.51954E-07 2.87620E-07-1.29245E-05 0.00000E+00 0.00000E+00 0.00000E+00 0.00000E+00 0.00000E+00 0.00000E+00 2.08325E-03 9.89439E-04 1.01471E-02
      212  3.80217E-07 0.00000E+00-1.29245E-05 0.00000E+00 0.00000E+00 0.00000E+00 0.00000E+00 0.00000E+00 0.00000E+00 1.11168E-03 0.00000E+00 1.01471E-02
      220  0.00000E+00 0.00000E+00-1.29245E-05 0.00000E+00 0.00000E+00 0.00000E+00 0.00000E+00 0.00000E+00 0.00000E+00 0.00000E+00 0.00000E+00 1.01471E-02
      228  0.00000E+00 1.40206E-06-1.29245E-05 0.00000E+00 0.00000E+00 0.00000E+00 0.00000E+00 0.00000E+00 0.00000E+00 2.72200E-19 4.44640E-03 1.01471E-02
      787  0.00000E+00 1.51698E-06-1.29245E-05 0.00000E+00 0.00000E+00 0.00000E+00 0.00000E+00 0.00000E+00 0.00000E+00 3.35400E-19 5.47842E-03 1.01471E-02
      788  0.00000E+00 1.57102E-06-1.29245E-05 0.00000E+00 0.00000E+00 0.00000E+00 0.00000E+00 0.00000E+00 0.00000E+00 3.98500E-19 6.51037E-03 1.01471E-02
      789  0.00000E+00 1.57303E-06-1.29245E-05 0.00000E+00 0.00000E+00 0.00000E+00 0.00000E+00 0.00000E+00 0.00000E+00 4.61700E-19 7.54217E-03 1.01471E-02
      790  0.00000E+00 1.53937E-06-1.29245E-05 0.00000E+00 0.00000E+00 0.00000E+00 0.00000E+00 0.00000E+00 0.00000E+00 5.24900E-19 8.57404E-03 1.01471E-02
      791  0.00000E+00 1.48587E-06-1.29245E-05 0.00000E+00 0.00000E+00 0.00000E+00 0.00000E+00 0.00000E+00 0.00000E+00 5.88100E-19 9.60589E-03 1.01471E-02
      792  0.00000E+00 1.42364E-06-1.29245E-05 0.00000E+00 0.00000E+00 0.00000E+00 0.00000E+00 0.00000E+00 0.00000E+00 6.51300E-19 1.06377E-02 1.01471E-02
      793  0.00000E+00 1.35792E-06-1.29245E-05 0.00000E+00 0.00000E+00 0.00000E+00 0.00000E+00 0.00000E+00 0.00000E+00 7.14500E-19 1.16695E-02 1.01471E-02
      794  0.00000E+00 1.28065E-06-1.29245E-05 0.00000E+00 0.00000E+00 0.00000E+00 0.00000E+00 0.00000E+00 0.00000E+00 7.77700E-19 1.27013E-02 1.01471E-02
      955  5.50183E-07 1.41739E-06-1.29245E-05 0.00000E+00 0.00000E+00 0.00000E+00 0.00000E+00 0.00000E+00 0.00000E+00 3.25005E-03 7.93412E-03 1.01471E-02
      956  5.35096E-07 1.37519E-06-1.29245E-05 0.00000E+00 0.00000E+00 0.00000E+00 0.00000E+00 0.00000E+00 0.00000E+00 3.63714E-03 8.89058E-03 1.01471E-02
      957  1.04188E-06 1.08795E-06-1.29245E-05 0.00000E+00 0.00000E+00 0.00000E+00 0.00000E+00 0.00000E+00 0.00000E+00 6.06704E-03 6.05849E-03 1.01471E-02
      958  1.01609E-06 1.05649E-06-1.29245E-05 0.00000E+00 0.00000E+00 0.00000E+00 0.00000E+00 0.00000E+00 0.00000E+00 6.79772E-03 6.78706E-03 1.01471E-02
      959  1.36955E-06 5.91105E-07-1.29245E-05 0.00000E+00 0.00000E+00 0.00000E+00 0.00000E+00 0.00000E+00 0.00000E+00 7.93117E-03 3.25739E-03 1.01471E-02
      960  1.34030E-06 5.65207E-07-1.29245E-05 0.00000E+00 0.00000E+00 0.00000E+00 0.00000E+00 0.00000E+00 0.00000E+00 8.88684E-03 3.64637E-03 1.01471E-02
      961  1.48613E-06 0.00000E+00-1.29245E-05 0.00000E+00 0.00000E+00 0.00000E+00 0.00000E+00 0.00000E+00 0.00000E+00 8.57399E-03 0.00000E+00 1.01471E-02
      962  1.45339E-06 0.00000E+00-1.29245E-05 0.00000E+00 0.00000E+00 0.00000E+00 0.00000E+00 0.00000E+00 0.00000E+00 9.60585E-03 0.00000E+00 1.01471E-02
      975  4.98586E-07 1.28690E-06-1.29245E-05 0.00000E+00 0.00000E+00 0.00000E+00 0.00000E+00 0.00000E+00 0.00000E+00 4.41140E-03 1.08036E-02 1.01471E-02
      977  4.80547E-07 1.25166E-06-1.29245E-05 0.00000E+00 0.00000E+00 0.00000E+00 0.00000E+00 0.00000E+00 0.00000E+00 4.79858E-03 1.17601E-02 1.01471E-02
      978  9.52368E-07 9.91817E-07-1.29245E-05 0.00000E+00 0.00000E+00 0.00000E+00 0.00000E+00 0.00000E+00 0.00000E+00 8.25895E-03 8.24419E-03 1.01471E-02
      980  9.05291E-07 9.36013E-07-1.29245E-05 0.00000E+00 0.00000E+00 0.00000E+00 0.00000E+00 0.00000E+00 0.00000E+00 8.98961E-03 8.97274E-03 1.01471E-02
      981  1.25410E-06 5.00835E-07-1.29245E-05 0.00000E+00 0.00000E+00 0.00000E+00 0.00000E+00 0.00000E+00 0.00000E+00 1.07982E-02 4.42440E-03 1.01471E-02
      983  1.19643E-06 4.79984E-07-1.29245E-05 0.00000E+00 0.00000E+00 0.00000E+00 0.00000E+00 0.00000E+00 0.00000E+00 1.17539E-02 4.81348E-03 1.01471E-02
      984  1.34784E-06 0.00000E+00-1.29245E-05 0.00000E+00 0.00000E+00 0.00000E+00 0.00000E+00 0.00000E+00 0.00000E+00 1.16694E-02 0.00000E+00 1.01471E-02
      986  1.31072E-06 0.00000E+00-1.29245E-05 0.00000E+00 0.00000E+00 0.00000E+00 0.00000E+00 0.00000E+00 0.00000E+00 1.27013E-02 0.00000E+00 1.01471E-02
     1059  5.56702E-07 1.44251E-06-1.29245E-05 0.00000E+00 0.00000E+00 0.00000E+00 0.00000E+00 0.00000E+00 0.00000E+00 2.86286E-03 6.97764E-03 1.01471E-02
     1061  1.05172E-06 1.10661E-06-1.29245E-05 0.00000E+00 0.00000E+00 0.00000E+00 0.00000E+00 0.00000E+00 0.00000E+00 5.33625E-03 5.32991E-03 1.01471E-02
     1063  1.37688E-06 6.06460E-07-1.29245E-05 0.00000E+00 0.00000E+00 0.00000E+00 0.00000E+00 0.00000E+00 0.00000E+00 6.97538E-03 2.86831E-03 1.01471E-02
     1065  1.49344E-06 0.00000E+00-1.29245E-05 0.00000E+00 0.00000E+00 0.00000E+00 0.00000E+00 0.00000E+00 0.00000E+00 7.54209E-03 0.00000E+00 1.01471E-02
     1071  5.16637E-07 1.32890E-06-1.29245E-05 0.00000E+00 0.00000E+00 0.00000E+00 0.00000E+00 0.00000E+00 0.00000E+00 4.02432E-03 9.84703E-03 1.01471E-02
     1072  9.83890E-07 1.02254E-06-1.29245E-05 0.00000E+00 0.00000E+00 0.00000E+00 0.00000E+00 0.00000E+00 0.00000E+00 7.52838E-03 7.51562E-03 1.01471E-02
     1073  1.29955E-06 5.34136E-07-1.29245E-05 0.00000E+00 0.00000E+00 0.00000E+00 0.00000E+00 0.00000E+00 0.00000E+00 9.84250E-03 4.03533E-03 1.01471E-02
     1074  1.40524E-06 0.00000E+00-1.29245E-05 0.00000E+00 0.00000E+00 0.00000E+00 0.00000E+00 0.00000E+00 0.00000E+00 1.06377E-02 0.00000E+00 1.01471E-02
     1111  5.48574E-07 1.43401E-06-1.29245E-05 0.00000E+00 0.00000E+00 0.00000E+00 0.00000E+00 0.00000E+00 0.00000E+00 2.47565E-03 6.02113E-03 1.01471E-02
     1112  1.03519E-06 1.09981E-06-1.29245E-05 0.00000E+00 0.00000E+00 0.00000E+00 0.00000E+00 0.00000E+00 0.00000E+00 4.60554E-03 4.60140E-03 1.01471E-02
     1113  1.34971E-06 6.04763E-07-1.29245E-05 0.00000E+00 0.00000E+00 0.00000E+00 0.00000E+00 0.00000E+00 0.00000E+00 6.01965E-03 2.47940E-03 1.01471E-02
     1114  1.46226E-06 0.00000E+00-1.29245E-05 0.00000E+00 0.00000E+00 0.00000E+00 0.00000E+00 0.00000E+00 0.00000E+00 6.51026E-03 0.00000E+00 1.01471E-02
     1135  5.19958E-07 1.37402E-06-1.29245E-05 0.00000E+00 0.00000E+00 0.00000E+00 0.00000E+00 0.00000E+00 0.00000E+00 2.08852E-03 5.06457E-03 1.01471E-02
     1136  9.80174E-07 1.05175E-06-1.29245E-05 0.00000E+00 0.00000E+00 0.00000E+00 0.00000E+00 0.00000E+00 0.00000E+00 3.87478E-03 3.87275E-03 1.01471E-02
     1137  1.27819E-06 5.80971E-07-1.29245E-05 0.00000E+00 0.00000E+00 0.00000E+00 0.00000E+00 0.00000E+00 0.00000E+00 5.06378E-03 2.09038E-03 1.01471E-02
     1138  1.38108E-06 0.00000E+00-1.29245E-05 0.00000E+00 0.00000E+00 0.00000E+00 0.00000E+00 0.00000E+00 0.00000E+00 5.47828E-03 0.00000E+00 1.01471E-02



 n o d a l   p r i n t   o u t   f o r   t i m e  s t e p      14                              ( at time 2.5483898E+00 )

 nodal point  x-disp     y-disp      z-disp      x-vel       y-vel       z-vel      x-accl      y-accl      z-accl      x-coor      y-coor      z-coor
        1  4.08182E-06 0.00000E+00 0.00000E+00 0.00000E+00 0.00000E+00 0.00000E+00 0.00000E+00 0.00000E+00 0.00000E+00 3.17908E-03 0.00000E+00-8.88000E-19
        2  1.42243E-06 0.00000E+00 0.00000E+00 0.00000E+00 0.00000E+00 0.00000E+00 0.00000E+00 0.00000E+00 0.00000E+00 2.38272E-03 0.00000E+00 0.00000E+00
        3  4.52138E-07 0.00000E+00 0.00000E+00 0.00000E+00 0.00000E+00 0.00000E+00 0.00000E+00 0.00000E+00 0.00000E+00 1.58795E-03 0.00000E+00 0.00000E+00
        4  1.42792E-07 0.00000E+00 0.00000E+00 0.00000E+00 0.00000E+00 0.00000E+00 0.00000E+00 0.00000E+00 0.00000E+00 7.93893E-04 0.00000E+00 0.00000E+00
        5  0.00000E+00 0.00000E+00 0.00000E+00 0.00000E+00 0.00000E+00 0.00000E+00 0.00000E+00 0.00000E+00 0.00000E+00 0.00000E+00 0.00000E+00 0.00000E+00
        6  0.00000E+00 3.40607E-08 0.00000E+00 0.00000E+00 0.00000E+00 0.00000E+00 0.00000E+00 0.00000E+00 0.00000E+00 4.86000E-20 7.93784E-04 0.00000E+00
        7  0.00000E+00 3.03584E-07 0.00000E+00 0.00000E+00 0.00000E+00 0.00000E+00 0.00000E+00 0.00000E+00 0.00000E+00 9.72100E-20 1.58780E-03 0.00000E+00
        8  0.00000E+00 1.50245E-06 0.00000E+00 0.00000E+00 0.00000E+00 0.00000E+00 0.00000E+00 0.00000E+00 0.00000E+00 1.45800E-19 2.38280E-03 0.00000E+00
        9  0.00000E+00 4.39797E-06 0.00000E+00 0.00000E+00 0.00000E+00 0.00000E+00 0.00000E+00 0.00000E+00 0.00000E+00 1.94400E-19 3.17940E-03 0.00000E+00
       10  1.83405E-06 4.82076E-06 0.00000E+00 0.00000E+00 0.00000E+00 0.00000E+00 0.00000E+00 0.00000E+00 0.00000E+00 1.21683E-03 2.93812E-03 0.00000E+00
       11  3.38471E-06 4.24618E-06 0.00000E+00 0.00000E+00 0.00000E+00 0.00000E+00 0.00000E+00 0.00000E+00 0.00000E+00 2.24848E-03 2.24935E-03 0.00000E+00
       12  3.94948E-06 2.37879E-06 0.00000E+00 0.00000E+00 0.00000E+00 0.00000E+00 0.00000E+00 0.00000E+00 0.00000E+00 2.93725E-03 1.21738E-03 0.00000E+00
       13  1.09637E-06 1.01939E-06 0.00000E+00 0.00000E+00 0.00000E+00 0.00000E+00 0.00000E+00 0.00000E+00 0.00000E+00 1.30940E-03 1.35292E-03 0.00000E+00
       14  6.28151E-07 4.04974E-07 0.00000E+00 0.00000E+00 0.00000E+00 0.00000E+00 0.00000E+00 0.00000E+00 0.00000E+00 1.48893E-03 7.07382E-04 0.00000E+00
       15  5.29809E-07 9.48434E-07 0.00000E+00 0.00000E+00 0.00000E+00 0.00000E+00 0.00000E+00 0.00000E+00 0.00000E+00 6.70040E-04 1.50795E-03 0.00000E+00
       16  2.58625E-07 4.06354E-07 0.00000E+00 0.00000E+00 0.00000E+00 0.00000E+00 0.00000E+00 0.00000E+00 0.00000E+00 7.53896E-04 7.82744E-04 0.00000E+00
       17  1.90907E-06 1.87363E-06 0.00000E+00 0.00000E+00 0.00000E+00 0.00000E+00 0.00000E+00 0.00000E+00 0.00000E+00 1.73821E-03 1.76937E-03 0.00000E+00
       18  1.00158E-06 2.00102E-06 0.00000E+00 0.00000E+00 0.00000E+00 0.00000E+00 0.00000E+00 0.00000E+00 0.00000E+00 9.21132E-04 2.19310E-03 0.00000E+00
       19  1.54158E-06 7.83820E-07 0.00000E+00 0.00000E+00 0.00000E+00 0.00000E+00 0.00000E+00 0.00000E+00 0.00000E+00 2.16484E-03 9.51642E-04 0.00000E+00
      105  7.15227E-07 1.72998E-06-2.54839E-05 0.00000E+00 0.00000E+00 0.00000E+00 0.00000E+00 0.00000E+00 0.00000E+00 1.28812E-03 3.06793E-03 1.01345E-02
      106  1.41113E-06 1.60540E-06-2.54839E-05 0.00000E+00 0.00000E+00 0.00000E+00 0.00000E+00 0.00000E+00 0.00000E+00 2.43141E-03 2.47521E-03 1.01345E-02
      107  1.64751E-06 1.81872E-06-2.54839E-05 0.00000E+00 0.00000E+00 0.00000E+00 0.00000E+00 0.00000E+00 0.00000E+00 3.14465E-03 3.14502E-03 1.01345E-02
      108  8.68654E-07 2.37763E-06-2.54839E-05 0.00000E+00 0.00000E+00 0.00000E+00 0.00000E+00 0.00000E+00 0.00000E+00 1.70167E-03 4.10918E-03 1.01345E-02
      137  2.15372E-06 1.02612E-06-2.54839E-05 0.00000E+00 0.00000E+00 0.00000E+00 0.00000E+00 0.00000E+00 0.00000E+00 4.10885E-03 1.70183E-03 1.01345E-02
      138  1.58860E-06 8.83769E-07-2.54839E-05 0.00000E+00 0.00000E+00 0.00000E+00 0.00000E+00 0.00000E+00 0.00000E+00 3.02879E-03 1.33138E-03 1.01345E-02
      139  1.94550E-06 0.00000E+00-2.54839E-05 0.00000E+00 0.00000E+00 0.00000E+00 0.00000E+00 0.00000E+00 0.00000E+00 3.33575E-03 0.00000E+00 1.01345E-02
      140  2.33522E-06 0.00000E+00-2.54839E-05 0.00000E+00 0.00000E+00 0.00000E+00 0.00000E+00 0.00000E+00 0.00000E+00 4.44734E-03 0.00000E+00 1.01345E-02
      162  0.00000E+00 1.58906E-06-2.54839E-05 0.00000E+00 0.00000E+00 0.00000E+00 0.00000E+00 0.00000E+00 0.00000E+00 1.36100E-19 2.22409E-03 1.01345E-02
      163  4.63074E-07 1.33074E-06-2.54839E-05 0.00000E+00 0.00000E+00 0.00000E+00 0.00000E+00 0.00000E+00 0.00000E+00 9.37194E-04 2.11003E-03 1.01345E-02
      164  0.00000E+00 2.23808E-06-2.54839E-05 0.00000E+00 0.00000E+00 0.00000E+00 0.00000E+00 0.00000E+00 0.00000E+00 2.04100E-19 3.33604E-03 1.01345E-02
      179  7.00869E-07 8.84285E-07-2.54839E-05 0.00000E+00 0.00000E+00 0.00000E+00 0.00000E+00 0.00000E+00 0.00000E+00 1.05500E-03 1.09538E-03 1.01345E-02
      180  0.00000E+00 8.65090E-07-2.54839E-05 0.00000E+00 0.00000E+00 0.00000E+00 0.00000E+00 0.00000E+00 0.00000E+00 6.80400E-20 1.11217E-03 1.01345E-02
      188  1.04662E-06 1.25056E-06-2.54839E-05 0.00000E+00 0.00000E+00 0.00000E+00 0.00000E+00 0.00000E+00 0.00000E+00 1.83195E-03 1.89315E-03 1.01345E-02
      210  1.35117E-06 0.00000E+00-2.54839E-05 0.00000E+00 0.00000E+00 0.00000E+00 0.00000E+00 0.00000E+00 0.00000E+00 2.22385E-03 0.00000E+00 1.01345E-02
      211  1.21106E-06 5.72441E-07-2.54839E-05 0.00000E+00 0.00000E+00 0.00000E+00 0.00000E+00 0.00000E+00 0.00000E+00 2.08381E-03 9.89724E-04 1.01345E-02
      212  7.02289E-07 0.00000E+00-2.54839E-05 0.00000E+00 0.00000E+00 0.00000E+00 0.00000E+00 0.00000E+00 0.00000E+00 1.11200E-03 0.00000E+00 1.01345E-02
      220  0.00000E+00 0.00000E+00-2.54839E-05 0.00000E+00 0.00000E+00 0.00000E+00 0.00000E+00 0.00000E+00 0.00000E+00 0.00000E+00 0.00000E+00 1.01345E-02
      228  0.00000E+00 2.73039E-06-2.54839E-05 0.00000E+00 0.00000E+00 0.00000E+00 0.00000E+00 0.00000E+00 0.00000E+00 2.72200E-19 4.44773E-03 1.01345E-02
      787  0.00000E+00 2.93422E-06-2.54839E-05 0.00000E+00 0.00000E+00 0.00000E+00 0.00000E+00 0.00000E+00 0.00000E+00 3.35400E-19 5.47983E-03 1.01345E-02
      788  0.00000E+00 3.02022E-06-2.54839E-05 0.00000E+00 0.00000E+00 0.00000E+00 0.00000E+00 0.00000E+00 0.00000E+00 3.98500E-19 6.51182E-03 1.01345E-02
      789  0.00000E+00 3.00613E-06-2.54839E-05 0.00000E+00 0.00000E+00 0.00000E+00 0.00000E+00 0.00000E+00 0.00000E+00 4.61700E-19 7.54361E-03 1.01345E-02
      790  0.00000E+00 2.92583E-06-2.54839E-05 0.00000E+00 0.00000E+00 0.00000E+00 0.00000E+00 0.00000E+00 0.00000E+00 5.24900E-19 8.57543E-03 1.01345E-02
      791  0.00000E+00 2.81094E-06-2.54839E-05 0.00000E+00 0.00000E+00 0.00000E+00 0.00000E+00 0.00000E+00 0.00000E+00 5.88100E-19 9.60721E-03 1.01345E-02
      792  0.00000E+00 2.68220E-06-2.54839E-05 0.00000E+00 0.00000E+00 0.00000E+00 0.00000E+00 0.00000E+00 0.00000E+00 6.51300E-19 1.06390E-02 1.01345E-02
      793  0.00000E+00 2.54743E-06-2.54839E-05 0.00000E+00 0.00000E+00 0.00000E+00 0.00000E+00 0.00000E+00 0.00000E+00 7.14500E-19 1.16706E-02 1.01345E-02
      794  0.00000E+00 2.38817E-06-2.54839E-05 0.00000E+00 0.00000E+00 0.00000E+00 0.00000E+00 0.00000E+00 0.00000E+00 7.77700E-19 1.27024E-02 1.01345E-02
      955  1.02622E-06 2.68673E-06-2.54839E-05 0.00000E+00 0.00000E+00 0.00000E+00 0.00000E+00 0.00000E+00 0.00000E+00 3.25053E-03 7.93539E-03 1.01345E-02
      956  9.97737E-07 2.60056E-06-2.54839E-05 0.00000E+00 0.00000E+00 0.00000E+00 0.00000E+00 0.00000E+00 0.00000E+00 3.63760E-03 8.89180E-03 1.01345E-02
      957  1.95136E-06 2.07172E-06-2.54839E-05 0.00000E+00 0.00000E+00 0.00000E+00 0.00000E+00 0.00000E+00 0.00000E+00 6.06795E-03 6.05947E-03 1.01345E-02
      958  1.90468E-06 2.00893E-06-2.54839E-05 0.00000E+00 0.00000E+00 0.00000E+00 0.00000E+00 0.00000E+00 0.00000E+00 6.79860E-03 6.78801E-03 1.01345E-02
      959  2.56457E-06 1.14188E-06-2.54839E-05 0.00000E+00 0.00000E+00 0.00000E+00 0.00000E+00 0.00000E+00 0.00000E+00 7.93236E-03 3.25794E-03 1.01345E-02
      960  2.51232E-06 1.08846E-06-2.54839E-05 0.00000E+00 0.00000E+00 0.00000E+00 0.00000E+00 0.00000E+00 0.00000E+00 8.88801E-03 3.64689E-03 1.01345E-02
      961  2.78597E-06 0.00000E+00-2.54839E-05 0.00000E+00 0.00000E+00 0.00000E+00 0.00000E+00 0.00000E+00 0.00000E+00 8.57529E-03 0.00000E+00 1.01345E-02
      962  2.72588E-06 0.00000E+00-2.54839E-05 0.00000E+00 0.00000E+00 0.00000E+00 0.00000E+00 0.00000E+00 0.00000E+00 9.60713E-03 0.00000E+00 1.01345E-02
      975  9.30126E-07 2.43118E-06-2.54839E-05 0.00000E+00 0.00000E+00 0.00000E+00 0.00000E+00 0.00000E+00 0.00000E+00 4.41183E-03 1.08047E-02 1.01345E-02
      977  9.00204E-07 2.37940E-06-2.54839E-05 0.00000E+00 0.00000E+00 0.00000E+00 0.00000E+00 0.00000E+00 0.00000E+00 4.79900E-03 1.17612E-02 1.01345E-02
      978  1.79029E-06 1.88727E-06-2.54839E-05 0.00000E+00 0.00000E+00 0.00000E+00 0.00000E+00 0.00000E+00 0.00000E+00 8.25979E-03 8.24509E-03 1.01345E-02
      980  1.69439E-06 1.77038E-06-2.54839E-05 0.00000E+00 0.00000E+00 0.00000E+00 0.00000E+00 0.00000E+00 0.00000E+00 8.99039E-03 8.97357E-03 1.01345E-02
      981  2.35266E-06 9.57648E-07-2.54839E-05 0.00000E+00 0.00000E+00 0.00000E+00 0.00000E+00 0.00000E+00 0.00000E+00 1.07993E-02 4.42486E-03 1.01345E-02
      983  2.24138E-06 9.17027E-07-2.54839E-05 0.00000E+00 0.00000E+00 0.00000E+00 0.00000E+00 0.00000E+00 0.00000E+00 1.17549E-02 4.81392E-03 1.01345E-02
      984  2.52724E-06 0.00000E+00-2.54839E-05 0.00000E+00 0.00000E+00 0.00000E+00 0.00000E+00 0.00000E+00 0.00000E+00 1.16706E-02 0.00000E+00 1.01345E-02
      986  2.46312E-06 0.00000E+00-2.54839E-05 0.00000E+00 0.00000E+00 0.00000E+00 0.00000E+00 0.00000E+00 0.00000E+00 1.27025E-02 0.00000E+00 1.01345E-02
     1059  1.03901E-06 2.74343E-06-2.54839E-05 0.00000E+00 0.00000E+00 0.00000E+00 0.00000E+00 0.00000E+00 0.00000E+00 2.86334E-03 6.97894E-03 1.01345E-02
     1061  1.96888E-06 2.11280E-06-2.54839E-05 0.00000E+00 0.00000E+00 0.00000E+00 0.00000E+00 0.00000E+00 0.00000E+00 5.33717E-03 5.33091E-03 1.01345E-02
     1063  2.57553E-06 1.17550E-06-2.54839E-05 0.00000E+00 0.00000E+00 0.00000E+00 0.00000E+00 0.00000E+00 0.00000E+00 6.97658E-03 2.86888E-03 1.01345E-02
     1065  2.79745E-06 0.00000E+00-2.54839E-05 0.00000E+00 0.00000E+00 0.00000E+00 0.00000E+00 0.00000E+00 0.00000E+00 7.54340E-03 0.00000E+00 1.01345E-02
     1071  9.63317E-07 2.50976E-06-2.54839E-05 0.00000E+00 0.00000E+00 0.00000E+00 0.00000E+00 0.00000E+00 0.00000E+00 4.02476E-03 9.84821E-03 1.01345E-02
     1072  1.84678E-06 1.94405E-06-2.54839E-05 0.00000E+00 0.00000E+00 0.00000E+00 0.00000E+00 0.00000E+00 0.00000E+00 7.52925E-03 7.51654E-03 1.01345E-02
     1073  2.43762E-06 1.02531E-06-2.54839E-05 0.00000E+00 0.00000E+00 0.00000E+00 0.00000E+00 0.00000E+00 0.00000E+00 9.84364E-03 4.03583E-03 1.01345E-02
     1074  2.63568E-06 0.00000E+00-2.54839E-05 0.00000E+00 0.00000E+00 0.00000E+00 0.00000E+00 0.00000E+00 0.00000E+00 1.06389E-02 0.00000E+00 1.01345E-02
     1111  1.02413E-06 2.73783E-06-2.54839E-05 0.00000E+00 0.00000E+00 0.00000E+00 0.00000E+00 0.00000E+00 0.00000E+00 2.47612E-03 6.02244E-03 1.01345E-02
     1112  1.93814E-06 2.10794E-06-2.54839E-05 0.00000E+00 0.00000E+00 0.00000E+00 0.00000E+00 0.00000E+00 0.00000E+00 4.60644E-03 4.60241E-03 1.01345E-02
     1113  2.52216E-06 1.17657E-06-2.54839E-05 0.00000E+00 0.00000E+00 0.00000E+00 0.00000E+00 0.00000E+00 0.00000E+00 6.02082E-03 2.47998E-03 1.01345E-02
     1114  2.73617E-06 0.00000E+00-2.54839E-05 0.00000E+00 0.00000E+00 0.00000E+00 0.00000E+00 0.00000E+00 0.00000E+00 6.51154E-03 0.00000E+00 1.01345E-02
     1135  9.69157E-07 2.63202E-06-2.54839E-05 0.00000E+00 0.00000E+00 0.00000E+00 0.00000E+00 0.00000E+00 0.00000E+00 2.08897E-03 5.06583E-03 1.01345E-02
     1136  1.83634E-06 2.02572E-06-2.54839E-05 0.00000E+00 0.00000E+00 0.00000E+00 0.00000E+00 0.00000E+00 0.00000E+00 3.87564E-03 3.87373E-03 1.01345E-02
     1137  2.38700E-06 1.13464E-06-2.54839E-05 0.00000E+00 0.00000E+00 0.00000E+00 0.00000E+00 0.00000E+00 0.00000E+00 5.06489E-03 2.09093E-03 1.01345E-02
     1138  2.58100E-06 0.00000E+00-2.54839E-05 0.00000E+00 0.00000E+00 0.00000E+00 0.00000E+00 0.00000E+00 0.00000E+00 5.47948E-03 0.00000E+00 1.01345E-02



 n o d a l   p r i n t   o u t   f o r   t i m e  s t e p     483                              ( at time 3.1921709E+00 )

 nodal point  x-disp     y-disp      z-disp      x-vel       y-vel       z-vel      x-accl      y-accl      z-accl      x-coor      y-coor      z-coor
        1  6.86475E-06 0.00000E+00 0.00000E+00 0.00000E+00 0.00000E+00 0.00000E+00 0.00000E+00 0.00000E+00 0.00000E+00 3.18186E-03 0.00000E+00-8.88000E-19
        2 -1.27457E-06 0.00000E+00 0.00000E+00 0.00000E+00 0.00000E+00 0.00000E+00 0.00000E+00 0.00000E+00 0.00000E+00 2.38003E-03 0.00000E+00 0.00000E+00
        3 -3.40236E-06 0.00000E+00 0.00000E+00 0.00000E+00 0.00000E+00 0.00000E+00 0.00000E+00 0.00000E+00 0.00000E+00 1.58410E-03 0.00000E+00 0.00000E+00
        4 -1.80330E-06 0.00000E+00 0.00000E+00 0.00000E+00 0.00000E+00 0.00000E+00 0.00000E+00 0.00000E+00 0.00000E+00 7.91947E-04 0.00000E+00 0.00000E+00
        5  0.00000E+00 0.00000E+00 0.00000E+00 0.00000E+00 0.00000E+00 0.00000E+00 0.00000E+00 0.00000E+00 0.00000E+00 0.00000E+00 0.00000E+00 0.00000E+00
        6  0.00000E+00-1.86925E-06 0.00000E+00 0.00000E+00 0.00000E+00 0.00000E+00 0.00000E+00 0.00000E+00 0.00000E+00 4.86000E-20 7.91881E-04 0.00000E+00
        7  0.00000E+00-1.66560E-06 0.00000E+00 0.00000E+00 0.00000E+00 0.00000E+00 0.00000E+00 0.00000E+00 0.00000E+00 9.72100E-20 1.58583E-03 0.00000E+00
        8  0.00000E+00 2.71426E-06 0.00000E+00 0.00000E+00 0.00000E+00 0.00000E+00 0.00000E+00 0.00000E+00 0.00000E+00 1.45800E-19 2.38401E-03 0.00000E+00
        9  0.00000E+00 1.01741E-05 0.00000E+00 0.00000E+00 0.00000E+00 0.00000E+00 0.00000E+00 0.00000E+00 0.00000E+00 1.94400E-19 3.18517E-03 0.00000E+00
       10  6.52122E-06 1.27361E-05 0.00000E+00 0.00000E+00 0.00000E+00 0.00000E+00 0.00000E+00 0.00000E+00 0.00000E+00 1.22152E-03 2.94604E-03 0.00000E+00
       11  1.07271E-05 1.25453E-05 0.00000E+00 0.00000E+00 0.00000E+00 0.00000E+00 0.00000E+00 0.00000E+00 0.00000E+00 2.25583E-03 2.25765E-03 0.00000E+00
       12  1.20686E-05 8.87183E-06 0.00000E+00 0.00000E+00 0.00000E+00 0.00000E+00 0.00000E+00 0.00000E+00 0.00000E+00 2.94537E-03 1.22387E-03 0.00000E+00
       13  5.54942E-06 6.22006E-06 0.00000E+00 0.00000E+00 0.00000E+00 0.00000E+00 0.00000E+00 0.00000E+00 0.00000E+00 1.31385E-03 1.35812E-03 0.00000E+00
       14  4.45018E-06 4.24313E-06 0.00000E+00 0.00000E+00 0.00000E+00 0.00000E+00 0.00000E+00 0.00000E+00 0.00000E+00 1.49275E-03 7.11220E-04 0.00000E+00
       15  2.89240E-06 4.06750E-06 0.00000E+00 0.00000E+00 0.00000E+00 0.00000E+00 0.00000E+00 0.00000E+00 0.00000E+00 6.72403E-04 1.51107E-03 0.00000E+00
       16  1.70075E-06 1.79095E-06 0.00000E+00 0.00000E+00 0.00000E+00 0.00000E+00 0.00000E+00 0.00000E+00 0.00000E+00 7.55338E-04 7.84128E-04 0.00000E+00
       17  8.16225E-06 8.74165E-06 0.00000E+00 0.00000E+00 0.00000E+00 0.00000E+00 0.00000E+00 0.00000E+00 0.00000E+00 1.74446E-03 1.77624E-03 0.00000E+00
       18  4.52736E-06 7.61404E-06 0.00000E+00 0.00000E+00 0.00000E+00 0.00000E+00 0.00000E+00 0.00000E+00 0.00000E+00 9.24658E-04 2.19871E-03 0.00000E+00
       19  7.95804E-06 5.42283E-06 0.00000E+00 0.00000E+00 0.00000E+00 0.00000E+00 0.00000E+00 0.00000E+00 0.00000E+00 2.17126E-03 9.56281E-04 0.00000E+00
      105  6.75851E-07 2.47247E-06-3.19217E-05 0.00000E+00 0.00000E+00 0.00000E+00 0.00000E+00 0.00000E+00 0.00000E+00 1.28808E-03 3.06867E-03 1.01281E-02
      106  1.38324E-06 2.44534E-06-3.19217E-05 0.00000E+00 0.00000E+00 0.00000E+00 0.00000E+00 0.00000E+00 0.00000E+00 2.43138E-03 2.47605E-03 1.01281E-02
      107  1.61315E-06 2.66014E-06-3.19217E-05 0.00000E+00 0.00000E+00 0.00000E+00 0.00000E+00 0.00000E+00 0.00000E+00 3.14461E-03 3.14586E-03 1.01281E-02
      108  8.39221E-07 3.11458E-06-3.19217E-05 0.00000E+00 0.00000E+00 0.00000E+00 0.00000E+00 0.00000E+00 0.00000E+00 1.70164E-03 4.10991E-03 1.01281E-02
      137  2.00221E-06 1.75182E-06-3.19217E-05 0.00000E+00 0.00000E+00 0.00000E+00 0.00000E+00 0.00000E+00 0.00000E+00 4.10870E-03 1.70255E-03 1.01281E-02
      138  1.42537E-06 1.63217E-06-3.19217E-05 0.00000E+00 0.00000E+00 0.00000E+00 0.00000E+00 0.00000E+00 0.00000E+00 3.02863E-03 1.33213E-03 1.01281E-02
      139  2.71352E-06 0.00000E+00-3.19217E-05 0.00000E+00 0.00000E+00 0.00000E+00 0.00000E+00 0.00000E+00 0.00000E+00 3.33651E-03 0.00000E+00 1.01281E-02
      140  2.61333E-06 0.00000E+00-3.19217E-05 0.00000E+00 0.00000E+00 0.00000E+00 0.00000E+00 0.00000E+00 0.00000E+00 4.44761E-03 0.00000E+00 1.01281E-02
      162  0.00000E+00 2.95575E-06-3.19217E-05 0.00000E+00 0.00000E+00 0.00000E+00 0.00000E+00 0.00000E+00 0.00000E+00 1.36100E-19 2.22546E-03 1.01281E-02
      163  6.20118E-07 1.89851E-06-3.19217E-05 0.00000E+00 0.00000E+00 0.00000E+00 0.00000E+00 0.00000E+00 0.00000E+00 9.37351E-04 2.11060E-03 1.01281E-02
      164  0.00000E+00 4.03120E-06-3.19217E-05 0.00000E+00 0.00000E+00 0.00000E+00 0.00000E+00 0.00000E+00 0.00000E+00 2.04100E-19 3.33783E-03 1.01281E-02
      179  5.95817E-07 1.11792E-06-3.19217E-05 0.00000E+00 0.00000E+00 0.00000E+00 0.00000E+00 0.00000E+00 0.00000E+00 1.05490E-03 1.09562E-03 1.01281E-02
      180  0.00000E+00 1.36830E-06-3.19217E-05 0.00000E+00 0.00000E+00 0.00000E+00 0.00000E+00 0.00000E+00 0.00000E+00 6.80400E-20 1.11267E-03 1.01281E-02
      188  1.20428E-06 1.73745E-06-3.19217E-05 0.00000E+00 0.00000E+00 0.00000E+00 0.00000E+00 0.00000E+00 0.00000E+00 1.83210E-03 1.89364E-03 1.01281E-02
      210  2.45627E-06 0.00000E+00-3.19217E-05 0.00000E+00 0.00000E+00 0.00000E+00 0.00000E+00 0.00000E+00 0.00000E+00 2.22496E-03 0.00000E+00 1.01281E-02
      211  1.11717E-06 1.11378E-06-3.19217E-05 0.00000E+00 0.00000E+00 0.00000E+00 0.00000E+00 0.00000E+00 0.00000E+00 2.08372E-03 9.90265E-04 1.01281E-02
      212  1.83356E-06 0.00000E+00-3.19217E-05 0.00000E+00 0.00000E+00 0.00000E+00 0.00000E+00 0.00000E+00 0.00000E+00 1.11313E-03 0.00000E+00 1.01281E-02
      220  0.00000E+00 0.00000E+00-3.19217E-05 0.00000E+00 0.00000E+00 0.00000E+00 0.00000E+00 0.00000E+00 0.00000E+00 0.00000E+00 0.00000E+00 1.01281E-02
      228  0.00000E+00 4.70207E-06-3.19217E-05 0.00000E+00 0.00000E+00 0.00000E+00 0.00000E+00 0.00000E+00 0.00000E+00 2.72200E-19 4.44970E-03 1.01281E-02
      787  0.00000E+00 4.69282E-06-3.19217E-05 0.00000E+00 0.00000E+00 0.00000E+00 0.00000E+00 0.00000E+00 0.00000E+00 3.35400E-19 5.48159E-03 1.01281E-02
      788  0.00000E+00 4.42025E-06-3.19217E-05 0.00000E+00 0.00000E+00 0.00000E+00 0.00000E+00 0.00000E+00 0.00000E+00 3.98500E-19 6.51322E-03 1.01281E-02
      789  0.00000E+00 4.04372E-06-3.19217E-05 0.00000E+00 0.00000E+00 0.00000E+00 0.00000E+00 0.00000E+00 0.00000E+00 4.61700E-19 7.54464E-03 1.01281E-02
      790  0.00000E+00 3.68195E-06-3.19217E-05 0.00000E+00 0.00000E+00 0.00000E+00 0.00000E+00 0.00000E+00 0.00000E+00 5.24900E-19 8.57618E-03 1.01281E-02
      791  0.00000E+00 3.29266E-06-3.19217E-05 0.00000E+00 0.00000E+00 0.00000E+00 0.00000E+00 0.00000E+00 0.00000E+00 5.88100E-19 9.60769E-03 1.01281E-02
      792  0.00000E+00 2.92419E-06-3.19217E-05 0.00000E+00 0.00000E+00 0.00000E+00 0.00000E+00 0.00000E+00 0.00000E+00 6.51300E-19 1.06392E-02 1.01281E-02
      793  0.00000E+00 2.56315E-06-3.19217E-05 0.00000E+00 0.00000E+00 0.00000E+00 0.00000E+00 0.00000E+00 0.00000E+00 7.14500E-19 1.16707E-02 1.01281E-02
      794  0.00000E+00 2.16699E-06-3.19217E-05 0.00000E+00 0.00000E+00 0.00000E+00 0.00000E+00 0.00000E+00 0.00000E+00 7.77700E-19 1.27022E-02 1.01281E-02
      955  9.65641E-07 2.89842E-06-3.19217E-05 0.00000E+00 0.00000E+00 0.00000E+00 0.00000E+00 0.00000E+00 0.00000E+00 3.25047E-03 7.93560E-03 1.01281E-02
      956  9.25832E-07 2.73014E-06-3.19217E-05 0.00000E+00 0.00000E+00 0.00000E+00 0.00000E+00 0.00000E+00 0.00000E+00 3.63753E-03 8.89193E-03 1.01281E-02
      957  1.92819E-06 2.37468E-06-3.19217E-05 0.00000E+00 0.00000E+00 0.00000E+00 0.00000E+00 0.00000E+00 0.00000E+00 6.06793E-03 6.05977E-03 1.01281E-02
      958  1.93113E-06 2.24589E-06-3.19217E-05 0.00000E+00 0.00000E+00 0.00000E+00 0.00000E+00 0.00000E+00 0.00000E+00 6.79863E-03 6.78825E-03 1.01281E-02
      959  2.39925E-06 1.70876E-06-3.19217E-05 0.00000E+00 0.00000E+00 0.00000E+00 0.00000E+00 0.00000E+00 0.00000E+00 7.93220E-03 3.25851E-03 1.01281E-02
      960  2.37660E-06 1.65504E-06-3.19217E-05 0.00000E+00 0.00000E+00 0.00000E+00 0.00000E+00 0.00000E+00 0.00000E+00 8.88788E-03 3.64746E-03 1.01281E-02
      961  2.56167E-06 0.00000E+00-3.19217E-05 0.00000E+00 0.00000E+00 0.00000E+00 0.00000E+00 0.00000E+00 0.00000E+00 8.57506E-03 0.00000E+00 1.01281E-02
      962  2.50118E-06 0.00000E+00-3.19217E-05 0.00000E+00 0.00000E+00 0.00000E+00 0.00000E+00 0.00000E+00 0.00000E+00 9.60690E-03 0.00000E+00 1.01281E-02
      975  8.57489E-07 2.51712E-06-3.19217E-05 0.00000E+00 0.00000E+00 0.00000E+00 0.00000E+00 0.00000E+00 0.00000E+00 4.41176E-03 1.08048E-02 1.01281E-02
      977  9.16509E-07 2.75022E-06-3.19217E-05 0.00000E+00 0.00000E+00 0.00000E+00 0.00000E+00 0.00000E+00 0.00000E+00 4.79902E-03 1.17616E-02 1.01281E-02
      978  1.91429E-06 2.05088E-06-3.19217E-05 0.00000E+00 0.00000E+00 0.00000E+00 0.00000E+00 0.00000E+00 0.00000E+00 8.25991E-03 8.24525E-03 1.01281E-02
      980  1.69553E-06 1.76707E-06-3.19217E-05 0.00000E+00 0.00000E+00 0.00000E+00 0.00000E+00 0.00000E+00 0.00000E+00 8.99040E-03 8.97357E-03 1.01281E-02
      981  2.27426E-06 1.51610E-06-3.19217E-05 0.00000E+00 0.00000E+00 0.00000E+00 0.00000E+00 0.00000E+00 0.00000E+00 1.07992E-02 4.42542E-03 1.01281E-02
      983  2.14194E-06 1.42420E-06-3.19217E-05 0.00000E+00 0.00000E+00 0.00000E+00 0.00000E+00 0.00000E+00 0.00000E+00 1.17548E-02 4.81442E-03 1.01281E-02
      984  2.31621E-06 0.00000E+00-3.19217E-05 0.00000E+00 0.00000E+00 0.00000E+00 0.00000E+00 0.00000E+00 0.00000E+00 1.16704E-02 0.00000E+00 1.01281E-02
      986  2.26225E-06 0.00000E+00-3.19217E-05 0.00000E+00 0.00000E+00 0.00000E+00 0.00000E+00 0.00000E+00 0.00000E+00 1.27023E-02 0.00000E+00 1.01281E-02
     1059  1.00541E-06 3.12305E-06-3.19217E-05 0.00000E+00 0.00000E+00 0.00000E+00 0.00000E+00 0.00000E+00 0.00000E+00 2.86331E-03 6.97932E-03 1.01281E-02
     1061  1.91471E-06 2.49853E-06-3.19217E-05 0.00000E+00 0.00000E+00 0.00000E+00 0.00000E+00 0.00000E+00 0.00000E+00 5.33711E-03 5.33130E-03 1.01281E-02
     1063  2.38883E-06 1.76769E-06-3.19217E-05 0.00000E+00 0.00000E+00 0.00000E+00 0.00000E+00 0.00000E+00 0.00000E+00 6.97639E-03 2.86947E-03 1.01281E-02
     1065  2.58636E-06 0.00000E+00-3.19217E-05 0.00000E+00 0.00000E+00 0.00000E+00 0.00000E+00 0.00000E+00 0.00000E+00 7.54319E-03 0.00000E+00 1.01281E-02
     1071  8.93926E-07 2.60593E-06-3.19217E-05 0.00000E+00 0.00000E+00 0.00000E+00 0.00000E+00 0.00000E+00 0.00000E+00 4.02469E-03 9.84831E-03 1.01281E-02
     1072  1.91960E-06 2.12563E-06-3.19217E-05 0.00000E+00 0.00000E+00 0.00000E+00 0.00000E+00 0.00000E+00 0.00000E+00 7.52932E-03 7.51673E-03 1.01281E-02
     1073  2.34059E-06 1.59865E-06-3.19217E-05 0.00000E+00 0.00000E+00 0.00000E+00 0.00000E+00 0.00000E+00 0.00000E+00 9.84354E-03 4.03640E-03 1.01281E-02
     1074  2.41266E-06 0.00000E+00-3.19217E-05 0.00000E+00 0.00000E+00 0.00000E+00 0.00000E+00 0.00000E+00 0.00000E+00 1.06387E-02 0.00000E+00 1.01281E-02
     1111  1.02311E-06 3.27588E-06-3.19217E-05 0.00000E+00 0.00000E+00 0.00000E+00 0.00000E+00 0.00000E+00 0.00000E+00 2.47612E-03 6.02298E-03 1.01281E-02
     1112  1.87155E-06 2.62377E-06-3.19217E-05 0.00000E+00 0.00000E+00 0.00000E+00 0.00000E+00 0.00000E+00 0.00000E+00 4.60637E-03 4.60292E-03 1.01281E-02
     1113  2.33028E-06 1.80154E-06-3.19217E-05 0.00000E+00 0.00000E+00 0.00000E+00 0.00000E+00 0.00000E+00 0.00000E+00 6.02063E-03 2.48060E-03 1.01281E-02
     1114  2.59317E-06 0.00000E+00-3.19217E-05 0.00000E+00 0.00000E+00 0.00000E+00 0.00000E+00 0.00000E+00 0.00000E+00 6.51139E-03 0.00000E+00 1.01281E-02
     1135  9.68643E-07 3.27929E-06-3.19217E-05 0.00000E+00 0.00000E+00 0.00000E+00 0.00000E+00 0.00000E+00 0.00000E+00 2.08897E-03 5.06648E-03 1.01281E-02
     1136  1.78964E-06 2.70302E-06-3.19217E-05 0.00000E+00 0.00000E+00 0.00000E+00 0.00000E+00 0.00000E+00 0.00000E+00 3.87559E-03 3.87440E-03 1.01281E-02
     1137  2.21435E-06 1.81932E-06-3.19217E-05 0.00000E+00 0.00000E+00 0.00000E+00 0.00000E+00 0.00000E+00 0.00000E+00 5.06471E-03 2.09162E-03 1.01281E-02
     1138  2.54426E-06 0.00000E+00-3.19217E-05 0.00000E+00 0.00000E+00 0.00000E+00 0.00000E+00 0.00000E+00 0.00000E+00 5.47944E-03 0.00000E+00 1.01281E-02



 n o d a l   p r i n t   o u t   f o r   t i m e  s t e p     501                              ( at time 4.4133505E+00 )

 nodal point  x-disp     y-disp      z-disp      x-vel       y-vel       z-vel      x-accl      y-accl      z-accl      x-coor      y-coor      z-coor
        1  1.32941E-05 0.00000E+00 0.00000E+00 0.00000E+00 0.00000E+00 0.00000E+00 0.00000E+00 0.00000E+00 0.00000E+00 3.18829E-03 0.00000E+00-8.88000E-19
        2 -3.78849E-06 0.00000E+00 0.00000E+00 0.00000E+00 0.00000E+00 0.00000E+00 0.00000E+00 0.00000E+00 0.00000E+00 2.37751E-03 0.00000E+00 0.00000E+00
        3 -8.54163E-06 0.00000E+00 0.00000E+00 0.00000E+00 0.00000E+00 0.00000E+00 0.00000E+00 0.00000E+00 0.00000E+00 1.57896E-03 0.00000E+00 0.00000E+00
        4 -4.80028E-06 0.00000E+00 0.00000E+00 0.00000E+00 0.00000E+00 0.00000E+00 0.00000E+00 0.00000E+00 0.00000E+00 7.88950E-04 0.00000E+00 0.00000E+00
        5  0.00000E+00 0.00000E+00 0.00000E+00 0.00000E+00 0.00000E+00 0.00000E+00 0.00000E+00 0.00000E+00 0.00000E+00 0.00000E+00 0.00000E+00 0.00000E+00
        6  0.00000E+00-2.42141E-06 0.00000E+00 0.00000E+00 0.00000E+00 0.00000E+00 0.00000E+00 0.00000E+00 0.00000E+00 4.86000E-20 7.91329E-04 0.00000E+00
        7  0.00000E+00-1.06143E-06 0.00000E+00 0.00000E+00 0.00000E+00 0.00000E+00 0.00000E+00 0.00000E+00 0.00000E+00 9.72100E-20 1.58644E-03 0.00000E+00
        8  0.00000E+00 6.91320E-06 0.00000E+00 0.00000E+00 0.00000E+00 0.00000E+00 0.00000E+00 0.00000E+00 0.00000E+00 1.45800E-19 2.38821E-03 0.00000E+00
        9  0.00000E+00 1.94843E-05 0.00000E+00 0.00000E+00 0.00000E+00 0.00000E+00 0.00000E+00 0.00000E+00 0.00000E+00 1.94400E-19 3.19448E-03 0.00000E+00
       10  1.27885E-05 2.26471E-05 0.00000E+00 0.00000E+00 0.00000E+00 0.00000E+00 0.00000E+00 0.00000E+00 0.00000E+00 1.22779E-03 2.95595E-03 0.00000E+00
       11  2.05789E-05 2.25128E-05 0.00000E+00 0.00000E+00 0.00000E+00 0.00000E+00 0.00000E+00 0.00000E+00 0.00000E+00 2.26568E-03 2.26761E-03 0.00000E+00
       12  2.34188E-05 1.81702E-05 0.00000E+00 0.00000E+00 0.00000E+00 0.00000E+00 0.00000E+00 0.00000E+00 0.00000E+00 2.95672E-03 1.23317E-03 0.00000E+00
       13  1.40642E-05 1.46262E-05 0.00000E+00 0.00000E+00 0.00000E+00 0.00000E+00 0.00000E+00 0.00000E+00 0.00000E+00 1.32236E-03 1.36653E-03 0.00000E+00
       14  1.24707E-05 9.82890E-06 0.00000E+00 0.00000E+00 0.00000E+00 0.00000E+00 0.00000E+00 0.00000E+00 0.00000E+00 1.50077E-03 7.16806E-04 0.00000E+00
       15  6.83812E-06 8.67094E-06 0.00000E+00 0.00000E+00 0.00000E+00 0.00000E+00 0.00000E+00 0.00000E+00 0.00000E+00 6.76348E-04 1.51567E-03 0.00000E+00
       16  5.13582E-06 4.36469E-06 0.00000E+00 0.00000E+00 0.00000E+00 0.00000E+00 0.00000E+00 0.00000E+00 0.00000E+00 7.58773E-04 7.86702E-04 0.00000E+00
       17  1.80059E-05 1.83190E-05 0.00000E+00 0.00000E+00 0.00000E+00 0.00000E+00 0.00000E+00 0.00000E+00 0.00000E+00 1.75431E-03 1.78582E-03 0.00000E+00
       18  9.64142E-06 1.48740E-05 0.00000E+00 0.00000E+00 0.00000E+00 0.00000E+00 0.00000E+00 0.00000E+00 0.00000E+00 9.29772E-04 2.20597E-03 0.00000E+00
       19  1.90623E-05 1.23497E-05 0.00000E+00 0.00000E+00 0.00000E+00 0.00000E+00 0.00000E+00 0.00000E+00 0.00000E+00 2.18236E-03 9.63208E-04 0.00000E+00
      105  8.36219E-07 2.92195E-06-4.41335E-05 0.00000E+00 0.00000E+00 0.00000E+00 0.00000E+00 0.00000E+00 0.00000E+00 1.28824E-03 3.06912E-03 1.01159E-02
      106  1.69758E-06 2.95991E-06-4.41335E-05 0.00000E+00 0.00000E+00 0.00000E+00 0.00000E+00 0.00000E+00 0.00000E+00 2.43170E-03 2.47656E-03 1.01159E-02
      107  1.86609E-06 3.17580E-06-4.41335E-05 0.00000E+00 0.00000E+00 0.00000E+00 0.00000E+00 0.00000E+00 0.00000E+00 3.14487E-03 3.14638E-03 1.01159E-02
      108  9.40281E-07 3.60748E-06-4.41335E-05 0.00000E+00 0.00000E+00 0.00000E+00 0.00000E+00 0.00000E+00 0.00000E+00 1.70174E-03 4.11041E-03 1.01159E-02
      137  2.19716E-06 2.07791E-06-4.41335E-05 0.00000E+00 0.00000E+00 0.00000E+00 0.00000E+00 0.00000E+00 0.00000E+00 4.10890E-03 1.70288E-03 1.01159E-02
      138  1.43776E-06 1.92896E-06-4.41335E-05 0.00000E+00 0.00000E+00 0.00000E+00 0.00000E+00 0.00000E+00 0.00000E+00 3.02864E-03 1.33243E-03 1.01159E-02
      139  4.55815E-06 0.00000E+00-4.41335E-05 0.00000E+00 0.00000E+00 0.00000E+00 0.00000E+00 0.00000E+00 0.00000E+00 3.33836E-03 0.00000E+00 1.01159E-02
      140  3.58284E-06 0.00000E+00-4.41335E-05 0.00000E+00 0.00000E+00 0.00000E+00 0.00000E+00 0.00000E+00 0.00000E+00 4.44858E-03 0.00000E+00 1.01159E-02
      162  0.00000E+00 4.07821E-06-4.41335E-05 0.00000E+00 0.00000E+00 0.00000E+00 0.00000E+00 0.00000E+00 0.00000E+00 1.36100E-19 2.22658E-03 1.01159E-02
      163  9.49425E-07 2.32607E-06-4.41335E-05 0.00000E+00 0.00000E+00 0.00000E+00 0.00000E+00 0.00000E+00 0.00000E+00 9.37680E-04 2.11103E-03 1.01159E-02
      164  0.00000E+00 5.00973E-06-4.41335E-05 0.00000E+00 0.00000E+00 0.00000E+00 0.00000E+00 0.00000E+00 0.00000E+00 2.04100E-19 3.33881E-03 1.01159E-02
      179  8.81819E-07 1.49810E-06-4.41335E-05 0.00000E+00 0.00000E+00 0.00000E+00 0.00000E+00 0.00000E+00 0.00000E+00 1.05518E-03 1.09600E-03 1.01159E-02
      180  0.00000E+00 2.82641E-06-4.41335E-05 0.00000E+00 0.00000E+00 0.00000E+00 0.00000E+00 0.00000E+00 0.00000E+00 6.80400E-20 1.11413E-03 1.01159E-02
      188  1.60388E-06 1.87382E-06-4.41335E-05 0.00000E+00 0.00000E+00 0.00000E+00 0.00000E+00 0.00000E+00 0.00000E+00 1.83250E-03 1.89377E-03 1.01159E-02
      210  5.40863E-06 0.00000E+00-4.41335E-05 0.00000E+00 0.00000E+00 0.00000E+00 0.00000E+00 0.00000E+00 0.00000E+00 2.22791E-03 0.00000E+00 1.01159E-02
      211  1.17153E-06 1.80091E-06-4.41335E-05 0.00000E+00 0.00000E+00 0.00000E+00 0.00000E+00 0.00000E+00 0.00000E+00 2.08377E-03 9.90953E-04 1.01159E-02
      212  4.09355E-06 0.00000E+00-4.41335E-05 0.00000E+00 0.00000E+00 0.00000E+00 0.00000E+00 0.00000E+00 0.00000E+00 1.11539E-03 0.00000E+00 1.01159E-02
      220  0.00000E+00 0.00000E+00-4.41335E-05 0.00000E+00 0.00000E+00 0.00000E+00 0.00000E+00 0.00000E+00 0.00000E+00 0.00000E+00 0.00000E+00 1.01159E-02
      228  0.00000E+00 5.59855E-06-4.41335E-05 0.00000E+00 0.00000E+00 0.00000E+00 0.00000E+00 0.00000E+00 0.00000E+00 2.72200E-19 4.45060E-03 1.01159E-02
      787  0.00000E+00 5.46757E-06-4.41335E-05 0.00000E+00 0.00000E+00 0.00000E+00 0.00000E+00 0.00000E+00 0.00000E+00 3.35400E-19 5.48237E-03 1.01159E-02
      788  0.00000E+00 5.07680E-06-4.41335E-05 0.00000E+00 0.00000E+00 0.00000E+00 0.00000E+00 0.00000E+00 0.00000E+00 3.98500E-19 6.51388E-03 1.01159E-02
      789  0.00000E+00 4.57231E-06-4.41335E-05 0.00000E+00 0.00000E+00 0.00000E+00 0.00000E+00 0.00000E+00 0.00000E+00 4.61700E-19 7.54517E-03 1.01159E-02
      790  0.00000E+00 4.15130E-06-4.41335E-05 0.00000E+00 0.00000E+00 0.00000E+00 0.00000E+00 0.00000E+00 0.00000E+00 5.24900E-19 8.57665E-03 1.01159E-02
      791  0.00000E+00 3.72706E-06-4.41335E-05 0.00000E+00 0.00000E+00 0.00000E+00 0.00000E+00 0.00000E+00 0.00000E+00 5.88100E-19 9.60813E-03 1.01159E-02
      792  0.00000E+00 3.31472E-06-4.41335E-05 0.00000E+00 0.00000E+00 0.00000E+00 0.00000E+00 0.00000E+00 0.00000E+00 6.51300E-19 1.06396E-02 1.01159E-02
      793  0.00000E+00 2.90735E-06-4.41335E-05 0.00000E+00 0.00000E+00 0.00000E+00 0.00000E+00 0.00000E+00 0.00000E+00 7.14500E-19 1.16710E-02 1.01159E-02
      794  0.00000E+00 2.44552E-06-4.41335E-05 0.00000E+00 0.00000E+00 0.00000E+00 0.00000E+00 0.00000E+00 0.00000E+00 7.77700E-19 1.27024E-02 1.01159E-02
      955  1.05623E-06 3.28594E-06-4.41335E-05 0.00000E+00 0.00000E+00 0.00000E+00 0.00000E+00 0.00000E+00 0.00000E+00 3.25056E-03 7.93599E-03 1.01159E-02
      956  1.01423E-06 3.06544E-06-4.41335E-05 0.00000E+00 0.00000E+00 0.00000E+00 0.00000E+00 0.00000E+00 0.00000E+00 3.63761E-03 8.89227E-03 1.01159E-02
      957  2.08403E-06 2.61979E-06-4.41335E-05 0.00000E+00 0.00000E+00 0.00000E+00 0.00000E+00 0.00000E+00 0.00000E+00 6.06808E-03 6.06002E-03 1.01159E-02
      958  2.08545E-06 2.46277E-06-4.41335E-05 0.00000E+00 0.00000E+00 0.00000E+00 0.00000E+00 0.00000E+00 0.00000E+00 6.79879E-03 6.78846E-03 1.01159E-02
      959  2.52590E-06 1.86611E-06-4.41335E-05 0.00000E+00 0.00000E+00 0.00000E+00 0.00000E+00 0.00000E+00 0.00000E+00 7.93233E-03 3.25867E-03 1.01159E-02
      960  2.50154E-06 1.80379E-06-4.41335E-05 0.00000E+00 0.00000E+00 0.00000E+00 0.00000E+00 0.00000E+00 0.00000E+00 8.88800E-03 3.64760E-03 1.01159E-02
      961  2.72345E-06 0.00000E+00-4.41335E-05 0.00000E+00 0.00000E+00 0.00000E+00 0.00000E+00 0.00000E+00 0.00000E+00 8.57522E-03 0.00000E+00 1.01159E-02
      962  2.63999E-06 0.00000E+00-4.41335E-05 0.00000E+00 0.00000E+00 0.00000E+00 0.00000E+00 0.00000E+00 0.00000E+00 9.60704E-03 0.00000E+00 1.01159E-02
      975  9.56541E-07 2.81717E-06-4.41335E-05 0.00000E+00 0.00000E+00 0.00000E+00 0.00000E+00 0.00000E+00 0.00000E+00 4.41186E-03 1.08051E-02 1.01159E-02
      977  1.05057E-06 3.10936E-06-4.41335E-05 0.00000E+00 0.00000E+00 0.00000E+00 0.00000E+00 0.00000E+00 0.00000E+00 4.79915E-03 1.17619E-02 1.01159E-02
      978  2.09757E-06 2.22650E-06-4.41335E-05 0.00000E+00 0.00000E+00 0.00000E+00 0.00000E+00 0.00000E+00 0.00000E+00 8.26010E-03 8.24543E-03 1.01159E-02
      980  1.86316E-06 1.88686E-06-4.41335E-05 0.00000E+00 0.00000E+00 0.00000E+00 0.00000E+00 0.00000E+00 0.00000E+00 8.99056E-03 8.97369E-03 1.01159E-02
      981  2.40251E-06 1.64052E-06-4.41335E-05 0.00000E+00 0.00000E+00 0.00000E+00 0.00000E+00 0.00000E+00 0.00000E+00 1.07993E-02 4.42554E-03 1.01159E-02
      983  2.26092E-06 1.53388E-06-4.41335E-05 0.00000E+00 0.00000E+00 0.00000E+00 0.00000E+00 0.00000E+00 0.00000E+00 1.17550E-02 4.81453E-03 1.01159E-02
      984  2.43088E-06 0.00000E+00-4.41335E-05 0.00000E+00 0.00000E+00 0.00000E+00 0.00000E+00 0.00000E+00 0.00000E+00 1.16705E-02 0.00000E+00 1.01159E-02
      986  2.37253E-06 0.00000E+00-4.41335E-05 0.00000E+00 0.00000E+00 0.00000E+00 0.00000E+00 0.00000E+00 0.00000E+00 1.27024E-02 0.00000E+00 1.01159E-02
     1059  1.09317E-06 3.52949E-06-4.41335E-05 0.00000E+00 0.00000E+00 0.00000E+00 0.00000E+00 0.00000E+00 0.00000E+00 2.86339E-03 6.97973E-03 1.01159E-02
     1061  2.08146E-06 2.81335E-06-4.41335E-05 0.00000E+00 0.00000E+00 0.00000E+00 0.00000E+00 0.00000E+00 0.00000E+00 5.33728E-03 5.33161E-03 1.01159E-02
     1063  2.53318E-06 1.94169E-06-4.41335E-05 0.00000E+00 0.00000E+00 0.00000E+00 0.00000E+00 0.00000E+00 0.00000E+00 6.97653E-03 2.86964E-03 1.01159E-02
     1065  2.79602E-06 0.00000E+00-4.41335E-05 0.00000E+00 0.00000E+00 0.00000E+00 0.00000E+00 0.00000E+00 0.00000E+00 7.54340E-03 0.00000E+00 1.01159E-02
     1071  9.84408E-07 2.91563E-06-4.41335E-05 0.00000E+00 0.00000E+00 0.00000E+00 0.00000E+00 0.00000E+00 0.00000E+00 4.02478E-03 9.84862E-03 1.01159E-02
     1072  2.08665E-06 2.31957E-06-4.41335E-05 0.00000E+00 0.00000E+00 0.00000E+00 0.00000E+00 0.00000E+00 0.00000E+00 7.52949E-03 7.51692E-03 1.01159E-02
     1073  2.46854E-06 1.73729E-06-4.41335E-05 0.00000E+00 0.00000E+00 0.00000E+00 0.00000E+00 0.00000E+00 0.00000E+00 9.84367E-03 4.03654E-03 1.01159E-02
     1074  2.53730E-06 0.00000E+00-4.41335E-05 0.00000E+00 0.00000E+00 0.00000E+00 0.00000E+00 0.00000E+00 0.00000E+00 1.06388E-02 0.00000E+00 1.01159E-02
     1111  1.09954E-06 3.67172E-06-4.41335E-05 0.00000E+00 0.00000E+00 0.00000E+00 0.00000E+00 0.00000E+00 0.00000E+00 2.47620E-03 6.02337E-03 1.01159E-02
     1112  2.07524E-06 3.02789E-06-4.41335E-05 0.00000E+00 0.00000E+00 0.00000E+00 0.00000E+00 0.00000E+00 0.00000E+00 4.60658E-03 4.60333E-03 1.01159E-02
     1113  2.50612E-06 2.04405E-06-4.41335E-05 0.00000E+00 0.00000E+00 0.00000E+00 0.00000E+00 0.00000E+00 0.00000E+00 6.02081E-03 2.48084E-03 1.01159E-02
     1114  2.89281E-06 0.00000E+00-4.41335E-05 0.00000E+00 0.00000E+00 0.00000E+00 0.00000E+00 0.00000E+00 0.00000E+00 6.51169E-03 0.00000E+00 1.01159E-02
     1135  1.05413E-06 3.74328E-06-4.41335E-05 0.00000E+00 0.00000E+00 0.00000E+00 0.00000E+00 0.00000E+00 0.00000E+00 2.08905E-03 5.06694E-03 1.01159E-02
     1136  1.99741E-06 3.16697E-06-4.41335E-05 0.00000E+00 0.00000E+00 0.00000E+00 0.00000E+00 0.00000E+00 0.00000E+00 3.87580E-03 3.87487E-03 1.01159E-02
     1137  2.41432E-06 2.11496E-06-4.41335E-05 0.00000E+00 0.00000E+00 0.00000E+00 0.00000E+00 0.00000E+00 0.00000E+00 5.06491E-03 2.09191E-03 1.01159E-02
     1138  3.06463E-06 0.00000E+00-4.41335E-05 0.00000E+00 0.00000E+00 0.00000E+00 0.00000E+00 0.00000E+00 0.00000E+00 5.47996E-03 0.00000E+00 1.01159E-02



 n o d a l   p r i n t   o u t   f o r   t i m e  s t e p     507                              ( at time 5.2690147E+00 )

 nodal point  x-disp     y-disp      z-disp      x-vel       y-vel       z-vel      x-accl      y-accl      z-accl      x-coor      y-coor      z-coor
        1  2.03474E-05 0.00000E+00 0.00000E+00 0.00000E+00 0.00000E+00 0.00000E+00 0.00000E+00 0.00000E+00 0.00000E+00 3.19535E-03 0.00000E+00-8.88000E-19
        2 -5.87119E-07 0.00000E+00 0.00000E+00 0.00000E+00 0.00000E+00 0.00000E+00 0.00000E+00 0.00000E+00 0.00000E+00 2.38071E-03 0.00000E+00 0.00000E+00
        3 -7.54294E-06 0.00000E+00 0.00000E+00 0.00000E+00 0.00000E+00 0.00000E+00 0.00000E+00 0.00000E+00 0.00000E+00 1.57996E-03 0.00000E+00 0.00000E+00
        4 -4.57366E-06 0.00000E+00 0.00000E+00 0.00000E+00 0.00000E+00 0.00000E+00 0.00000E+00 0.00000E+00 0.00000E+00 7.89176E-04 0.00000E+00 0.00000E+00
        5  0.00000E+00 0.00000E+00 0.00000E+00 0.00000E+00 0.00000E+00 0.00000E+00 0.00000E+00 0.00000E+00 0.00000E+00 0.00000E+00 0.00000E+00 0.00000E+00
        6  0.00000E+00-1.87752E-06 0.00000E+00 0.00000E+00 0.00000E+00 0.00000E+00 0.00000E+00 0.00000E+00 0.00000E+00 4.86000E-20 7.91872E-04 0.00000E+00
        7  0.00000E+00 6.37898E-07 0.00000E+00 0.00000E+00 0.00000E+00 0.00000E+00 0.00000E+00 0.00000E+00 0.00000E+00 9.72100E-20 1.58814E-03 0.00000E+00
        8  0.00000E+00 1.04357E-05 0.00000E+00 0.00000E+00 0.00000E+00 0.00000E+00 0.00000E+00 0.00000E+00 0.00000E+00 1.45800E-19 2.39174E-03 0.00000E+00
        9  0.00000E+00 2.55631E-05 0.00000E+00 0.00000E+00 0.00000E+00 0.00000E+00 0.00000E+00 0.00000E+00 0.00000E+00 1.94400E-19 3.20056E-03 0.00000E+00
       10  1.60743E-05 2.87756E-05 0.00000E+00 0.00000E+00 0.00000E+00 0.00000E+00 0.00000E+00 0.00000E+00 0.00000E+00 1.23107E-03 2.96208E-03 0.00000E+00
       11  2.53347E-05 2.74400E-05 0.00000E+00 0.00000E+00 0.00000E+00 0.00000E+00 0.00000E+00 0.00000E+00 0.00000E+00 2.27043E-03 2.27254E-03 0.00000E+00
       12  2.92905E-05 2.15776E-05 0.00000E+00 0.00000E+00 0.00000E+00 0.00000E+00 0.00000E+00 0.00000E+00 0.00000E+00 2.96259E-03 1.23658E-03 0.00000E+00
       13  1.78693E-05 1.81288E-05 0.00000E+00 0.00000E+00 0.00000E+00 0.00000E+00 0.00000E+00 0.00000E+00 0.00000E+00 1.32617E-03 1.37003E-03 0.00000E+00
       14  1.57729E-05 1.15042E-05 0.00000E+00 0.00000E+00 0.00000E+00 0.00000E+00 0.00000E+00 0.00000E+00 0.00000E+00 1.50407E-03 7.18481E-04 0.00000E+00
       15  8.83707E-06 1.17731E-05 0.00000E+00 0.00000E+00 0.00000E+00 0.00000E+00 0.00000E+00 0.00000E+00 0.00000E+00 6.78347E-04 1.51877E-03 0.00000E+00
       16  6.66328E-06 6.03795E-06 0.00000E+00 0.00000E+00 0.00000E+00 0.00000E+00 0.00000E+00 0.00000E+00 0.00000E+00 7.60301E-04 7.88375E-04 0.00000E+00
       17  2.22955E-05 2.25570E-05 0.00000E+00 0.00000E+00 0.00000E+00 0.00000E+00 0.00000E+00 0.00000E+00 0.00000E+00 1.75860E-03 1.79006E-03 0.00000E+00
       18  1.21586E-05 1.94774E-05 0.00000E+00 0.00000E+00 0.00000E+00 0.00000E+00 0.00000E+00 0.00000E+00 0.00000E+00 9.32289E-04 2.21058E-03 0.00000E+00
       19  2.35583E-05 1.47773E-05 0.00000E+00 0.00000E+00 0.00000E+00 0.00000E+00 0.00000E+00 0.00000E+00 0.00000E+00 2.18686E-03 9.65636E-04 0.00000E+00
      105  9.68490E-07 3.12796E-06-5.26901E-05 0.00000E+00 0.00000E+00 0.00000E+00 0.00000E+00 0.00000E+00 0.00000E+00 1.28837E-03 3.06933E-03 1.01073E-02
      106  1.87143E-06 3.13957E-06-5.26901E-05 0.00000E+00 0.00000E+00 0.00000E+00 0.00000E+00 0.00000E+00 0.00000E+00 2.43187E-03 2.47674E-03 1.01073E-02
      107  1.97803E-06 3.40269E-06-5.26901E-05 0.00000E+00 0.00000E+00 0.00000E+00 0.00000E+00 0.00000E+00 0.00000E+00 3.14498E-03 3.14660E-03 1.01073E-02
      108  1.00710E-06 3.87227E-06-5.26901E-05 0.00000E+00 0.00000E+00 0.00000E+00 0.00000E+00 0.00000E+00 0.00000E+00 1.70181E-03 4.11067E-03 1.01073E-02
      137  2.34909E-06 2.23366E-06-5.26901E-05 0.00000E+00 0.00000E+00 0.00000E+00 0.00000E+00 0.00000E+00 0.00000E+00 4.10905E-03 1.70303E-03 1.01073E-02
      138  1.57920E-06 1.98270E-06-5.26901E-05 0.00000E+00 0.00000E+00 0.00000E+00 0.00000E+00 0.00000E+00 0.00000E+00 3.02878E-03 1.33248E-03 1.01073E-02
      139  4.93398E-06 0.00000E+00-5.26901E-05 0.00000E+00 0.00000E+00 0.00000E+00 0.00000E+00 0.00000E+00 0.00000E+00 3.33873E-03 0.00000E+00 1.01073E-02
      140  3.90341E-06 0.00000E+00-5.26901E-05 0.00000E+00 0.00000E+00 0.00000E+00 0.00000E+00 0.00000E+00 0.00000E+00 4.44890E-03 0.00000E+00 1.01073E-02
      162  0.00000E+00 4.73016E-06-5.26901E-05 0.00000E+00 0.00000E+00 0.00000E+00 0.00000E+00 0.00000E+00 0.00000E+00 1.36100E-19 2.22723E-03 1.01073E-02
      163  1.10363E-06 2.58212E-06-5.26901E-05 0.00000E+00 0.00000E+00 0.00000E+00 0.00000E+00 0.00000E+00 0.00000E+00 9.37835E-04 2.11128E-03 1.01073E-02
      164  0.00000E+00 5.58680E-06-5.26901E-05 0.00000E+00 0.00000E+00 0.00000E+00 0.00000E+00 0.00000E+00 0.00000E+00 2.04100E-19 3.33939E-03 1.01073E-02
      179  1.07710E-06 1.71397E-06-5.26901E-05 0.00000E+00 0.00000E+00 0.00000E+00 0.00000E+00 0.00000E+00 0.00000E+00 1.05538E-03 1.09621E-03 1.01073E-02
      180  0.00000E+00 3.31805E-06-5.26901E-05 0.00000E+00 0.00000E+00 0.00000E+00 0.00000E+00 0.00000E+00 0.00000E+00 6.80400E-20 1.11462E-03 1.01073E-02
      188  1.74589E-06 2.02619E-06-5.26901E-05 0.00000E+00 0.00000E+00 0.00000E+00 0.00000E+00 0.00000E+00 0.00000E+00 1.83265E-03 1.89393E-03 1.01073E-02
      210  5.80126E-06 0.00000E+00-5.26901E-05 0.00000E+00 0.00000E+00 0.00000E+00 0.00000E+00 0.00000E+00 0.00000E+00 2.22830E-03 0.00000E+00 1.01073E-02
      211  1.33843E-06 1.93503E-06-5.26901E-05 0.00000E+00 0.00000E+00 0.00000E+00 0.00000E+00 0.00000E+00 0.00000E+00 2.08394E-03 9.91087E-04 1.01073E-02
      212  4.43178E-06 0.00000E+00-5.26901E-05 0.00000E+00 0.00000E+00 0.00000E+00 0.00000E+00 0.00000E+00 0.00000E+00 1.11573E-03 0.00000E+00 1.01073E-02
      220  0.00000E+00 0.00000E+00-5.26901E-05 0.00000E+00 0.00000E+00 0.00000E+00 0.00000E+00 0.00000E+00 0.00000E+00 0.00000E+00 0.00000E+00 1.01073E-02
      228  0.00000E+00 6.18030E-06-5.26901E-05 0.00000E+00 0.00000E+00 0.00000E+00 0.00000E+00 0.00000E+00 0.00000E+00 2.72200E-19 4.45118E-03 1.01073E-02
      787  0.00000E+00 5.97365E-06-5.26901E-05 0.00000E+00 0.00000E+00 0.00000E+00 0.00000E+00 0.00000E+00 0.00000E+00 3.35400E-19 5.48287E-03 1.01073E-02
      788  0.00000E+00 5.49873E-06-5.26901E-05 0.00000E+00 0.00000E+00 0.00000E+00 0.00000E+00 0.00000E+00 0.00000E+00 3.98500E-19 6.51430E-03 1.01073E-02
      789  0.00000E+00 4.90441E-06-5.26901E-05 0.00000E+00 0.00000E+00 0.00000E+00 0.00000E+00 0.00000E+00 0.00000E+00 4.61700E-19 7.54550E-03 1.01073E-02
      790  0.00000E+00 4.43444E-06-5.26901E-05 0.00000E+00 0.00000E+00 0.00000E+00 0.00000E+00 0.00000E+00 0.00000E+00 5.24900E-19 8.57693E-03 1.01073E-02
      791  0.00000E+00 3.99495E-06-5.26901E-05 0.00000E+00 0.00000E+00 0.00000E+00 0.00000E+00 0.00000E+00 0.00000E+00 5.88100E-19 9.60839E-03 1.01073E-02
      792  0.00000E+00 3.55406E-06-5.26901E-05 0.00000E+00 0.00000E+00 0.00000E+00 0.00000E+00 0.00000E+00 0.00000E+00 6.51300E-19 1.06399E-02 1.01073E-02
      793  0.00000E+00 3.11672E-06-5.26901E-05 0.00000E+00 0.00000E+00 0.00000E+00 0.00000E+00 0.00000E+00 0.00000E+00 7.14500E-19 1.16712E-02 1.01073E-02
      794  0.00000E+00 2.64241E-06-5.26901E-05 0.00000E+00 0.00000E+00 0.00000E+00 0.00000E+00 0.00000E+00 0.00000E+00 7.77700E-19 1.27026E-02 1.01073E-02
      955  1.12415E-06 3.52626E-06-5.26901E-05 0.00000E+00 0.00000E+00 0.00000E+00 0.00000E+00 0.00000E+00 0.00000E+00 3.25062E-03 7.93623E-03 1.01073E-02
      956  1.08372E-06 3.28935E-06-5.26901E-05 0.00000E+00 0.00000E+00 0.00000E+00 0.00000E+00 0.00000E+00 0.00000E+00 3.63768E-03 8.89249E-03 1.01073E-02
      957  2.22089E-06 2.81527E-06-5.26901E-05 0.00000E+00 0.00000E+00 0.00000E+00 0.00000E+00 0.00000E+00 0.00000E+00 6.06822E-03 6.06022E-03 1.01073E-02
      958  2.22141E-06 2.64276E-06-5.26901E-05 0.00000E+00 0.00000E+00 0.00000E+00 0.00000E+00 0.00000E+00 0.00000E+00 6.79892E-03 6.78864E-03 1.01073E-02
      959  2.68748E-06 2.00312E-06-5.26901E-05 0.00000E+00 0.00000E+00 0.00000E+00 0.00000E+00 0.00000E+00 0.00000E+00 7.93249E-03 3.25880E-03 1.01073E-02
      960  2.66058E-06 1.93405E-06-5.26901E-05 0.00000E+00 0.00000E+00 0.00000E+00 0.00000E+00 0.00000E+00 0.00000E+00 8.88816E-03 3.64773E-03 1.01073E-02
      961  2.89594E-06 0.00000E+00-5.26901E-05 0.00000E+00 0.00000E+00 0.00000E+00 0.00000E+00 0.00000E+00 0.00000E+00 8.57540E-03 0.00000E+00 1.01073E-02
      962  2.80640E-06 0.00000E+00-5.26901E-05 0.00000E+00 0.00000E+00 0.00000E+00 0.00000E+00 0.00000E+00 0.00000E+00 9.60721E-03 0.00000E+00 1.01073E-02
      975  1.02589E-06 3.02250E-06-5.26901E-05 0.00000E+00 0.00000E+00 0.00000E+00 0.00000E+00 0.00000E+00 0.00000E+00 4.41193E-03 1.08053E-02 1.01073E-02
      977  1.13188E-06 3.34236E-06-5.26901E-05 0.00000E+00 0.00000E+00 0.00000E+00 0.00000E+00 0.00000E+00 0.00000E+00 4.79923E-03 1.17621E-02 1.01073E-02
      978  2.24268E-06 2.39836E-06-5.26901E-05 0.00000E+00 0.00000E+00 0.00000E+00 0.00000E+00 0.00000E+00 0.00000E+00 8.26024E-03 8.24560E-03 1.01073E-02
      980  1.98892E-06 2.03080E-06-5.26901E-05 0.00000E+00 0.00000E+00 0.00000E+00 0.00000E+00 0.00000E+00 0.00000E+00 8.99069E-03 8.97383E-03 1.01073E-02
      981  2.56022E-06 1.75365E-06-5.26901E-05 0.00000E+00 0.00000E+00 0.00000E+00 0.00000E+00 0.00000E+00 0.00000E+00 1.07995E-02 4.42565E-03 1.01073E-02
      983  2.40820E-06 1.63867E-06-5.26901E-05 0.00000E+00 0.00000E+00 0.00000E+00 0.00000E+00 0.00000E+00 0.00000E+00 1.17551E-02 4.81464E-03 1.01073E-02
      984  2.59033E-06 0.00000E+00-5.26901E-05 0.00000E+00 0.00000E+00 0.00000E+00 0.00000E+00 0.00000E+00 0.00000E+00 1.16707E-02 0.00000E+00 1.01073E-02
      986  2.53236E-06 0.00000E+00-5.26901E-05 0.00000E+00 0.00000E+00 0.00000E+00 0.00000E+00 0.00000E+00 0.00000E+00 1.27025E-02 0.00000E+00 1.01073E-02
     1059  1.15802E-06 3.76104E-06-5.26901E-05 0.00000E+00 0.00000E+00 0.00000E+00 0.00000E+00 0.00000E+00 0.00000E+00 2.86346E-03 6.97996E-03 1.01073E-02
     1061  2.21815E-06 3.04870E-06-5.26901E-05 0.00000E+00 0.00000E+00 0.00000E+00 0.00000E+00 0.00000E+00 0.00000E+00 5.33742E-03 5.33185E-03 1.01073E-02
     1063  2.69749E-06 2.08999E-06-5.26901E-05 0.00000E+00 0.00000E+00 0.00000E+00 0.00000E+00 0.00000E+00 0.00000E+00 6.97670E-03 2.86979E-03 1.01073E-02
     1065  2.98344E-06 0.00000E+00-5.26901E-05 0.00000E+00 0.00000E+00 0.00000E+00 0.00000E+00 0.00000E+00 0.00000E+00 7.54358E-03 0.00000E+00 1.01073E-02
[...]
      164  0.00000E+00 8.78326E-06-2.70693E-04 0.00000E+00 0.00000E+00 0.00000E+00 0.00000E+00 0.00000E+00 0.00000E+00 2.04100E-19 3.34258E-03 9.88931E-03
      179  1.28784E-05 4.51417E-06-2.70693E-04 0.00000E+00 0.00000E+00 0.00000E+00 0.00000E+00 0.00000E+00 0.00000E+00 1.06718E-03 1.09901E-03 9.88931E-03
      180  0.00000E+00 1.04432E-05-2.70693E-04 0.00000E+00 0.00000E+00 0.00000E+00 0.00000E+00 0.00000E+00 0.00000E+00 6.80400E-20 1.12174E-03 9.88931E-03
      188  3.97557E-06 5.00064E-06-2.70693E-04 0.00000E+00 0.00000E+00 0.00000E+00 0.00000E+00 0.00000E+00 0.00000E+00 1.83488E-03 1.89690E-03 9.88931E-03
      210  1.02096E-05 0.00000E+00-2.70693E-04 0.00000E+00 0.00000E+00 0.00000E+00 0.00000E+00 0.00000E+00 0.00000E+00 2.23271E-03 0.00000E+00 9.88931E-03
      211  6.66952E-06 4.71904E-06-2.70693E-04 0.00000E+00 0.00000E+00 0.00000E+00 0.00000E+00 0.00000E+00 0.00000E+00 2.08927E-03 9.93871E-04 9.88931E-03
      212  1.11711E-05 0.00000E+00-2.70693E-04 0.00000E+00 0.00000E+00 0.00000E+00 0.00000E+00 0.00000E+00 0.00000E+00 1.12247E-03 0.00000E+00 9.88931E-03
      220  0.00000E+00 0.00000E+00-2.70693E-04 0.00000E+00 0.00000E+00 0.00000E+00 0.00000E+00 0.00000E+00 0.00000E+00 0.00000E+00 0.00000E+00 9.88931E-03
      228  0.00000E+00 8.84142E-06-2.70693E-04 0.00000E+00 0.00000E+00 0.00000E+00 0.00000E+00 0.00000E+00 0.00000E+00 2.72200E-19 4.45384E-03 9.88931E-03
      787  0.00000E+00 8.22466E-06-2.70693E-04 0.00000E+00 0.00000E+00 0.00000E+00 0.00000E+00 0.00000E+00 0.00000E+00 3.35400E-19 5.48512E-03 9.88931E-03
      788  0.00000E+00 7.43419E-06-2.70693E-04 0.00000E+00 0.00000E+00 0.00000E+00 0.00000E+00 0.00000E+00 0.00000E+00 3.98500E-19 6.51623E-03 9.88931E-03
      789  0.00000E+00 6.57923E-06-2.70693E-04 0.00000E+00 0.00000E+00 0.00000E+00 0.00000E+00 0.00000E+00 0.00000E+00 4.61700E-19 7.54718E-03 9.88931E-03
      790  0.00000E+00 5.90296E-06-2.70693E-04 0.00000E+00 0.00000E+00 0.00000E+00 0.00000E+00 0.00000E+00 0.00000E+00 5.24900E-19 8.57840E-03 9.88931E-03
      791  0.00000E+00 5.39508E-06-2.70693E-04 0.00000E+00 0.00000E+00 0.00000E+00 0.00000E+00 0.00000E+00 0.00000E+00 5.88100E-19 9.60980E-03 9.88931E-03
      792  0.00000E+00 4.88873E-06-2.70693E-04 0.00000E+00 0.00000E+00 0.00000E+00 0.00000E+00 0.00000E+00 0.00000E+00 6.51300E-19 1.06412E-02 9.88931E-03
      793  0.00000E+00 4.35718E-06-2.70693E-04 0.00000E+00 0.00000E+00 0.00000E+00 0.00000E+00 0.00000E+00 0.00000E+00 7.14500E-19 1.16725E-02 9.88931E-03
      794  0.00000E+00 4.19696E-06-2.70693E-04 0.00000E+00 0.00000E+00 0.00000E+00 0.00000E+00 0.00000E+00 0.00000E+00 7.77700E-19 1.27042E-02 9.88931E-03
      955  1.88962E-06 4.85184E-06-2.70693E-04 0.00000E+00 0.00000E+00 0.00000E+00 0.00000E+00 0.00000E+00 0.00000E+00 3.25139E-03 7.93755E-03 9.88931E-03
      956  1.79649E-06 4.61761E-06-2.70693E-04 0.00000E+00 0.00000E+00 0.00000E+00 0.00000E+00 0.00000E+00 0.00000E+00 3.63840E-03 8.89382E-03 9.88931E-03
      957  3.90010E-06 4.10341E-06-2.70693E-04 0.00000E+00 0.00000E+00 0.00000E+00 0.00000E+00 0.00000E+00 0.00000E+00 6.06990E-03 6.06150E-03 9.88931E-03
      958  3.79730E-06 3.91175E-06-2.70693E-04 0.00000E+00 0.00000E+00 0.00000E+00 0.00000E+00 0.00000E+00 0.00000E+00 6.80050E-03 6.78991E-03 9.88931E-03
      959  5.22446E-06 2.60497E-06-2.70693E-04 0.00000E+00 0.00000E+00 0.00000E+00 0.00000E+00 0.00000E+00 0.00000E+00 7.93502E-03 3.25940E-03 9.88931E-03
      960  5.10228E-06 2.58925E-06-2.70693E-04 0.00000E+00 0.00000E+00 0.00000E+00 0.00000E+00 0.00000E+00 0.00000E+00 8.89060E-03 3.64839E-03 9.88931E-03
      961  5.68800E-06 0.00000E+00-2.70693E-04 0.00000E+00 0.00000E+00 0.00000E+00 0.00000E+00 0.00000E+00 0.00000E+00 8.57819E-03 0.00000E+00 9.88931E-03
      962  5.53022E-06 0.00000E+00-2.70693E-04 0.00000E+00 0.00000E+00 0.00000E+00 0.00000E+00 0.00000E+00 0.00000E+00 9.60993E-03 0.00000E+00 9.88931E-03
      975  1.60885E-06 4.33392E-06-2.70693E-04 0.00000E+00 0.00000E+00 0.00000E+00 0.00000E+00 0.00000E+00 0.00000E+00 4.41251E-03 1.08066E-02 9.88931E-03
      977  1.68616E-06 4.76483E-06-2.70693E-04 0.00000E+00 0.00000E+00 0.00000E+00 0.00000E+00 0.00000E+00 0.00000E+00 4.79979E-03 1.17636E-02 9.88931E-03
      978  3.66255E-06 3.79244E-06-2.70693E-04 0.00000E+00 0.00000E+00 0.00000E+00 0.00000E+00 0.00000E+00 0.00000E+00 8.26166E-03 8.24699E-03 9.88931E-03
      980  3.25744E-06 3.42300E-06-2.70693E-04 0.00000E+00 0.00000E+00 0.00000E+00 0.00000E+00 0.00000E+00 0.00000E+00 8.99196E-03 8.97522E-03 9.88931E-03
      981  4.82754E-06 2.52196E-06-2.70693E-04 0.00000E+00 0.00000E+00 0.00000E+00 0.00000E+00 0.00000E+00 0.00000E+00 1.08017E-02 4.42642E-03 9.88931E-03
      983  4.53370E-06 2.44573E-06-2.70693E-04 0.00000E+00 0.00000E+00 0.00000E+00 0.00000E+00 0.00000E+00 0.00000E+00 1.17572E-02 4.81545E-03 9.88931E-03
      984  5.15614E-06 0.00000E+00-2.70693E-04 0.00000E+00 0.00000E+00 0.00000E+00 0.00000E+00 0.00000E+00 0.00000E+00 1.16733E-02 0.00000E+00 9.88931E-03
      986  4.99826E-06 0.00000E+00-2.70693E-04 0.00000E+00 0.00000E+00 0.00000E+00 0.00000E+00 0.00000E+00 0.00000E+00 1.27050E-02 0.00000E+00 9.88931E-03
     1059  1.98013E-06 5.06480E-06-2.70693E-04 0.00000E+00 0.00000E+00 0.00000E+00 0.00000E+00 0.00000E+00 0.00000E+00 2.86428E-03 6.98126E-03 9.88931E-03
     1061  4.03720E-06 4.37572E-06-2.70693E-04 0.00000E+00 0.00000E+00 0.00000E+00 0.00000E+00 0.00000E+00 0.00000E+00 5.33924E-03 5.33318E-03 9.88931E-03
     1063  5.35578E-06 2.65875E-06-2.70693E-04 0.00000E+00 0.00000E+00 0.00000E+00 0.00000E+00 0.00000E+00 0.00000E+00 6.97936E-03 2.87036E-03 9.88931E-03
     1065  5.87388E-06 0.00000E+00-2.70693E-04 0.00000E+00 0.00000E+00 0.00000E+00 0.00000E+00 0.00000E+00 0.00000E+00 7.54647E-03 0.00000E+00 9.88931E-03
     1071  1.70720E-06 4.44347E-06-2.70693E-04 0.00000E+00 0.00000E+00 0.00000E+00 0.00000E+00 0.00000E+00 0.00000E+00 4.02551E-03 9.85014E-03 9.88931E-03
     1072  3.71252E-06 3.80628E-06-2.70693E-04 0.00000E+00 0.00000E+00 0.00000E+00 0.00000E+00 0.00000E+00 0.00000E+00 7.53111E-03 7.51841E-03 9.88931E-03
     1073  4.98720E-06 2.57778E-06-2.70693E-04 0.00000E+00 0.00000E+00 0.00000E+00 0.00000E+00 0.00000E+00 0.00000E+00 9.84619E-03 4.03738E-03 9.88931E-03
     1074  5.35587E-06 0.00000E+00-2.70693E-04 0.00000E+00 0.00000E+00 0.00000E+00 0.00000E+00 0.00000E+00 0.00000E+00 1.06417E-02 0.00000E+00 9.88931E-03
     1111  2.09992E-06 5.31459E-06-2.70693E-04 0.00000E+00 0.00000E+00 0.00000E+00 0.00000E+00 0.00000E+00 0.00000E+00 2.47720E-03 6.02501E-03 9.88931E-03
     1112  4.16597E-06 4.63651E-06-2.70693E-04 0.00000E+00 0.00000E+00 0.00000E+00 0.00000E+00 0.00000E+00 0.00000E+00 4.60867E-03 4.60494E-03 9.88931E-03
     1113  5.48325E-06 2.72404E-06-2.70693E-04 0.00000E+00 0.00000E+00 0.00000E+00 0.00000E+00 0.00000E+00 0.00000E+00 6.02378E-03 2.48152E-03 9.88931E-03
     1114  6.17683E-06 0.00000E+00-2.70693E-04 0.00000E+00 0.00000E+00 0.00000E+00 0.00000E+00 0.00000E+00 0.00000E+00 6.51498E-03 0.00000E+00 9.88931E-03
     1135  2.23683E-06 5.61754E-06-2.70693E-04 0.00000E+00 0.00000E+00 0.00000E+00 0.00000E+00 0.00000E+00 0.00000E+00 2.09024E-03 5.06882E-03 9.88931E-03
     1136  4.30372E-06 4.79551E-06-2.70693E-04 0.00000E+00 0.00000E+00 0.00000E+00 0.00000E+00 0.00000E+00 0.00000E+00 3.87810E-03 3.87650E-03 9.88931E-03
     1137  5.63149E-06 2.73898E-06-2.70693E-04 0.00000E+00 0.00000E+00 0.00000E+00 0.00000E+00 0.00000E+00 0.00000E+00 5.06813E-03 2.09254E-03 9.88931E-03
     1138  6.70233E-06 0.00000E+00-2.70693E-04 0.00000E+00 0.00000E+00 0.00000E+00 0.00000E+00 0.00000E+00 0.00000E+00 5.48360E-03 0.00000E+00 9.88931E-03



 n o d a l   p r i n t   o u t   f o r   t i m e  s t e p    2711                              ( at time 2.8012892E+01 )

 nodal point  x-disp     y-disp      z-disp      x-vel       y-vel       z-vel      x-accl      y-accl      z-accl      x-coor      y-coor      z-coor
        1  3.01575E-04 0.00000E+00 0.00000E+00 0.00000E+00 0.00000E+00 0.00000E+00 0.00000E+00 0.00000E+00 0.00000E+00 3.47658E-03 0.00000E+00-8.88000E-19
        2  1.77539E-04 0.00000E+00 0.00000E+00 0.00000E+00 0.00000E+00 0.00000E+00 0.00000E+00 0.00000E+00 0.00000E+00 2.55884E-03 0.00000E+00 0.00000E+00
        3  9.02621E-05 0.00000E+00 0.00000E+00 0.00000E+00 0.00000E+00 0.00000E+00 0.00000E+00 0.00000E+00 0.00000E+00 1.67776E-03 0.00000E+00 0.00000E+00
        4  2.71332E-05 0.00000E+00 0.00000E+00 0.00000E+00 0.00000E+00 0.00000E+00 0.00000E+00 0.00000E+00 0.00000E+00 8.20883E-04 0.00000E+00 0.00000E+00
        5  0.00000E+00 0.00000E+00 0.00000E+00 0.00000E+00 0.00000E+00 0.00000E+00 0.00000E+00 0.00000E+00 0.00000E+00 0.00000E+00 0.00000E+00 0.00000E+00
        6  0.00000E+00 2.97153E-05 0.00000E+00 0.00000E+00 0.00000E+00 0.00000E+00 0.00000E+00 0.00000E+00 0.00000E+00 4.86000E-20 8.23465E-04 0.00000E+00
        7  0.00000E+00 7.05523E-05 0.00000E+00 0.00000E+00 0.00000E+00 0.00000E+00 0.00000E+00 0.00000E+00 0.00000E+00 9.72100E-20 1.65805E-03 0.00000E+00
        8  0.00000E+00 1.45649E-04 0.00000E+00 0.00000E+00 0.00000E+00 0.00000E+00 0.00000E+00 0.00000E+00 0.00000E+00 1.45800E-19 2.52695E-03 0.00000E+00
        9  0.00000E+00 2.35326E-04 0.00000E+00 0.00000E+00 0.00000E+00 0.00000E+00 0.00000E+00 0.00000E+00 0.00000E+00 1.94400E-19 3.41033E-03 0.00000E+00
       10  1.21989E-04 2.42508E-04 0.00000E+00 0.00000E+00 0.00000E+00 0.00000E+00 0.00000E+00 0.00000E+00 0.00000E+00 1.33699E-03 3.17581E-03 0.00000E+00
       11  1.87418E-04 2.13640E-04 0.00000E+00 0.00000E+00 0.00000E+00 0.00000E+00 0.00000E+00 0.00000E+00 0.00000E+00 2.43252E-03 2.45874E-03 0.00000E+00
       12  2.43249E-04 1.34388E-04 0.00000E+00 0.00000E+00 0.00000E+00 0.00000E+00 0.00000E+00 0.00000E+00 0.00000E+00 3.17655E-03 1.34939E-03 0.00000E+00
       13  1.49580E-04 1.26490E-04 0.00000E+00 0.00000E+00 0.00000E+00 0.00000E+00 0.00000E+00 0.00000E+00 0.00000E+00 1.45788E-03 1.47839E-03 0.00000E+00
       14  1.22544E-04 5.93381E-05 0.00000E+00 0.00000E+00 0.00000E+00 0.00000E+00 0.00000E+00 0.00000E+00 0.00000E+00 1.61084E-03 7.66315E-04 0.00000E+00
       15  8.87658E-05 1.47981E-04 0.00000E+00 0.00000E+00 0.00000E+00 0.00000E+00 0.00000E+00 0.00000E+00 0.00000E+00 7.58276E-04 1.65498E-03 0.00000E+00
       16  5.86991E-05 8.54250E-05 0.00000E+00 0.00000E+00 0.00000E+00 0.00000E+00 0.00000E+00 0.00000E+00 0.00000E+00 8.12337E-04 8.67762E-04 0.00000E+00
       17  1.70948E-04 1.70328E-04 0.00000E+00 0.00000E+00 0.00000E+00 0.00000E+00 0.00000E+00 0.00000E+00 0.00000E+00 1.90725E-03 1.93783E-03 0.00000E+00
       18  9.73211E-05 2.04265E-04 0.00000E+00 0.00000E+00 0.00000E+00 0.00000E+00 0.00000E+00 0.00000E+00 0.00000E+00 1.01745E-03 2.39537E-03 0.00000E+00
       19  1.71324E-04 8.62897E-05 0.00000E+00 0.00000E+00 0.00000E+00 0.00000E+00 0.00000E+00 0.00000E+00 0.00000E+00 2.33462E-03 1.03715E-03 0.00000E+00
      105  3.16128E-06 5.74114E-06-2.80129E-04 0.00000E+00 0.00000E+00 0.00000E+00 0.00000E+00 0.00000E+00 0.00000E+00 1.29056E-03 3.07194E-03 9.87987E-03
      106  5.26664E-06 4.49037E-06-2.80129E-04 0.00000E+00 0.00000E+00 0.00000E+00 0.00000E+00 0.00000E+00 0.00000E+00 2.43527E-03 2.47809E-03 9.87987E-03
      107  4.73887E-06 4.67095E-06-2.80129E-04 0.00000E+00 0.00000E+00 0.00000E+00 0.00000E+00 0.00000E+00 0.00000E+00 3.14774E-03 3.14787E-03 9.87987E-03
      108  2.80307E-06 5.81350E-06-2.80129E-04 0.00000E+00 0.00000E+00 0.00000E+00 0.00000E+00 0.00000E+00 0.00000E+00 1.70360E-03 4.11261E-03 9.87987E-03
      137  6.23023E-06 2.49797E-06-2.80129E-04 0.00000E+00 0.00000E+00 0.00000E+00 0.00000E+00 0.00000E+00 0.00000E+00 4.11293E-03 1.70330E-03 9.87987E-03
      138  6.74051E-06 2.10473E-06-2.80129E-04 0.00000E+00 0.00000E+00 0.00000E+00 0.00000E+00 0.00000E+00 0.00000E+00 3.03394E-03 1.33260E-03 9.87987E-03
      139  9.02523E-06 0.00000E+00-2.80129E-04 0.00000E+00 0.00000E+00 0.00000E+00 0.00000E+00 0.00000E+00 0.00000E+00 3.34283E-03 0.00000E+00 9.87987E-03
      140  7.84759E-06 0.00000E+00-2.80129E-04 0.00000E+00 0.00000E+00 0.00000E+00 0.00000E+00 0.00000E+00 0.00000E+00 4.45285E-03 0.00000E+00 9.87987E-03
      162  0.00000E+00 1.52387E-05-2.80129E-04 0.00000E+00 0.00000E+00 0.00000E+00 0.00000E+00 0.00000E+00 0.00000E+00 1.36100E-19 2.23774E-03 9.87987E-03
      163  6.28487E-06 1.12761E-05-2.80129E-04 0.00000E+00 0.00000E+00 0.00000E+00 0.00000E+00 0.00000E+00 0.00000E+00 9.43016E-04 2.11998E-03 9.87987E-03
      164  0.00000E+00 8.61557E-06-2.80129E-04 0.00000E+00 0.00000E+00 0.00000E+00 0.00000E+00 0.00000E+00 0.00000E+00 2.04100E-19 3.34242E-03 9.87987E-03
      179  1.33138E-05 4.54442E-06-2.80129E-04 0.00000E+00 0.00000E+00 0.00000E+00 0.00000E+00 0.00000E+00 0.00000E+00 1.06761E-03 1.09904E-03 9.87987E-03
      180  0.00000E+00 1.10428E-05-2.80129E-04 0.00000E+00 0.00000E+00 0.00000E+00 0.00000E+00 0.00000E+00 0.00000E+00 6.80400E-20 1.12234E-03 9.87987E-03
      188  4.02629E-06 5.30500E-06-2.80129E-04 0.00000E+00 0.00000E+00 0.00000E+00 0.00000E+00 0.00000E+00 0.00000E+00 1.83493E-03 1.89720E-03 9.87987E-03
      210  1.02044E-05 0.00000E+00-2.80129E-04 0.00000E+00 0.00000E+00 0.00000E+00 0.00000E+00 0.00000E+00 0.00000E+00 2.23270E-03 0.00000E+00 9.87987E-03
      211  7.34143E-06 5.00595E-06-2.80129E-04 0.00000E+00 0.00000E+00 0.00000E+00 0.00000E+00 0.00000E+00 0.00000E+00 2.08994E-03 9.94158E-04 9.87987E-03
      212  1.26942E-05 0.00000E+00-2.80129E-04 0.00000E+00 0.00000E+00 0.00000E+00 0.00000E+00 0.00000E+00 0.00000E+00 1.12399E-03 0.00000E+00 9.87987E-03
      220  0.00000E+00 0.00000E+00-2.80129E-04 0.00000E+00 0.00000E+00 0.00000E+00 0.00000E+00 0.00000E+00 0.00000E+00 0.00000E+00 0.00000E+00 9.87987E-03
      228  0.00000E+00 8.57787E-06-2.80129E-04 0.00000E+00 0.00000E+00 0.00000E+00 0.00000E+00 0.00000E+00 0.00000E+00 2.72200E-19 4.45358E-03 9.87987E-03
      787  0.00000E+00 8.00594E-06-2.80129E-04 0.00000E+00 0.00000E+00 0.00000E+00 0.00000E+00 0.00000E+00 0.00000E+00 3.35400E-19 5.48491E-03 9.87987E-03
      788  0.00000E+00 7.24502E-06-2.80129E-04 0.00000E+00 0.00000E+00 0.00000E+00 0.00000E+00 0.00000E+00 0.00000E+00 3.98500E-19 6.51605E-03 9.87987E-03
      789  0.00000E+00 6.41165E-06-2.80129E-04 0.00000E+00 0.00000E+00 0.00000E+00 0.00000E+00 0.00000E+00 0.00000E+00 4.61700E-19 7.54701E-03 9.87987E-03
      790  0.00000E+00 5.74274E-06-2.80129E-04 0.00000E+00 0.00000E+00 0.00000E+00 0.00000E+00 0.00000E+00 0.00000E+00 5.24900E-19 8.57824E-03 9.87987E-03
      791  0.00000E+00 5.26428E-06-2.80129E-04 0.00000E+00 0.00000E+00 0.00000E+00 0.00000E+00 0.00000E+00 0.00000E+00 5.88100E-19 9.60966E-03 9.87987E-03
      792  0.00000E+00 4.77715E-06-2.80129E-04 0.00000E+00 0.00000E+00 0.00000E+00 0.00000E+00 0.00000E+00 0.00000E+00 6.51300E-19 1.06411E-02 9.87987E-03
      793  0.00000E+00 4.26931E-06-2.80129E-04 0.00000E+00 0.00000E+00 0.00000E+00 0.00000E+00 0.00000E+00 0.00000E+00 7.14500E-19 1.16724E-02 9.87987E-03
      794  0.00000E+00 4.16753E-06-2.80129E-04 0.00000E+00 0.00000E+00 0.00000E+00 0.00000E+00 0.00000E+00 0.00000E+00 7.77700E-19 1.27042E-02 9.87987E-03
      955  1.86124E-06 4.78666E-06-2.80129E-04 0.00000E+00 0.00000E+00 0.00000E+00 0.00000E+00 0.00000E+00 0.00000E+00 3.25136E-03 7.93749E-03 9.87987E-03
      956  1.75352E-06 4.57091E-06-2.80129E-04 0.00000E+00 0.00000E+00 0.00000E+00 0.00000E+00 0.00000E+00 0.00000E+00 3.63835E-03 8.89377E-03 9.87987E-03
      957  3.91452E-06 4.12909E-06-2.80129E-04 0.00000E+00 0.00000E+00 0.00000E+00 0.00000E+00 0.00000E+00 0.00000E+00 6.06991E-03 6.06153E-03 9.87987E-03
      958  3.78918E-06 3.96219E-06-2.80129E-04 0.00000E+00 0.00000E+00 0.00000E+00 0.00000E+00 0.00000E+00 0.00000E+00 6.80049E-03 6.78996E-03 9.87987E-03
      959  5.34920E-06 2.56599E-06-2.80129E-04 0.00000E+00 0.00000E+00 0.00000E+00 0.00000E+00 0.00000E+00 0.00000E+00 7.93515E-03 3.25937E-03 9.87987E-03
      960  5.19753E-06 2.55390E-06-2.80129E-04 0.00000E+00 0.00000E+00 0.00000E+00 0.00000E+00 0.00000E+00 0.00000E+00 8.89070E-03 3.64835E-03 9.87987E-03
      961  5.80275E-06 0.00000E+00-2.80129E-04 0.00000E+00 0.00000E+00 0.00000E+00 0.00000E+00 0.00000E+00 0.00000E+00 8.57830E-03 0.00000E+00 9.87987E-03
      962  5.61649E-06 0.00000E+00-2.80129E-04 0.00000E+00 0.00000E+00 0.00000E+00 0.00000E+00 0.00000E+00 0.00000E+00 9.61002E-03 0.00000E+00 9.87987E-03
      975  1.53226E-06 4.31191E-06-2.80129E-04 0.00000E+00 0.00000E+00 0.00000E+00 0.00000E+00 0.00000E+00 0.00000E+00 4.41243E-03 1.08066E-02 9.87987E-03
      977  1.57294E-06 4.72515E-06-2.80129E-04 0.00000E+00 0.00000E+00 0.00000E+00 0.00000E+00 0.00000E+00 0.00000E+00 4.79967E-03 1.17635E-02 9.87987E-03
      978  3.61855E-06 3.89482E-06-2.80129E-04 0.00000E+00 0.00000E+00 0.00000E+00 0.00000E+00 0.00000E+00 0.00000E+00 8.26162E-03 8.24709E-03 9.87987E-03
      980  3.21459E-06 3.55813E-06-2.80129E-04 0.00000E+00 0.00000E+00 0.00000E+00 0.00000E+00 0.00000E+00 0.00000E+00 8.99191E-03 8.97536E-03 9.87987E-03
      981  4.89167E-06 2.49323E-06-2.80129E-04 0.00000E+00 0.00000E+00 0.00000E+00 0.00000E+00 0.00000E+00 0.00000E+00 1.08018E-02 4.42639E-03 9.87987E-03
      983  4.59888E-06 2.42547E-06-2.80129E-04 0.00000E+00 0.00000E+00 0.00000E+00 0.00000E+00 0.00000E+00 0.00000E+00 1.17573E-02 4.81543E-03 9.87987E-03
      984  5.21212E-06 0.00000E+00-2.80129E-04 0.00000E+00 0.00000E+00 0.00000E+00 0.00000E+00 0.00000E+00 0.00000E+00 1.16733E-02 0.00000E+00 9.87987E-03
      986  5.03365E-06 0.00000E+00-2.80129E-04 0.00000E+00 0.00000E+00 0.00000E+00 0.00000E+00 0.00000E+00 0.00000E+00 1.27050E-02 0.00000E+00 9.87987E-03
     1059  1.96916E-06 4.98846E-06-2.80129E-04 0.00000E+00 0.00000E+00 0.00000E+00 0.00000E+00 0.00000E+00 0.00000E+00 2.86427E-03 6.98119E-03 9.87987E-03
     1061  4.07557E-06 4.37814E-06-2.80129E-04 0.00000E+00 0.00000E+00 0.00000E+00 0.00000E+00 0.00000E+00 0.00000E+00 5.33928E-03 5.33318E-03 9.87987E-03
     1063  5.51952E-06 2.61920E-06-2.80129E-04 0.00000E+00 0.00000E+00 0.00000E+00 0.00000E+00 0.00000E+00 0.00000E+00 6.97952E-03 2.87032E-03 9.87987E-03
     1065  6.02263E-06 0.00000E+00-2.80129E-04 0.00000E+00 0.00000E+00 0.00000E+00 0.00000E+00 0.00000E+00 0.00000E+00 7.54662E-03 0.00000E+00 9.87987E-03
     1071  1.65086E-06 4.41403E-06-2.80129E-04 0.00000E+00 0.00000E+00 0.00000E+00 0.00000E+00 0.00000E+00 0.00000E+00 4.02545E-03 9.85011E-03 9.87987E-03
     1072  3.68497E-06 3.88199E-06-2.80129E-04 0.00000E+00 0.00000E+00 0.00000E+00 0.00000E+00 0.00000E+00 0.00000E+00 7.53108E-03 7.51848E-03 9.87987E-03
     1073  5.06134E-06 2.54604E-06-2.80129E-04 0.00000E+00 0.00000E+00 0.00000E+00 0.00000E+00 0.00000E+00 0.00000E+00 9.84626E-03 4.03735E-03 9.87987E-03
     1074  5.42560E-06 0.00000E+00-2.80129E-04 0.00000E+00 0.00000E+00 0.00000E+00 0.00000E+00 0.00000E+00 0.00000E+00 1.06417E-02 0.00000E+00 9.87987E-03
     1111  2.11385E-06 5.23381E-06-2.80129E-04 0.00000E+00 0.00000E+00 0.00000E+00 0.00000E+00 0.00000E+00 0.00000E+00 2.47721E-03 6.02493E-03 9.87987E-03
     1112  4.23855E-06 4.61512E-06-2.80129E-04 0.00000E+00 0.00000E+00 0.00000E+00 0.00000E+00 0.00000E+00 0.00000E+00 4.60874E-03 4.60492E-03 9.87987E-03
     1113  5.69917E-06 2.69620E-06-2.80129E-04 0.00000E+00 0.00000E+00 0.00000E+00 0.00000E+00 0.00000E+00 0.00000E+00 6.02400E-03 2.48150E-03 9.87987E-03
     1114  6.36562E-06 0.00000E+00-2.80129E-04 0.00000E+00 0.00000E+00 0.00000E+00 0.00000E+00 0.00000E+00 0.00000E+00 6.51517E-03 0.00000E+00 9.87987E-03
     1135  2.30328E-06 5.56619E-06-2.80129E-04 0.00000E+00 0.00000E+00 0.00000E+00 0.00000E+00 0.00000E+00 0.00000E+00 2.09030E-03 5.06877E-03 9.87987E-03
     1136  4.43517E-06 4.76226E-06-2.80129E-04 0.00000E+00 0.00000E+00 0.00000E+00 0.00000E+00 0.00000E+00 0.00000E+00 3.87824E-03 3.87646E-03 9.87987E-03
     1137  5.92323E-06 2.71000E-06-2.80129E-04 0.00000E+00 0.00000E+00 0.00000E+00 0.00000E+00 0.00000E+00 0.00000E+00 5.06842E-03 2.09251E-03 9.87987E-03
     1138  6.93596E-06 0.00000E+00-2.80129E-04 0.00000E+00 0.00000E+00 0.00000E+00 0.00000E+00 0.00000E+00 0.00000E+00 5.48384E-03 0.00000E+00 9.87987E-03
