 LS-DYNA keyword deck by LS-PrePost                                      
                    ls-dyna smp d R14 R14.1.1s_1_ef50e1 date 06/16/2024
 single point constraint forces

 output at time =   0.00000E+00
 node=     1 local x,y,z forces =    0.0000E+00    0.0000E+00    0.0000E+00  setid=       0
 node=     1 local x,y,z moments=    0.0000E+00    0.0000E+00    0.0000E+00  setid=       0
 node=     2 local x,y,z forces =    0.0000E+00    0.0000E+00    0.0000E+00  setid=       0
 node=     2 local x,y,z moments=    0.0000E+00    0.0000E+00    0.0000E+00  setid=       0
 node=     3 local x,y,z forces =    0.0000E+00    0.0000E+00    0.0000E+00  setid=       0
 node=     3 local x,y,z moments=    0.0000E+00    0.0000E+00    0.0000E+00  setid=       0
 node=     4 local x,y,z forces =    0.0000E+00    0.0000E+00    0.0000E+00  setid=       0
 node=     4 local x,y,z moments=    0.0000E+00    0.0000E+00    0.0000E+00  setid=       0
 node=     5 local x,y,z forces =    0.0000E+00    0.0000E+00    0.0000E+00  setid=       0
 node=     5 local x,y,z moments=    0.0000E+00    0.0000E+00    0.0000E+00  setid=       0
 node=     6 local x,y,z forces =    0.0000E+00    0.0000E+00    0.0000E+00  setid=       0
 node=     6 local x,y,z moments=    0.0000E+00    0.0000E+00    0.0000E+00  setid=       0
 node=     7 local x,y,z forces =    0.0000E+00    0.0000E+00    0.0000E+00  setid=       0
 node=     7 local x,y,z moments=    0.0000E+00    0.0000E+00    0.0000E+00  setid=       0
 node=     8 local x,y,z forces =    0.0000E+00    0.0000E+00    0.0000E+00  setid=       0
 node=     8 local x,y,z moments=    0.0000E+00    0.0000E+00    0.0000E+00  setid=       0
 node=     9 local x,y,z forces =    0.0000E+00    0.0000E+00    0.0000E+00  setid=       0
 node=     9 local x,y,z moments=    0.0000E+00    0.0000E+00    0.0000E+00  setid=       0
 node=    10 local x,y,z forces =    0.0000E+00    0.0000E+00    0.0000E+00  setid=       0
 node=    10 local x,y,z moments=    0.0000E+00    0.0000E+00    0.0000E+00  setid=       0
 node=    11 local x,y,z forces =    0.0000E+00    0.0000E+00    0.0000E+00  setid=       0
 node=    11 local x,y,z moments=    0.0000E+00    0.0000E+00    0.0000E+00  setid=       0
 node=    12 local x,y,z forces =    0.0000E+00    0.0000E+00    0.0000E+00  setid=       0
 node=    12 local x,y,z moments=    0.0000E+00    0.0000E+00    0.0000E+00  setid=       0
 node=    13 local x,y,z forces =    0.0000E+00    0.0000E+00    0.0000E+00  setid=       0
 node=    13 local x,y,z moments=    0.0000E+00    0.0000E+00    0.0000E+00  setid=       0
 node=    14 local x,y,z forces =    0.0000E+00    0.0000E+00    0.0000E+00  setid=       0
 node=    14 local x,y,z moments=    0.0000E+00    0.0000E+00    0.0000E+00  setid=       0
 node=    15 local x,y,z forces =    0.0000E+00    0.0000E+00    0.0000E+00  setid=       0
 node=    15 local x,y,z moments=    0.0000E+00    0.0000E+00    0.0000E+00  setid=       0
 node=    16 local x,y,z forces =    0.0000E+00    0.0000E+00    0.0000E+00  setid=       0
 node=    16 local x,y,z moments=    0.0000E+00    0.0000E+00    0.0000E+00  setid=       0
 node=    17 local x,y,z forces =    0.0000E+00    0.0000E+00    0.0000E+00  setid=       0
 node=    17 local x,y,z moments=    0.0000E+00    0.0000E+00    0.0000E+00  setid=       0
 node=    18 local x,y,z forces =    0.0000E+00    0.0000E+00    0.0000E+00  setid=       0
 node=    18 local x,y,z moments=    0.0000E+00    0.0000E+00    0.0000E+00  setid=       0
 node=    19 local x,y,z forces =    0.0000E+00    0.0000E+00    0.0000E+00  setid=       0
 node=    19 local x,y,z moments=    0.0000E+00    0.0000E+00    0.0000E+00  setid=       0
 node=    46 local x,y,z forces =    0.0000E+00    0.0000E+00    0.0000E+00  setid=       0
 node=    46 local x,y,z moments=    0.0000E+00    0.0000E+00    0.0000E+00  setid=       0
 node=    47 local x,y,z forces =    0.0000E+00    0.0000E+00    0.0000E+00  setid=       0
 node=    47 local x,y,z moments=    0.0000E+00    0.0000E+00    0.0000E+00  setid=       0
 node=    50 local x,y,z forces =    0.0000E+00    0.0000E+00    0.0000E+00  setid=       0
 node=    50 local x,y,z moments=    0.0000E+00    0.0000E+00    0.0000E+00  setid=       0
 node=    51 local x,y,z forces =    0.0000E+00    0.0000E+00    0.0000E+00  setid=       0
 node=    51 local x,y,z moments=    0.0000E+00    0.0000E+00    0.0000E+00  setid=       0
 node=    54 local x,y,z forces =    0.0000E+00    0.0000E+00    0.0000E+00  setid=       0
 node=    54 local x,y,z moments=    0.0000E+00    0.0000E+00    0.0000E+00  setid=       0
 node=    55 local x,y,z forces =    0.0000E+00    0.0000E+00    0.0000E+00  setid=       0
 node=    55 local x,y,z moments=    0.0000E+00    0.0000E+00    0.0000E+00  setid=       0
 node=    56 local x,y,z forces =    0.0000E+00    0.0000E+00    0.0000E+00  setid=       0
 node=    56 local x,y,z moments=    0.0000E+00    0.0000E+00    0.0000E+00  setid=       0
 node=    57 local x,y,z forces =    0.0000E+00    0.0000E+00    0.0000E+00  setid=       0
 node=    57 local x,y,z moments=    0.0000E+00    0.0000E+00    0.0000E+00  setid=       0
 node=    58 local x,y,z forces =    0.0000E+00    0.0000E+00    0.0000E+00  setid=       0
 node=    58 local x,y,z moments=    0.0000E+00    0.0000E+00    0.0000E+00  setid=       0
 node=    59 local x,y,z forces =    0.0000E+00    0.0000E+00    0.0000E+00  setid=       0
 node=    59 local x,y,z moments=    0.0000E+00    0.0000E+00    0.0000E+00  setid=       0
 node=    60 local x,y,z forces =    0.0000E+00    0.0000E+00    0.0000E+00  setid=       0
 node=    60 local x,y,z moments=    0.0000E+00    0.0000E+00    0.0000E+00  setid=       0
 node=    61 local x,y,z forces =    0.0000E+00    0.0000E+00    0.0000E+00  setid=       0
 node=    61 local x,y,z moments=    0.0000E+00    0.0000E+00    0.0000E+00  setid=       0
 node=    62 local x,y,z forces =    0.0000E+00    0.0000E+00    0.0000E+00  setid=       0
 node=    62 local x,y,z moments=    0.0000E+00    0.0000E+00    0.0000E+00  setid=       0
 node=    63 local x,y,z forces =    0.0000E+00    0.0000E+00    0.0000E+00  setid=       0
 node=    63 local x,y,z moments=    0.0000E+00    0.0000E+00    0.0000E+00  setid=       0
 node=    64 local x,y,z forces =    0.0000E+00    0.0000E+00    0.0000E+00  setid=       0
 node=    64 local x,y,z moments=    0.0000E+00    0.0000E+00    0.0000E+00  setid=       0
 node=    65 local x,y,z forces =    0.0000E+00    0.0000E+00    0.0000E+00  setid=       0
 node=    65 local x,y,z moments=    0.0000E+00    0.0000E+00    0.0000E+00  setid=       0
 node=    66 local x,y,z forces =    0.0000E+00    0.0000E+00    0.0000E+00  setid=       0
 node=    66 local x,y,z moments=    0.0000E+00    0.0000E+00    0.0000E+00  setid=       0
 node=    67 local x,y,z forces =    0.0000E+00    0.0000E+00    0.0000E+00  setid=       0
 node=    67 local x,y,z moments=    0.0000E+00    0.0000E+00    0.0000E+00  setid=       0
 node=    68 local x,y,z forces =    0.0000E+00    0.0000E+00    0.0000E+00  setid=       0
 node=    68 local x,y,z moments=    0.0000E+00    0.0000E+00    0.0000E+00  setid=       0
 node=    69 local x,y,z forces =    0.0000E+00    0.0000E+00    0.0000E+00  setid=       0
 node=    69 local x,y,z moments=    0.0000E+00    0.0000E+00    0.0000E+00  setid=       0
 node=    70 local x,y,z forces =    0.0000E+00    0.0000E+00    0.0000E+00  setid=       0
 node=    70 local x,y,z moments=    0.0000E+00    0.0000E+00    0.0000E+00  setid=       0
 node=    71 local x,y,z forces =    0.0000E+00    0.0000E+00    0.0000E+00  setid=       0
 node=    71 local x,y,z moments=    0.0000E+00    0.0000E+00    0.0000E+00  setid=       0
 node=    72 local x,y,z forces =    0.0000E+00    0.0000E+00    0.0000E+00  setid=       0
 node=    72 local x,y,z moments=    0.0000E+00    0.0000E+00    0.0000E+00  setid=       0
 node=    73 local x,y,z forces =    0.0000E+00    0.0000E+00    0.0000E+00  setid=       0
 node=    73 local x,y,z moments=    0.0000E+00    0.0000E+00    0.0000E+00  setid=       0
 node=    74 local x,y,z forces =    0.0000E+00    0.0000E+00    0.0000E+00  setid=       0
 node=    74 local x,y,z moments=    0.0000E+00    0.0000E+00    0.0000E+00  setid=       0
 node=    75 local x,y,z forces =    0.0000E+00    0.0000E+00    0.0000E+00  setid=       0
 node=    75 local x,y,z moments=    0.0000E+00    0.0000E+00    0.0000E+00  setid=       0
 node=    76 local x,y,z forces =    0.0000E+00    0.0000E+00    0.0000E+00  setid=       0
 node=    76 local x,y,z moments=    0.0000E+00    0.0000E+00    0.0000E+00  setid=       0
 node=   111 local x,y,z forces =    0.0000E+00    0.0000E+00    0.0000E+00  setid=       0
 node=   111 local x,y,z moments=    0.0000E+00    0.0000E+00    0.0000E+00  setid=       0
 node=   112 local x,y,z forces =    0.0000E+00    0.0000E+00    0.0000E+00  setid=       0
 node=   112 local x,y,z moments=    0.0000E+00    0.0000E+00    0.0000E+00  setid=       0
 node=   115 local x,y,z forces =    0.0000E+00    0.0000E+00    0.0000E+00  setid=       0
 node=   115 local x,y,z moments=    0.0000E+00    0.0000E+00    0.0000E+00  setid=       0
 node=   116 local x,y,z forces =    0.0000E+00    0.0000E+00    0.0000E+00  setid=       0
 node=   116 local x,y,z moments=    0.0000E+00    0.0000E+00    0.0000E+00  setid=       0
 node=   119 local x,y,z forces =    0.0000E+00    0.0000E+00    0.0000E+00  setid=       0
 node=   119 local x,y,z moments=    0.0000E+00    0.0000E+00    0.0000E+00  setid=       0
 node=   120 local x,y,z forces =    0.0000E+00    0.0000E+00    0.0000E+00  setid=       0
 node=   120 local x,y,z moments=    0.0000E+00    0.0000E+00    0.0000E+00  setid=       0
 node=   123 local x,y,z forces =    0.0000E+00    0.0000E+00    0.0000E+00  setid=       0
 node=   123 local x,y,z moments=    0.0000E+00    0.0000E+00    0.0000E+00  setid=       0
 node=   124 local x,y,z forces =    0.0000E+00    0.0000E+00    0.0000E+00  setid=       0
 node=   124 local x,y,z moments=    0.0000E+00    0.0000E+00    0.0000E+00  setid=       0
 node=   127 local x,y,z forces =    0.0000E+00    0.0000E+00    0.0000E+00  setid=       0
 node=   127 local x,y,z moments=    0.0000E+00    0.0000E+00    0.0000E+00  setid=       0
 node=   128 local x,y,z forces =    0.0000E+00    0.0000E+00    0.0000E+00  setid=       0
 node=   128 local x,y,z moments=    0.0000E+00    0.0000E+00    0.0000E+00  setid=       0
 node=   131 local x,y,z forces =    0.0000E+00    0.0000E+00    0.0000E+00  setid=       0
 node=   131 local x,y,z moments=    0.0000E+00    0.0000E+00    0.0000E+00  setid=       0
 node=   132 local x,y,z forces =    0.0000E+00    0.0000E+00    0.0000E+00  setid=       0
 node=   132 local x,y,z moments=    0.0000E+00    0.0000E+00    0.0000E+00  setid=       0
 node=   135 local x,y,z forces =    0.0000E+00    0.0000E+00    0.0000E+00  setid=       0
 node=   135 local x,y,z moments=    0.0000E+00    0.0000E+00    0.0000E+00  setid=       0
 node=   136 local x,y,z forces =    0.0000E+00    0.0000E+00    0.0000E+00  setid=       0
 node=   136 local x,y,z moments=    0.0000E+00    0.0000E+00    0.0000E+00  setid=       0
 node=   139 local x,y,z forces =    0.0000E+00    0.0000E+00    0.0000E+00  setid=       0
 node=   139 local x,y,z moments=    0.0000E+00    0.0000E+00    0.0000E+00  setid=       0
 node=   140 local x,y,z forces =    0.0000E+00    0.0000E+00    0.0000E+00  setid=       0
 node=   140 local x,y,z moments=    0.0000E+00    0.0000E+00    0.0000E+00  setid=       0
 node=   141 local x,y,z forces =    0.0000E+00    0.0000E+00    0.0000E+00  setid=       0
 node=   141 local x,y,z moments=    0.0000E+00    0.0000E+00    0.0000E+00  setid=       0
 node=   143 local x,y,z forces =    0.0000E+00    0.0000E+00    0.0000E+00  setid=       0
 node=   143 local x,y,z moments=    0.0000E+00    0.0000E+00    0.0000E+00  setid=       0
 node=   144 local x,y,z forces =    0.0000E+00    0.0000E+00    0.0000E+00  setid=       0
 node=   144 local x,y,z moments=    0.0000E+00    0.0000E+00    0.0000E+00  setid=       0
 node=   146 local x,y,z forces =    0.0000E+00    0.0000E+00    0.0000E+00  setid=       0
 node=   146 local x,y,z moments=    0.0000E+00    0.0000E+00    0.0000E+00  setid=       0
 node=   147 local x,y,z forces =    0.0000E+00    0.0000E+00    0.0000E+00  setid=       0
 node=   147 local x,y,z moments=    0.0000E+00    0.0000E+00    0.0000E+00  setid=       0
 node=   149 local x,y,z forces =    0.0000E+00    0.0000E+00    0.0000E+00  setid=       0
 node=   149 local x,y,z moments=    0.0000E+00    0.0000E+00    0.0000E+00  setid=       0
 node=   150 local x,y,z forces =    0.0000E+00    0.0000E+00    0.0000E+00  setid=       0
 node=   150 local x,y,z moments=    0.0000E+00    0.0000E+00    0.0000E+00  setid=       0
 node=   152 local x,y,z forces =    0.0000E+00    0.0000E+00    0.0000E+00  setid=       0
 node=   152 local x,y,z moments=    0.0000E+00    0.0000E+00    0.0000E+00  setid=       0
 node=   153 local x,y,z forces =    0.0000E+00    0.0000E+00    0.0000E+00  setid=       0
 node=   153 local x,y,z moments=    0.0000E+00    0.0000E+00    0.0000E+00  setid=       0
 node=   155 local x,y,z forces =    0.0000E+00    0.0000E+00    0.0000E+00  setid=       0
 node=   155 local x,y,z moments=    0.0000E+00    0.0000E+00    0.0000E+00  setid=       0
 node=   156 local x,y,z forces =    0.0000E+00    0.0000E+00    0.0000E+00  setid=       0
 node=   156 local x,y,z moments=    0.0000E+00    0.0000E+00    0.0000E+00  setid=       0
 node=   158 local x,y,z forces =    0.0000E+00    0.0000E+00    0.0000E+00  setid=       0
 node=   158 local x,y,z moments=    0.0000E+00    0.0000E+00    0.0000E+00  setid=       0
 node=   159 local x,y,z forces =    0.0000E+00    0.0000E+00    0.0000E+00  setid=       0
 node=   159 local x,y,z moments=    0.0000E+00    0.0000E+00    0.0000E+00  setid=       0
 node=   161 local x,y,z forces =    0.0000E+00    0.0000E+00    0.0000E+00  setid=       0
 node=   161 local x,y,z moments=    0.0000E+00    0.0000E+00    0.0000E+00  setid=       0
 node=   162 local x,y,z forces =    0.0000E+00    0.0000E+00    0.0000E+00  setid=       0
 node=   162 local x,y,z moments=    0.0000E+00    0.0000E+00    0.0000E+00  setid=       0
 node=   164 local x,y,z forces =    0.0000E+00    0.0000E+00    0.0000E+00  setid=       0
 node=   164 local x,y,z moments=    0.0000E+00    0.0000E+00    0.0000E+00  setid=       0
 node=   166 local x,y,z forces =    0.0000E+00    0.0000E+00    0.0000E+00  setid=       0
 node=   166 local x,y,z moments=    0.0000E+00    0.0000E+00    0.0000E+00  setid=       0
 node=   168 local x,y,z forces =    0.0000E+00    0.0000E+00    0.0000E+00  setid=       0
 node=   168 local x,y,z moments=    0.0000E+00    0.0000E+00    0.0000E+00  setid=       0
 node=   170 local x,y,z forces =    0.0000E+00    0.0000E+00    0.0000E+00  setid=       0
 node=   170 local x,y,z moments=    0.0000E+00    0.0000E+00    0.0000E+00  setid=       0
 node=   172 local x,y,z forces =    0.0000E+00    0.0000E+00    0.0000E+00  setid=       0
 node=   172 local x,y,z moments=    0.0000E+00    0.0000E+00    0.0000E+00  setid=       0
 node=   174 local x,y,z forces =    0.0000E+00    0.0000E+00    0.0000E+00  setid=       0
 node=   174 local x,y,z moments=    0.0000E+00    0.0000E+00    0.0000E+00  setid=       0
 node=   176 local x,y,z forces =    0.0000E+00    0.0000E+00    0.0000E+00  setid=       0
 node=   176 local x,y,z moments=    0.0000E+00    0.0000E+00    0.0000E+00  setid=       0
 node=   178 local x,y,z forces =    0.0000E+00    0.0000E+00    0.0000E+00  setid=       0
 node=   178 local x,y,z moments=    0.0000E+00    0.0000E+00    0.0000E+00  setid=       0
 node=   180 local x,y,z forces =    0.0000E+00    0.0000E+00    0.0000E+00  setid=       0
 node=   180 local x,y,z moments=    0.0000E+00    0.0000E+00    0.0000E+00  setid=       0
 node=   189 local x,y,z forces =    0.0000E+00    0.0000E+00    0.0000E+00  setid=       0
 node=   189 local x,y,z moments=    0.0000E+00    0.0000E+00    0.0000E+00  setid=       0
 node=   191 local x,y,z forces =    0.0000E+00    0.0000E+00    0.0000E+00  setid=       0
 node=   191 local x,y,z moments=    0.0000E+00    0.0000E+00    0.0000E+00  setid=       0
 node=   192 local x,y,z forces =    0.0000E+00    0.0000E+00    0.0000E+00  setid=       0
 node=   192 local x,y,z moments=    0.0000E+00    0.0000E+00    0.0000E+00  setid=       0
 node=   194 local x,y,z forces =    0.0000E+00    0.0000E+00    0.0000E+00  setid=       0
 node=   194 local x,y,z moments=    0.0000E+00    0.0000E+00    0.0000E+00  setid=       0
 node=   195 local x,y,z forces =    0.0000E+00    0.0000E+00    0.0000E+00  setid=       0
 node=   195 local x,y,z moments=    0.0000E+00    0.0000E+00    0.0000E+00  setid=       0
 node=   197 local x,y,z forces =    0.0000E+00    0.0000E+00    0.0000E+00  setid=       0
 node=   197 local x,y,z moments=    0.0000E+00    0.0000E+00    0.0000E+00  setid=       0
 node=   198 local x,y,z forces =    0.0000E+00    0.0000E+00    0.0000E+00  setid=       0
 node=   198 local x,y,z moments=    0.0000E+00    0.0000E+00    0.0000E+00  setid=       0
 node=   200 local x,y,z forces =    0.0000E+00    0.0000E+00    0.0000E+00  setid=       0
 node=   200 local x,y,z moments=    0.0000E+00    0.0000E+00    0.0000E+00  setid=       0
 node=   201 local x,y,z forces =    0.0000E+00    0.0000E+00    0.0000E+00  setid=       0
 node=   201 local x,y,z moments=    0.0000E+00    0.0000E+00    0.0000E+00  setid=       0
 node=   203 local x,y,z forces =    0.0000E+00    0.0000E+00    0.0000E+00  setid=       0
 node=   203 local x,y,z moments=    0.0000E+00    0.0000E+00    0.0000E+00  setid=       0
 node=   204 local x,y,z forces =    0.0000E+00    0.0000E+00    0.0000E+00  setid=       0
 node=   204 local x,y,z moments=    0.0000E+00    0.0000E+00    0.0000E+00  setid=       0
 node=   206 local x,y,z forces =    0.0000E+00    0.0000E+00    0.0000E+00  setid=       0
 node=   206 local x,y,z moments=    0.0000E+00    0.0000E+00    0.0000E+00  setid=       0
 node=   207 local x,y,z forces =    0.0000E+00    0.0000E+00    0.0000E+00  setid=       0
 node=   207 local x,y,z moments=    0.0000E+00    0.0000E+00    0.0000E+00  setid=       0
 node=   209 local x,y,z forces =    0.0000E+00    0.0000E+00    0.0000E+00  setid=       0
 node=   209 local x,y,z moments=    0.0000E+00    0.0000E+00    0.0000E+00  setid=       0
 node=   210 local x,y,z forces =    0.0000E+00    0.0000E+00    0.0000E+00  setid=       0
 node=   210 local x,y,z moments=    0.0000E+00    0.0000E+00    0.0000E+00  setid=       0
 node=   212 local x,y,z forces =    0.0000E+00    0.0000E+00    0.0000E+00  setid=       0
 node=   212 local x,y,z moments=    0.0000E+00    0.0000E+00    0.0000E+00  setid=       0
 node=   213 local x,y,z forces =    0.0000E+00    0.0000E+00    0.0000E+00  setid=       0
 node=   213 local x,y,z moments=    0.0000E+00    0.0000E+00    0.0000E+00  setid=       0
 node=   214 local x,y,z forces =    0.0000E+00    0.0000E+00    0.0000E+00  setid=       0
 node=   214 local x,y,z moments=    0.0000E+00    0.0000E+00    0.0000E+00  setid=       0
 node=   215 local x,y,z forces =    0.0000E+00    0.0000E+00    0.0000E+00  setid=       0
 node=   215 local x,y,z moments=    0.0000E+00    0.0000E+00    0.0000E+00  setid=       0
 node=   216 local x,y,z forces =    0.0000E+00    0.0000E+00    0.0000E+00  setid=       0
 node=   216 local x,y,z moments=    0.0000E+00    0.0000E+00    0.0000E+00  setid=       0
 node=   217 local x,y,z forces =    0.0000E+00    0.0000E+00    0.0000E+00  setid=       0
 node=   217 local x,y,z moments=    0.0000E+00    0.0000E+00    0.0000E+00  setid=       0
 node=   218 local x,y,z forces =    0.0000E+00    0.0000E+00    0.0000E+00  setid=       0
 node=   218 local x,y,z moments=    0.0000E+00    0.0000E+00    0.0000E+00  setid=       0
 node=   219 local x,y,z forces =    0.0000E+00    0.0000E+00    0.0000E+00  setid=       0
 node=   219 local x,y,z moments=    0.0000E+00    0.0000E+00    0.0000E+00  setid=       0
 node=   220 local x,y,z forces =    0.0000E+00    0.0000E+00    0.0000E+00  setid=       0
 node=   220 local x,y,z moments=    0.0000E+00    0.0000E+00    0.0000E+00  setid=       0
 node=   221 local x,y,z forces =    0.0000E+00    0.0000E+00    0.0000E+00  setid=       0
 node=   221 local x,y,z moments=    0.0000E+00    0.0000E+00    0.0000E+00  setid=       0
 node=   222 local x,y,z forces =    0.0000E+00    0.0000E+00    0.0000E+00  setid=       0
 node=   222 local x,y,z moments=    0.0000E+00    0.0000E+00    0.0000E+00  setid=       0
 node=   223 local x,y,z forces =    0.0000E+00    0.0000E+00    0.0000E+00  setid=       0
 node=   223 local x,y,z moments=    0.0000E+00    0.0000E+00    0.0000E+00  setid=       0
 node=   224 local x,y,z forces =    0.0000E+00    0.0000E+00    0.0000E+00  setid=       0
 node=   224 local x,y,z moments=    0.0000E+00    0.0000E+00    0.0000E+00  setid=       0
 node=   225 local x,y,z forces =    0.0000E+00    0.0000E+00    0.0000E+00  setid=       0
 node=   225 local x,y,z moments=    0.0000E+00    0.0000E+00    0.0000E+00  setid=       0
 node=   226 local x,y,z forces =    0.0000E+00    0.0000E+00    0.0000E+00  setid=       0
 node=   226 local x,y,z moments=    0.0000E+00    0.0000E+00    0.0000E+00  setid=       0
 node=   227 local x,y,z forces =    0.0000E+00    0.0000E+00    0.0000E+00  setid=       0
 node=   227 local x,y,z moments=    0.0000E+00    0.0000E+00    0.0000E+00  setid=       0
 node=   228 local x,y,z forces =    0.0000E+00    0.0000E+00    0.0000E+00  setid=       0
 node=   228 local x,y,z moments=    0.0000E+00    0.0000E+00    0.0000E+00  setid=       0
 node=   787 local x,y,z forces =    0.0000E+00    0.0000E+00    0.0000E+00  setid=       0
 node=   787 local x,y,z moments=    0.0000E+00    0.0000E+00    0.0000E+00  setid=       0
 node=   788 local x,y,z forces =    0.0000E+00    0.0000E+00    0.0000E+00  setid=       0
 node=   788 local x,y,z moments=    0.0000E+00    0.0000E+00    0.0000E+00  setid=       0
 node=   789 local x,y,z forces =    0.0000E+00    0.0000E+00    0.0000E+00  setid=       0
 node=   789 local x,y,z moments=    0.0000E+00    0.0000E+00    0.0000E+00  setid=       0
 node=   790 local x,y,z forces =    0.0000E+00    0.0000E+00    0.0000E+00  setid=       0
 node=   790 local x,y,z moments=    0.0000E+00    0.0000E+00    0.0000E+00  setid=       0
 node=   791 local x,y,z forces =    0.0000E+00    0.0000E+00    0.0000E+00  setid=       0
 node=   791 local x,y,z moments=    0.0000E+00    0.0000E+00    0.0000E+00  setid=       0
 node=   792 local x,y,z forces =    0.0000E+00    0.0000E+00    0.0000E+00  setid=       0
 node=   792 local x,y,z moments=    0.0000E+00    0.0000E+00    0.0000E+00  setid=       0
 node=   793 local x,y,z forces =    0.0000E+00    0.0000E+00    0.0000E+00  setid=       0
 node=   793 local x,y,z moments=    0.0000E+00    0.0000E+00    0.0000E+00  setid=       0
 node=   794 local x,y,z forces =    0.0000E+00    0.0000E+00    0.0000E+00  setid=       0
 node=   794 local x,y,z moments=    0.0000E+00    0.0000E+00    0.0000E+00  setid=       0
 node=   795 local x,y,z forces =    0.0000E+00    0.0000E+00    0.0000E+00  setid=       0
 node=   795 local x,y,z moments=    0.0000E+00    0.0000E+00    0.0000E+00  setid=       0
 node=   796 local x,y,z forces =    0.0000E+00    0.0000E+00    0.0000E+00  setid=       0
 node=   796 local x,y,z moments=    0.0000E+00    0.0000E+00    0.0000E+00  setid=       0
 node=   797 local x,y,z forces =    0.0000E+00    0.0000E+00    0.0000E+00  setid=       0
 node=   797 local x,y,z moments=    0.0000E+00    0.0000E+00    0.0000E+00  setid=       0
 node=   798 local x,y,z forces =    0.0000E+00    0.0000E+00    0.0000E+00  setid=       0
 node=   798 local x,y,z moments=    0.0000E+00    0.0000E+00    0.0000E+00  setid=       0
 node=   799 local x,y,z forces =    0.0000E+00    0.0000E+00    0.0000E+00  setid=       0
 node=   799 local x,y,z moments=    0.0000E+00    0.0000E+00    0.0000E+00  setid=       0
 node=   800 local x,y,z forces =    0.0000E+00    0.0000E+00    0.0000E+00  setid=       0
 node=   800 local x,y,z moments=    0.0000E+00    0.0000E+00    0.0000E+00  setid=       0
 node=   801 local x,y,z forces =    0.0000E+00    0.0000E+00    0.0000E+00  setid=       0
 node=   801 local x,y,z moments=    0.0000E+00    0.0000E+00    0.0000E+00  setid=       0
 node=   802 local x,y,z forces =    0.0000E+00    0.0000E+00    0.0000E+00  setid=       0
 node=   802 local x,y,z moments=    0.0000E+00    0.0000E+00    0.0000E+00  setid=       0
 node=   803 local x,y,z forces =    0.0000E+00    0.0000E+00    0.0000E+00  setid=       0
 node=   803 local x,y,z moments=    0.0000E+00    0.0000E+00    0.0000E+00  setid=       0
 node=   804 local x,y,z forces =    0.0000E+00    0.0000E+00    0.0000E+00  setid=       0
 node=   804 local x,y,z moments=    0.0000E+00    0.0000E+00    0.0000E+00  setid=       0
 node=   805 local x,y,z forces =    0.0000E+00    0.0000E+00    0.0000E+00  setid=       0
 node=   805 local x,y,z moments=    0.0000E+00    0.0000E+00    0.0000E+00  setid=       0
 node=   806 local x,y,z forces =    0.0000E+00    0.0000E+00    0.0000E+00  setid=       0
 node=   806 local x,y,z moments=    0.0000E+00    0.0000E+00    0.0000E+00  setid=       0
 node=   807 local x,y,z forces =    0.0000E+00    0.0000E+00    0.0000E+00  setid=       0
 node=   807 local x,y,z moments=    0.0000E+00    0.0000E+00    0.0000E+00  setid=       0
 node=   808 local x,y,z forces =    0.0000E+00    0.0000E+00    0.0000E+00  setid=       0
 node=   808 local x,y,z moments=    0.0000E+00    0.0000E+00    0.0000E+00  setid=       0
 node=   809 local x,y,z forces =    0.0000E+00    0.0000E+00    0.0000E+00  setid=       0
 node=   809 local x,y,z moments=    0.0000E+00    0.0000E+00    0.0000E+00  setid=       0
 node=   810 local x,y,z forces =    0.0000E+00    0.0000E+00    0.0000E+00  setid=       0
 node=   810 local x,y,z moments=    0.0000E+00    0.0000E+00    0.0000E+00  setid=       0
 node=   811 local x,y,z forces =    0.0000E+00    0.0000E+00    0.0000E+00  setid=       0
 node=   811 local x,y,z moments=    0.0000E+00    0.0000E+00    0.0000E+00  setid=       0
 node=   812 local x,y,z forces =    0.0000E+00    0.0000E+00    0.0000E+00  setid=       0
 node=   812 local x,y,z moments=    0.0000E+00    0.0000E+00    0.0000E+00  setid=       0
 node=   813 local x,y,z forces =    0.0000E+00    0.0000E+00    0.0000E+00  setid=       0
 node=   813 local x,y,z moments=    0.0000E+00    0.0000E+00    0.0000E+00  setid=       0
 node=   814 local x,y,z forces =    0.0000E+00    0.0000E+00    0.0000E+00  setid=       0
 node=   814 local x,y,z moments=    0.0000E+00    0.0000E+00    0.0000E+00  setid=       0
 node=   815 local x,y,z forces =    0.0000E+00    0.0000E+00    0.0000E+00  setid=       0
 node=   815 local x,y,z moments=    0.0000E+00    0.0000E+00    0.0000E+00  setid=       0
 node=   816 local x,y,z forces =    0.0000E+00    0.0000E+00    0.0000E+00  setid=       0
 node=   816 local x,y,z moments=    0.0000E+00    0.0000E+00    0.0000E+00  setid=       0
 node=   817 local x,y,z forces =    0.0000E+00    0.0000E+00    0.0000E+00  setid=       0
 node=   817 local x,y,z moments=    0.0000E+00    0.0000E+00    0.0000E+00  setid=       0
 node=   818 local x,y,z forces =    0.0000E+00    0.0000E+00    0.0000E+00  setid=       0
 node=   818 local x,y,z moments=    0.0000E+00    0.0000E+00    0.0000E+00  setid=       0
 node=   819 local x,y,z forces =    0.0000E+00    0.0000E+00    0.0000E+00  setid=       0
 node=   819 local x,y,z moments=    0.0000E+00    0.0000E+00    0.0000E+00  setid=       0
 node=   820 local x,y,z forces =    0.0000E+00    0.0000E+00    0.0000E+00  setid=       0
 node=   820 local x,y,z moments=    0.0000E+00    0.0000E+00    0.0000E+00  setid=       0
 node=   821 local x,y,z forces =    0.0000E+00    0.0000E+00    0.0000E+00  setid=       0
 node=   821 local x,y,z moments=    0.0000E+00    0.0000E+00    0.0000E+00  setid=       0
 node=   822 local x,y,z forces =    0.0000E+00    0.0000E+00    0.0000E+00  setid=       0
 node=   822 local x,y,z moments=    0.0000E+00    0.0000E+00    0.0000E+00  setid=       0
 node=   823 local x,y,z forces =    0.0000E+00    0.0000E+00    0.0000E+00  setid=       0
 node=   823 local x,y,z moments=    0.0000E+00    0.0000E+00    0.0000E+00  setid=       0
 node=   824 local x,y,z forces =    0.0000E+00    0.0000E+00    0.0000E+00  setid=       0
 node=   824 local x,y,z moments=    0.0000E+00    0.0000E+00    0.0000E+00  setid=       0
 node=   825 local x,y,z forces =    0.0000E+00    0.0000E+00    0.0000E+00  setid=       0
 node=   825 local x,y,z moments=    0.0000E+00    0.0000E+00    0.0000E+00  setid=       0
 node=   826 local x,y,z forces =    0.0000E+00    0.0000E+00    0.0000E+00  setid=       0
 node=   826 local x,y,z moments=    0.0000E+00    0.0000E+00    0.0000E+00  setid=       0
 node=   827 local x,y,z forces =    0.0000E+00    0.0000E+00    0.0000E+00  setid=       0
 node=   827 local x,y,z moments=    0.0000E+00    0.0000E+00    0.0000E+00  setid=       0
 node=   828 local x,y,z forces =    0.0000E+00    0.0000E+00    0.0000E+00  setid=       0
 node=   828 local x,y,z moments=    0.0000E+00    0.0000E+00    0.0000E+00  setid=       0
 node=   829 local x,y,z forces =    0.0000E+00    0.0000E+00    0.0000E+00  setid=       0
 node=   829 local x,y,z moments=    0.0000E+00    0.0000E+00    0.0000E+00  setid=       0
 node=   830 local x,y,z forces =    0.0000E+00    0.0000E+00    0.0000E+00  setid=       0
 node=   830 local x,y,z moments=    0.0000E+00    0.0000E+00    0.0000E+00  setid=       0
 node=   831 local x,y,z forces =    0.0000E+00    0.0000E+00    0.0000E+00  setid=       0
 node=   831 local x,y,z moments=    0.0000E+00    0.0000E+00    0.0000E+00  setid=       0
 node=   832 local x,y,z forces =    0.0000E+00    0.0000E+00    0.0000E+00  setid=       0
 node=   832 local x,y,z moments=    0.0000E+00    0.0000E+00    0.0000E+00  setid=       0
 node=   833 local x,y,z forces =    0.0000E+00    0.0000E+00    0.0000E+00  setid=       0
 node=   833 local x,y,z moments=    0.0000E+00    0.0000E+00    0.0000E+00  setid=       0
 node=   834 local x,y,z forces =    0.0000E+00    0.0000E+00    0.0000E+00  setid=       0
 node=   834 local x,y,z moments=    0.0000E+00    0.0000E+00    0.0000E+00  setid=       0
 node=   835 local x,y,z forces =    0.0000E+00    0.0000E+00    0.0000E+00  setid=       0
 node=   835 local x,y,z moments=    0.0000E+00    0.0000E+00    0.0000E+00  setid=       0
 node=   836 local x,y,z forces =    0.0000E+00    0.0000E+00    0.0000E+00  setid=       0
 node=   836 local x,y,z moments=    0.0000E+00    0.0000E+00    0.0000E+00  setid=       0
 node=   837 local x,y,z forces =    0.0000E+00    0.0000E+00    0.0000E+00  setid=       0
 node=   837 local x,y,z moments=    0.0000E+00    0.0000E+00    0.0000E+00  setid=       0
 node=   838 local x,y,z forces =    0.0000E+00    0.0000E+00    0.0000E+00  setid=       0
 node=   838 local x,y,z moments=    0.0000E+00    0.0000E+00    0.0000E+00  setid=       0
 node=   839 local x,y,z forces =    0.0000E+00    0.0000E+00    0.0000E+00  setid=       0
 node=   839 local x,y,z moments=    0.0000E+00    0.0000E+00    0.0000E+00  setid=       0
 node=   840 local x,y,z forces =    0.0000E+00    0.0000E+00    0.0000E+00  setid=       0
 node=   840 local x,y,z moments=    0.0000E+00    0.0000E+00    0.0000E+00  setid=       0
 node=   841 local x,y,z forces =    0.0000E+00    0.0000E+00    0.0000E+00  setid=       0
 node=   841 local x,y,z moments=    0.0000E+00    0.0000E+00    0.0000E+00  setid=       0
 node=   842 local x,y,z forces =    0.0000E+00    0.0000E+00    0.0000E+00  setid=       0
 node=   842 local x,y,z moments=    0.0000E+00    0.0000E+00    0.0000E+00  setid=       0
 node=   843 local x,y,z forces =    0.0000E+00    0.0000E+00    0.0000E+00  setid=       0
 node=   843 local x,y,z moments=    0.0000E+00    0.0000E+00    0.0000E+00  setid=       0
 node=   844 local x,y,z forces =    0.0000E+00    0.0000E+00    0.0000E+00  setid=       0
 node=   844 local x,y,z moments=    0.0000E+00    0.0000E+00    0.0000E+00  setid=       0
 node=   845 local x,y,z forces =    0.0000E+00    0.0000E+00    0.0000E+00  setid=       0
 node=   845 local x,y,z moments=    0.0000E+00    0.0000E+00    0.0000E+00  setid=       0
 node=   846 local x,y,z forces =    0.0000E+00    0.0000E+00    0.0000E+00  setid=       0
 node=   846 local x,y,z moments=    0.0000E+00    0.0000E+00    0.0000E+00  setid=       0
 node=   847 local x,y,z forces =    0.0000E+00    0.0000E+00    0.0000E+00  setid=       0
 node=   847 local x,y,z moments=    0.0000E+00    0.0000E+00    0.0000E+00  setid=       0
 node=   848 local x,y,z forces =    0.0000E+00    0.0000E+00    0.0000E+00  setid=       0
 node=   848 local x,y,z moments=    0.0000E+00    0.0000E+00    0.0000E+00  setid=       0
 node=   849 local x,y,z forces =    0.0000E+00    0.0000E+00    0.0000E+00  setid=       0
 node=   849 local x,y,z moments=    0.0000E+00    0.0000E+00    0.0000E+00  setid=       0
 node=   850 local x,y,z forces =    0.0000E+00    0.0000E+00    0.0000E+00  setid=       0
 node=   850 local x,y,z moments=    0.0000E+00    0.0000E+00    0.0000E+00  setid=       0
 node=   851 local x,y,z forces =    0.0000E+00    0.0000E+00    0.0000E+00  setid=       0
 node=   851 local x,y,z moments=    0.0000E+00    0.0000E+00    0.0000E+00  setid=       0
 node=   852 local x,y,z forces =    0.0000E+00    0.0000E+00    0.0000E+00  setid=       0
 node=   852 local x,y,z moments=    0.0000E+00    0.0000E+00    0.0000E+00  setid=       0
 node=   853 local x,y,z forces =    0.0000E+00    0.0000E+00    0.0000E+00  setid=       0
 node=   853 local x,y,z moments=    0.0000E+00    0.0000E+00    0.0000E+00  setid=       0
 node=   854 local x,y,z forces =    0.0000E+00    0.0000E+00    0.0000E+00  setid=       0
 node=   854 local x,y,z moments=    0.0000E+00    0.0000E+00    0.0000E+00  setid=       0
 node=   855 local x,y,z forces =    0.0000E+00    0.0000E+00    0.0000E+00  setid=       0
 node=   855 local x,y,z moments=    0.0000E+00    0.0000E+00    0.0000E+00  setid=       0
 node=   856 local x,y,z forces =    0.0000E+00    0.0000E+00    0.0000E+00  setid=       0
 node=   856 local x,y,z moments=    0.0000E+00    0.0000E+00    0.0000E+00  setid=       0
 node=   857 local x,y,z forces =    0.0000E+00    0.0000E+00    0.0000E+00  setid=       0
 node=   857 local x,y,z moments=    0.0000E+00    0.0000E+00    0.0000E+00  setid=       0
 node=   858 local x,y,z forces =    0.0000E+00    0.0000E+00    0.0000E+00  setid=       0
 node=   858 local x,y,z moments=    0.0000E+00    0.0000E+00    0.0000E+00  setid=       0
 node=   871 local x,y,z forces =    0.0000E+00    0.0000E+00    0.0000E+00  setid=       0
 node=   871 local x,y,z moments=    0.0000E+00    0.0000E+00    0.0000E+00  setid=       0
 node=   872 local x,y,z forces =    0.0000E+00    0.0000E+00    0.0000E+00  setid=       0
 node=   872 local x,y,z moments=    0.0000E+00    0.0000E+00    0.0000E+00  setid=       0
 node=   873 local x,y,z forces =    0.0000E+00    0.0000E+00    0.0000E+00  setid=       0
 node=   873 local x,y,z moments=    0.0000E+00    0.0000E+00    0.0000E+00  setid=       0
 node=   874 local x,y,z forces =    0.0000E+00    0.0000E+00    0.0000E+00  setid=       0
 node=   874 local x,y,z moments=    0.0000E+00    0.0000E+00    0.0000E+00  setid=       0
 node=   887 local x,y,z forces =    0.0000E+00    0.0000E+00    0.0000E+00  setid=       0
 node=   887 local x,y,z moments=    0.0000E+00    0.0000E+00    0.0000E+00  setid=       0
 node=   888 local x,y,z forces =    0.0000E+00    0.0000E+00    0.0000E+00  setid=       0
 node=   888 local x,y,z moments=    0.0000E+00    0.0000E+00    0.0000E+00  setid=       0
 node=   889 local x,y,z forces =    0.0000E+00    0.0000E+00    0.0000E+00  setid=       0
 node=   889 local x,y,z moments=    0.0000E+00    0.0000E+00    0.0000E+00  setid=       0
 node=   890 local x,y,z forces =    0.0000E+00    0.0000E+00    0.0000E+00  setid=       0
 node=   890 local x,y,z moments=    0.0000E+00    0.0000E+00    0.0000E+00  setid=       0
 node=   903 local x,y,z forces =    0.0000E+00    0.0000E+00    0.0000E+00  setid=       0
 node=   903 local x,y,z moments=    0.0000E+00    0.0000E+00    0.0000E+00  setid=       0
 node=   904 local x,y,z forces =    0.0000E+00    0.0000E+00    0.0000E+00  setid=       0
 node=   904 local x,y,z moments=    0.0000E+00    0.0000E+00    0.0000E+00  setid=       0
 node=   905 local x,y,z forces =    0.0000E+00    0.0000E+00    0.0000E+00  setid=       0
 node=   905 local x,y,z moments=    0.0000E+00    0.0000E+00    0.0000E+00  setid=       0
 node=   906 local x,y,z forces =    0.0000E+00    0.0000E+00    0.0000E+00  setid=       0
 node=   906 local x,y,z moments=    0.0000E+00    0.0000E+00    0.0000E+00  setid=       0
 node=   919 local x,y,z forces =    0.0000E+00    0.0000E+00    0.0000E+00  setid=       0
 node=   919 local x,y,z moments=    0.0000E+00    0.0000E+00    0.0000E+00  setid=       0
 node=   920 local x,y,z forces =    0.0000E+00    0.0000E+00    0.0000E+00  setid=       0
 node=   920 local x,y,z moments=    0.0000E+00    0.0000E+00    0.0000E+00  setid=       0
 node=   921 local x,y,z forces =    0.0000E+00    0.0000E+00    0.0000E+00  setid=       0
 node=   921 local x,y,z moments=    0.0000E+00    0.0000E+00    0.0000E+00  setid=       0
 node=   922 local x,y,z forces =    0.0000E+00    0.0000E+00    0.0000E+00  setid=       0
 node=   922 local x,y,z moments=    0.0000E+00    0.0000E+00    0.0000E+00  setid=       0
 node=   935 local x,y,z forces =    0.0000E+00    0.0000E+00    0.0000E+00  setid=       0
 node=   935 local x,y,z moments=    0.0000E+00    0.0000E+00    0.0000E+00  setid=       0
 node=   936 local x,y,z forces =    0.0000E+00    0.0000E+00    0.0000E+00  setid=       0
 node=   936 local x,y,z moments=    0.0000E+00    0.0000E+00    0.0000E+00  setid=       0
 node=   937 local x,y,z forces =    0.0000E+00    0.0000E+00    0.0000E+00  setid=       0
 node=   937 local x,y,z moments=    0.0000E+00    0.0000E+00    0.0000E+00  setid=       0
 node=   938 local x,y,z forces =    0.0000E+00    0.0000E+00    0.0000E+00  setid=       0
 node=   938 local x,y,z moments=    0.0000E+00    0.0000E+00    0.0000E+00  setid=       0
 node=   951 local x,y,z forces =    0.0000E+00    0.0000E+00    0.0000E+00  setid=       0
 node=   951 local x,y,z moments=    0.0000E+00    0.0000E+00    0.0000E+00  setid=       0
 node=   952 local x,y,z forces =    0.0000E+00    0.0000E+00    0.0000E+00  setid=       0
 node=   952 local x,y,z moments=    0.0000E+00    0.0000E+00    0.0000E+00  setid=       0
 node=   953 local x,y,z forces =    0.0000E+00    0.0000E+00    0.0000E+00  setid=       0
 node=   953 local x,y,z moments=    0.0000E+00    0.0000E+00    0.0000E+00  setid=       0
 node=   954 local x,y,z forces =    0.0000E+00    0.0000E+00    0.0000E+00  setid=       0
 node=   954 local x,y,z moments=    0.0000E+00    0.0000E+00    0.0000E+00  setid=       0
 node=   961 local x,y,z forces =    0.0000E+00    0.0000E+00    0.0000E+00  setid=       0
 node=   961 local x,y,z moments=    0.0000E+00    0.0000E+00    0.0000E+00  setid=       0
 node=   962 local x,y,z forces =    0.0000E+00    0.0000E+00    0.0000E+00  setid=       0
 node=   962 local x,y,z moments=    0.0000E+00    0.0000E+00    0.0000E+00  setid=       0
 node=   972 local x,y,z forces =    0.0000E+00    0.0000E+00    0.0000E+00  setid=       0
 node=   972 local x,y,z moments=    0.0000E+00    0.0000E+00    0.0000E+00  setid=       0
 node=   973 local x,y,z forces =    0.0000E+00    0.0000E+00    0.0000E+00  setid=       0
 node=   973 local x,y,z moments=    0.0000E+00    0.0000E+00    0.0000E+00  setid=       0
 node=   974 local x,y,z forces =    0.0000E+00    0.0000E+00    0.0000E+00  setid=       0
 node=   974 local x,y,z moments=    0.0000E+00    0.0000E+00    0.0000E+00  setid=       0
 node=   984 local x,y,z forces =    0.0000E+00    0.0000E+00    0.0000E+00  setid=       0
 node=   984 local x,y,z moments=    0.0000E+00    0.0000E+00    0.0000E+00  setid=       0
 node=   985 local x,y,z forces =    0.0000E+00    0.0000E+00    0.0000E+00  setid=       0
 node=   985 local x,y,z moments=    0.0000E+00    0.0000E+00    0.0000E+00  setid=       0
 node=   986 local x,y,z forces =    0.0000E+00    0.0000E+00    0.0000E+00  setid=       0
 node=   986 local x,y,z moments=    0.0000E+00    0.0000E+00    0.0000E+00  setid=       0
 node=   993 local x,y,z forces =    0.0000E+00    0.0000E+00    0.0000E+00  setid=       0
 node=   993 local x,y,z moments=    0.0000E+00    0.0000E+00    0.0000E+00  setid=       0
 node=   994 local x,y,z forces =    0.0000E+00    0.0000E+00    0.0000E+00  setid=       0
 node=   994 local x,y,z moments=    0.0000E+00    0.0000E+00    0.0000E+00  setid=       0
 node=   998 local x,y,z forces =    0.0000E+00    0.0000E+00    0.0000E+00  setid=       0
 node=   998 local x,y,z moments=    0.0000E+00    0.0000E+00    0.0000E+00  setid=       0
 node=  1005 local x,y,z forces =    0.0000E+00    0.0000E+00    0.0000E+00  setid=       0
 node=  1005 local x,y,z moments=    0.0000E+00    0.0000E+00    0.0000E+00  setid=       0
 node=  1006 local x,y,z forces =    0.0000E+00    0.0000E+00    0.0000E+00  setid=       0
 node=  1006 local x,y,z moments=    0.0000E+00    0.0000E+00    0.0000E+00  setid=       0
 node=  1013 local x,y,z forces =    0.0000E+00    0.0000E+00    0.0000E+00  setid=       0
 node=  1013 local x,y,z moments=    0.0000E+00    0.0000E+00    0.0000E+00  setid=       0
 node=  1014 local x,y,z forces =    0.0000E+00    0.0000E+00    0.0000E+00  setid=       0
 node=  1014 local x,y,z moments=    0.0000E+00    0.0000E+00    0.0000E+00  setid=       0
 node=  1021 local x,y,z forces =    0.0000E+00    0.0000E+00    0.0000E+00  setid=       0
 node=  1021 local x,y,z moments=    0.0000E+00    0.0000E+00    0.0000E+00  setid=       0
 node=  1022 local x,y,z forces =    0.0000E+00    0.0000E+00    0.0000E+00  setid=       0
 node=  1022 local x,y,z moments=    0.0000E+00    0.0000E+00    0.0000E+00  setid=       0
 node=  1029 local x,y,z forces =    0.0000E+00    0.0000E+00    0.0000E+00  setid=       0
 node=  1029 local x,y,z moments=    0.0000E+00    0.0000E+00    0.0000E+00  setid=       0
 node=  1030 local x,y,z forces =    0.0000E+00    0.0000E+00    0.0000E+00  setid=       0
 node=  1030 local x,y,z moments=    0.0000E+00    0.0000E+00    0.0000E+00  setid=       0
 node=  1034 local x,y,z forces =    0.0000E+00    0.0000E+00    0.0000E+00  setid=       0
 node=  1034 local x,y,z moments=    0.0000E+00    0.0000E+00    0.0000E+00  setid=       0
 node=  1044 local x,y,z forces =    0.0000E+00    0.0000E+00    0.0000E+00  setid=       0
 node=  1044 local x,y,z moments=    0.0000E+00    0.0000E+00    0.0000E+00  setid=       0
 node=  1045 local x,y,z forces =    0.0000E+00    0.0000E+00    0.0000E+00  setid=       0
 node=  1045 local x,y,z moments=    0.0000E+00    0.0000E+00    0.0000E+00  setid=       0
 node=  1046 local x,y,z forces =    0.0000E+00    0.0000E+00    0.0000E+00  setid=       0
 node=  1046 local x,y,z moments=    0.0000E+00    0.0000E+00    0.0000E+00  setid=       0
 node=  1050 local x,y,z forces =    0.0000E+00    0.0000E+00    0.0000E+00  setid=       0
 node=  1050 local x,y,z moments=    0.0000E+00    0.0000E+00    0.0000E+00  setid=       0
 node=  1057 local x,y,z forces =    0.0000E+00    0.0000E+00    0.0000E+00  setid=       0
 node=  1057 local x,y,z moments=    0.0000E+00    0.0000E+00    0.0000E+00  setid=       0
 node=  1058 local x,y,z forces =    0.0000E+00    0.0000E+00    0.0000E+00  setid=       0
 node=  1058 local x,y,z moments=    0.0000E+00    0.0000E+00    0.0000E+00  setid=       0
 node=  1065 local x,y,z forces =    0.0000E+00    0.0000E+00    0.0000E+00  setid=       0
 node=  1065 local x,y,z moments=    0.0000E+00    0.0000E+00    0.0000E+00  setid=       0
 node=  1066 local x,y,z forces =    0.0000E+00    0.0000E+00    0.0000E+00  setid=       0
 node=  1066 local x,y,z moments=    0.0000E+00    0.0000E+00    0.0000E+00  setid=       0
 node=  1070 local x,y,z forces =    0.0000E+00    0.0000E+00    0.0000E+00  setid=       0
 node=  1070 local x,y,z moments=    0.0000E+00    0.0000E+00    0.0000E+00  setid=       0
 node=  1074 local x,y,z forces =    0.0000E+00    0.0000E+00    0.0000E+00  setid=       0
 node=  1074 local x,y,z moments=    0.0000E+00    0.0000E+00    0.0000E+00  setid=       0
 node=  1081 local x,y,z forces =    0.0000E+00    0.0000E+00    0.0000E+00  setid=       0
 node=  1081 local x,y,z moments=    0.0000E+00    0.0000E+00    0.0000E+00  setid=       0
 node=  1082 local x,y,z forces =    0.0000E+00    0.0000E+00    0.0000E+00  setid=       0
 node=  1082 local x,y,z moments=    0.0000E+00    0.0000E+00    0.0000E+00  setid=       0
 node=  1092 local x,y,z forces =    0.0000E+00    0.0000E+00    0.0000E+00  setid=       0
 node=  1092 local x,y,z moments=    0.0000E+00    0.0000E+00    0.0000E+00  setid=       0
 node=  1093 local x,y,z forces =    0.0000E+00    0.0000E+00    0.0000E+00  setid=       0
 node=  1093 local x,y,z moments=    0.0000E+00    0.0000E+00    0.0000E+00  setid=       0
 node=  1094 local x,y,z forces =    0.0000E+00    0.0000E+00    0.0000E+00  setid=       0
 node=  1094 local x,y,z moments=    0.0000E+00    0.0000E+00    0.0000E+00  setid=       0
 node=  1098 local x,y,z forces =    0.0000E+00    0.0000E+00    0.0000E+00  setid=       0
 node=  1098 local x,y,z moments=    0.0000E+00    0.0000E+00    0.0000E+00  setid=       0
 node=  1105 local x,y,z forces =    0.0000E+00    0.0000E+00    0.0000E+00  setid=       0
 node=  1105 local x,y,z moments=    0.0000E+00    0.0000E+00    0.0000E+00  setid=       0
 node=  1106 local x,y,z forces =    0.0000E+00    0.0000E+00    0.0000E+00  setid=       0
 node=  1106 local x,y,z moments=    0.0000E+00    0.0000E+00    0.0000E+00  setid=       0
 node=  1110 local x,y,z forces =    0.0000E+00    0.0000E+00    0.0000E+00  setid=       0
 node=  1110 local x,y,z moments=    0.0000E+00    0.0000E+00    0.0000E+00  setid=       0
 node=  1114 local x,y,z forces =    0.0000E+00    0.0000E+00    0.0000E+00  setid=       0
 node=  1114 local x,y,z moments=    0.0000E+00    0.0000E+00    0.0000E+00  setid=       0
 node=  1118 local x,y,z forces =    0.0000E+00    0.0000E+00    0.0000E+00  setid=       0
 node=  1118 local x,y,z moments=    0.0000E+00    0.0000E+00    0.0000E+00  setid=       0
 node=  1122 local x,y,z forces =    0.0000E+00    0.0000E+00    0.0000E+00  setid=       0
 node=  1122 local x,y,z moments=    0.0000E+00    0.0000E+00    0.0000E+00  setid=       0
 node=  1126 local x,y,z forces =    0.0000E+00    0.0000E+00    0.0000E+00  setid=       0
 node=  1126 local x,y,z moments=    0.0000E+00    0.0000E+00    0.0000E+00  setid=       0
 node=  1130 local x,y,z forces =    0.0000E+00    0.0000E+00    0.0000E+00  setid=       0
 node=  1130 local x,y,z moments=    0.0000E+00    0.0000E+00    0.0000E+00  setid=       0
 node=  1134 local x,y,z forces =    0.0000E+00    0.0000E+00    0.0000E+00  setid=       0
 node=  1134 local x,y,z moments=    0.0000E+00    0.0000E+00    0.0000E+00  setid=       0
 node=  1138 local x,y,z forces =    0.0000E+00    0.0000E+00    0.0000E+00  setid=       0
 node=  1138 local x,y,z moments=    0.0000E+00    0.0000E+00    0.0000E+00  setid=       0
 node=  1142 local x,y,z forces =    0.0000E+00    0.0000E+00    0.0000E+00  setid=       0
 node=  1142 local x,y,z moments=    0.0000E+00    0.0000E+00    0.0000E+00  setid=       0
 node=  1146 local x,y,z forces =    0.0000E+00    0.0000E+00    0.0000E+00  setid=       0
 node=  1146 local x,y,z moments=    0.0000E+00    0.0000E+00    0.0000E+00  setid=       0
             force resultants   =    0.0000E+00    0.0000E+00    0.0000E+00
 output at time =   5.00000E-01
 node=     1 local x,y,z forces =    0.0000E+00    3.7097E+00    2.5526E+01  setid=       0
 node=     1 local x,y,z moments=    4.4919E-03    3.4983E-03   -5.6687E-04  setid=       0
 node=     2 local x,y,z forces =    0.0000E+00    6.8783E+00    3.1038E+01  setid=       0
 node=     2 local x,y,z moments=    3.8173E-03   -7.6649E-05    8.3909E-05  setid=       0
 node=     3 local x,y,z forces =    0.0000E+00    7.1873E+00    1.8946E+01  setid=       0
 node=     3 local x,y,z moments=    1.2742E-03    9.0535E-05    6.3243E-05  setid=       0
 node=     4 local x,y,z forces =    0.0000E+00    7.1254E+00    1.7280E+01  setid=       0
 node=     4 local x,y,z moments=    1.2854E-03    1.8733E-04    2.8598E-05  setid=       0
 node=     5 local x,y,z forces =    3.5868E+00    3.6181E+00    8.5392E+00  setid=       0
 node=     5 local x,y,z moments=    6.5186E-04   -6.1807E-04    2.7849E-06  setid=       0
 node=     6 local x,y,z forces =    7.1657E+00    0.0000E+00    1.6714E+01  setid=       0
 node=     6 local x,y,z moments=   -8.1699E-05   -1.0856E-03   -3.9950E-05  setid=       0
 node=     7 local x,y,z forces =    7.0966E+00    0.0000E+00    1.8430E+01  setid=       0
 node=     7 local x,y,z moments=    1.1939E-04   -1.0822E-03   -9.7930E-05  setid=       0
 node=     8 local x,y,z forces =    6.7506E+00    0.0000E+00    3.0948E+01  setid=       0
 node=     8 local x,y,z moments=    2.5898E-04   -3.8240E-03   -1.6085E-04  setid=       0
 node=     9 local x,y,z forces =    3.8136E+00    0.0000E+00    2.3419E+01  setid=       0
 node=     9 local x,y,z moments=   -2.8378E-03   -4.2051E-03    4.5885E-04  setid=       0
 node=    10 local x,y,z forces =    0.0000E+00    0.0000E+00    4.6380E+01  setid=       0
 node=    10 local x,y,z moments=   -4.8358E-03    2.4969E-03    0.0000E+00  setid=       0
 node=    11 local x,y,z forces =    0.0000E+00    0.0000E+00    4.3981E+01  setid=       0
 node=    11 local x,y,z moments=   -2.6668E-03    3.5033E-03    0.0000E+00  setid=       0
 node=    12 local x,y,z forces =    0.0000E+00    0.0000E+00    4.9307E+01  setid=       0
 node=    12 local x,y,z moments=   -1.9724E-03    6.2076E-03    0.0000E+00  setid=       0
 node=    13 local x,y,z forces =    0.0000E+00    0.0000E+00    2.3548E+01  setid=       0
 node=    13 local x,y,z moments=   -3.6245E-06   -2.6856E-04    0.0000E+00  setid=       0
 node=    14 local x,y,z forces =    0.0000E+00    0.0000E+00    3.4505E+01  setid=       0
 node=    14 local x,y,z moments=    4.0528E-04   -2.5075E-05    0.0000E+00  setid=       0
 node=    15 local x,y,z forces =    0.0000E+00    0.0000E+00    3.4226E+01  setid=       0
 node=    15 local x,y,z moments=    3.3689E-04   -8.6701E-04    0.0000E+00  setid=       0
 node=    16 local x,y,z forces =    0.0000E+00    0.0000E+00    3.2626E+01  setid=       0
 node=    16 local x,y,z moments=   -5.5291E-04    3.8722E-04    0.0000E+00  setid=       0
 node=    17 local x,y,z forces =    0.0000E+00    0.0000E+00    5.4639E+01  setid=       0
 node=    17 local x,y,z moments=   -1.3380E-04   -8.4145E-04    0.0000E+00  setid=       0
 node=    18 local x,y,z forces =    0.0000E+00    0.0000E+00    5.9815E+01  setid=       0
 node=    18 local x,y,z moments=    1.5718E-03   -7.6888E-04    0.0000E+00  setid=       0
 node=    19 local x,y,z forces =    0.0000E+00    0.0000E+00    5.9222E+01  setid=       0
 node=    19 local x,y,z moments=   -5.8185E-04   -2.1162E-03    0.0000E+00  setid=       0
 node=    46 local x,y,z forces =    0.0000E+00    1.3076E+01    0.0000E+00  setid=       0
 node=    46 local x,y,z moments=    1.6132E-04    0.0000E+00    6.0740E-05  setid=       0
 node=    47 local x,y,z forces =    0.0000E+00    1.3415E+01    0.0000E+00  setid=       0
 node=    47 local x,y,z moments=    7.0227E-05    0.0000E+00    1.3295E-04  setid=       0
 node=    50 local x,y,z forces =    0.0000E+00    9.8648E+00    0.0000E+00  setid=       0
 node=    50 local x,y,z moments=    2.6076E-04    0.0000E+00    4.5413E-05  setid=       0
 node=    51 local x,y,z forces =    0.0000E+00    1.0322E+01    0.0000E+00  setid=       0
 node=    51 local x,y,z moments=    8.5650E-05    0.0000E+00    1.0409E-04  setid=       0
 node=    54 local x,y,z forces =    0.0000E+00    9.0457E+00    0.0000E+00  setid=       0
 node=    54 local x,y,z moments=   -6.2649E-04    0.0000E+00   -1.3147E-04  setid=       0
 node=    55 local x,y,z forces =    0.0000E+00    8.8846E+00    0.0000E+00  setid=       0
 node=    55 local x,y,z moments=   -7.4463E-04    0.0000E+00   -2.7052E-04  setid=       0
 node=    56 local x,y,z forces =    0.0000E+00    1.4200E+01    0.0000E+00  setid=       0
 node=    56 local x,y,z moments=   -1.1361E-04    0.0000E+00    2.8577E-04  setid=       0
 node=    57 local x,y,z forces =    0.0000E+00    6.7518E+00    0.0000E+00  setid=       0
 node=    57 local x,y,z moments=    3.8777E-04    0.0000E+00   -9.6947E-04  setid=       0
 node=    58 local x,y,z forces =    0.0000E+00    1.2519E+01    0.0000E+00  setid=       0
 node=    58 local x,y,z moments=   -2.9891E-04    0.0000E+00    1.5871E-04  setid=       0
 node=    59 local x,y,z forces =    0.0000E+00    4.9602E+00    0.0000E+00  setid=       0
 node=    59 local x,y,z moments=    3.1364E-04    0.0000E+00   -7.2741E-04  setid=       0
 node=    60 local x,y,z forces =    0.0000E+00    9.8291E+00    0.0000E+00  setid=       0
 node=    60 local x,y,z moments=   -1.0483E-03    0.0000E+00   -4.8210E-04  setid=       0
 node=    61 local x,y,z forces =    0.0000E+00    3.5033E+00    0.0000E+00  setid=       0
 node=    61 local x,y,z moments=   -6.5906E-04    0.0000E+00   -4.8875E-04  setid=       0
 node=    62 local x,y,z forces =    1.3085E+01    0.0000E+00    0.0000E+00  setid=       0
 node=    62 local x,y,z moments=    0.0000E+00   -3.2041E-04   -1.3243E-04  setid=       0
 node=    63 local x,y,z forces =    1.3153E+01    0.0000E+00    0.0000E+00  setid=       0
 node=    63 local x,y,z moments=    0.0000E+00   -6.8513E-05   -5.5622E-05  setid=       0
 node=    64 local x,y,z forces =    1.0272E+01    0.0000E+00    0.0000E+00  setid=       0
 node=    64 local x,y,z moments=    0.0000E+00   -3.9992E-04   -1.2393E-04  setid=       0
 node=    65 local x,y,z forces =    1.0280E+01    0.0000E+00    0.0000E+00  setid=       0
 node=    65 local x,y,z moments=    0.0000E+00   -6.0599E-05   -6.3629E-05  setid=       0
 node=    66 local x,y,z forces =    9.2622E+00    0.0000E+00    0.0000E+00  setid=       0
 node=    66 local x,y,z moments=    0.0000E+00    1.1154E-04    3.4960E-04  setid=       0
 node=    67 local x,y,z forces =    9.4853E+00    0.0000E+00    0.0000E+00  setid=       0
 node=    67 local x,y,z moments=    0.0000E+00    1.0149E-03    1.7874E-04  setid=       0
 node=    68 local x,y,z forces =    1.3404E+01    0.0000E+00    0.0000E+00  setid=       0
 node=    68 local x,y,z moments=    0.0000E+00   -4.2654E-04   -2.1735E-04  setid=       0
 node=    69 local x,y,z forces =    1.1368E+01    0.0000E+00    0.0000E+00  setid=       0
 node=    69 local x,y,z moments=    0.0000E+00   -3.3592E-04   -2.2194E-04  setid=       0
 node=    70 local x,y,z forces =    9.8210E+00    0.0000E+00    0.0000E+00  setid=       0
 node=    70 local x,y,z moments=    0.0000E+00    2.0111E-04    6.0057E-04  setid=       0
 node=    71 local x,y,z forces =    6.5836E+00    6.6470E+00    0.0000E+00  setid=       0
 node=    71 local x,y,z moments=    9.6438E-05   -2.2302E-05    1.0290E-05  setid=       0
 node=    72 local x,y,z forces =    5.0348E+00    5.0578E+00    0.0000E+00  setid=       0
 node=    72 local x,y,z moments=    1.3719E-04   -2.2997E-05    1.4634E-05  setid=       0
 node=    73 local x,y,z forces =    4.7265E+00    4.7431E+00    0.0000E+00  setid=       0
 node=    73 local x,y,z moments=   -4.3684E-04    6.3910E-04    1.2490E-05  setid=       0
 node=    74 local x,y,z forces =    7.4843E+00    0.0000E+00    0.0000E+00  setid=       0
 node=    74 local x,y,z moments=    0.0000E+00    1.5206E-04    1.0438E-03  setid=       0
 node=    75 local x,y,z forces =    4.9121E+00    0.0000E+00    0.0000E+00  setid=       0
 node=    75 local x,y,z moments=    0.0000E+00    2.4143E-04    8.2167E-04  setid=       0
 node=    76 local x,y,z forces =    4.1699E+00    0.0000E+00    0.0000E+00  setid=       0
 node=    76 local x,y,z moments=    0.0000E+00    5.4970E-04    3.6821E-04  setid=       0
 node=   111 local x,y,z forces =    0.0000E+00    5.3588E+00    0.0000E+00  setid=       0
 node=   111 local x,y,z moments=   -3.4013E-06    0.0000E+00   -1.7373E-04  setid=       0
 node=   112 local x,y,z forces =    0.0000E+00    9.0629E-01    0.0000E+00  setid=       0
 node=   112 local x,y,z moments=   -2.8653E-04    0.0000E+00    2.3637E-04  setid=       0
 node=   115 local x,y,z forces =    0.0000E+00    1.0579E+00    0.0000E+00  setid=       0
 node=   115 local x,y,z moments=   -7.6199E-05    0.0000E+00   -8.3297E-05  setid=       0
 node=   116 local x,y,z forces =    0.0000E+00   -1.2514E+00    0.0000E+00  setid=       0
 node=   116 local x,y,z moments=   -1.8188E-04    0.0000E+00    2.4144E-04  setid=       0
 node=   119 local x,y,z forces =    0.0000E+00   -1.2891E+00    0.0000E+00  setid=       0
 node=   119 local x,y,z moments=   -9.0239E-05    0.0000E+00   -1.6075E-05  setid=       0
 node=   120 local x,y,z forces =    0.0000E+00   -2.4503E+00    0.0000E+00  setid=       0
 node=   120 local x,y,z moments=   -1.2878E-04    0.0000E+00    2.1149E-04  setid=       0
 node=   123 local x,y,z forces =    0.0000E+00   -2.5879E+00    0.0000E+00  setid=       0
 node=   123 local x,y,z moments=   -6.7767E-05    0.0000E+00    1.0038E-05  setid=       0
 node=   124 local x,y,z forces =    0.0000E+00   -3.1790E+00    0.0000E+00  setid=       0
 node=   124 local x,y,z moments=   -7.4151E-05    0.0000E+00    1.9229E-04  setid=       0
 node=   127 local x,y,z forces =    0.0000E+00   -3.3541E+00    0.0000E+00  setid=       0
 node=   127 local x,y,z moments=   -3.4020E-05    0.0000E+00    2.0168E-05  setid=       0
 node=   128 local x,y,z forces =    0.0000E+00   -3.6705E+00    0.0000E+00  setid=       0
 node=   128 local x,y,z moments=   -2.8395E-05    0.0000E+00    1.8309E-04  setid=       0
 node=   131 local x,y,z forces =    0.0000E+00   -3.8172E+00    0.0000E+00  setid=       0
 node=   131 local x,y,z moments=    3.3501E-06    0.0000E+00    2.0008E-05  setid=       0
 node=   132 local x,y,z forces =    0.0000E+00   -4.0388E+00    0.0000E+00  setid=       0
 node=   132 local x,y,z moments=    6.4297E-06    0.0000E+00    1.9016E-04  setid=       0
 node=   135 local x,y,z forces =    0.0000E+00   -4.1497E+00    0.0000E+00  setid=       0
 node=   135 local x,y,z moments=    2.0157E-05    0.0000E+00   -4.0923E-06  setid=       0
 node=   136 local x,y,z forces =    0.0000E+00   -4.3203E+00    0.0000E+00  setid=       0
 node=   136 local x,y,z moments=   -4.3925E-05    0.0000E+00    2.1109E-04  setid=       0
 node=   139 local x,y,z forces =    0.0000E+00    2.9561E-01    0.0000E+00  setid=       0
 node=   139 local x,y,z moments=   -2.6632E-03    0.0000E+00    4.0362E-05  setid=       0
 node=   140 local x,y,z forces =    0.0000E+00    7.3459E-01    0.0000E+00  setid=       0
 node=   140 local x,y,z moments=   -3.5422E-03    0.0000E+00    6.1379E-06  setid=       0
 node=   141 local x,y,z forces =    6.0647E+00    0.0000E+00    0.0000E+00  setid=       0
 node=   141 local x,y,z moments=    0.0000E+00   -8.2848E-04    7.9961E-05  setid=       0
 node=   143 local x,y,z forces =    5.3547E+00    0.0000E+00    0.0000E+00  setid=       0
 node=   143 local x,y,z moments=    0.0000E+00   -3.7907E-04    2.0045E-04  setid=       0
 node=   144 local x,y,z forces =    1.4915E+00    0.0000E+00    0.0000E+00  setid=       0
 node=   144 local x,y,z moments=    0.0000E+00   -7.6848E-04    3.7241E-05  setid=       0
 node=   146 local x,y,z forces =    7.8139E-01    0.0000E+00    0.0000E+00  setid=       0
 node=   146 local x,y,z moments=    0.0000E+00   -2.7457E-04    8.7049E-05  setid=       0
 node=   147 local x,y,z forces =   -1.1396E+00    0.0000E+00    0.0000E+00  setid=       0
 node=   147 local x,y,z moments=    0.0000E+00   -7.4575E-04    1.6741E-06  setid=       0
 node=   149 local x,y,z forces =   -1.4517E+00    0.0000E+00    0.0000E+00  setid=       0
 node=   149 local x,y,z moments=    0.0000E+00   -3.1773E-04    1.9505E-05  setid=       0
 node=   150 local x,y,z forces =   -2.5766E+00    0.0000E+00    0.0000E+00  setid=       0
 node=   150 local x,y,z moments=    0.0000E+00   -7.6318E-04   -1.6056E-05  setid=       0
 node=   152 local x,y,z forces =   -2.6797E+00    0.0000E+00    0.0000E+00  setid=       0
 node=   152 local x,y,z moments=    0.0000E+00   -3.8170E-04   -1.2467E-05  setid=       0
 node=   153 local x,y,z forces =   -3.3189E+00    0.0000E+00    0.0000E+00  setid=       0
 node=   153 local x,y,z moments=    0.0000E+00   -8.0339E-04   -1.9735E-05  setid=       0
 node=   155 local x,y,z forces =   -3.3830E+00    0.0000E+00    0.0000E+00  setid=       0
 node=   155 local x,y,z moments=    0.0000E+00   -4.7204E-04   -2.4092E-05  setid=       0
 node=   156 local x,y,z forces =   -3.6482E+00    0.0000E+00    0.0000E+00  setid=       0
 node=   156 local x,y,z moments=    0.0000E+00   -8.6222E-04   -1.6274E-05  setid=       0
 node=   158 local x,y,z forces =   -3.8445E+00    0.0000E+00    0.0000E+00  setid=       0
 node=   158 local x,y,z moments=    0.0000E+00   -6.1458E-04   -2.1058E-05  setid=       0
 node=   159 local x,y,z forces =   -3.8972E+00    0.0000E+00    0.0000E+00  setid=       0
 node=   159 local x,y,z moments=    0.0000E+00   -9.2872E-04   -4.0367E-06  setid=       0
 node=   161 local x,y,z forces =   -4.2809E+00    0.0000E+00    0.0000E+00  setid=       0
 node=   161 local x,y,z moments=    0.0000E+00   -8.7846E-04   -3.3935E-06  setid=       0
 node=   162 local x,y,z forces =   -3.1478E-01    0.0000E+00    0.0000E+00  setid=       0
 node=   162 local x,y,z moments=    0.0000E+00    1.3980E-03   -2.2217E-05  setid=       0
 node=   164 local x,y,z forces =   -3.7772E-02    0.0000E+00    0.0000E+00  setid=       0
 node=   164 local x,y,z moments=    0.0000E+00    2.2871E-03   -1.5376E-05  setid=       0
 node=   166 local x,y,z forces =    6.4991E+00    0.0000E+00    0.0000E+00  setid=       0
 node=   166 local x,y,z moments=    0.0000E+00    2.4543E-04    4.4505E-05  setid=       0
 node=   168 local x,y,z forces =    1.9569E+00    0.0000E+00    0.0000E+00  setid=       0
 node=   168 local x,y,z moments=    0.0000E+00    3.5377E-04    3.5431E-05  setid=       0
 node=   170 local x,y,z forces =   -8.6154E-01    0.0000E+00    0.0000E+00  setid=       0
 node=   170 local x,y,z moments=    0.0000E+00    4.3709E-04    1.6347E-05  setid=       0
 node=   172 local x,y,z forces =   -2.4533E+00    0.0000E+00    0.0000E+00  setid=       0
 node=   172 local x,y,z moments=    0.0000E+00    4.7244E-04    3.0247E-06  setid=       0
 node=   174 local x,y,z forces =   -3.2644E+00    0.0000E+00    0.0000E+00  setid=       0
 node=   174 local x,y,z moments=    0.0000E+00    4.6934E-04   -4.0121E-06  setid=       0
 node=   176 local x,y,z forces =   -3.6428E+00    0.0000E+00    0.0000E+00  setid=       0
 node=   176 local x,y,z moments=    0.0000E+00    4.1209E-04   -1.0410E-05  setid=       0
 node=   178 local x,y,z forces =   -3.9177E+00    0.0000E+00    0.0000E+00  setid=       0
 node=   178 local x,y,z moments=    0.0000E+00    2.3248E-04   -4.6011E-05  setid=       0
 node=   180 local x,y,z forces =   -9.2159E-01    0.0000E+00    0.0000E+00  setid=       0
 node=   180 local x,y,z moments=    0.0000E+00    2.5716E-03   -4.2453E-05  setid=       0
 node=   189 local x,y,z forces =    0.0000E+00    6.1165E+00    0.0000E+00  setid=       0
 node=   189 local x,y,z moments=    6.9917E-05    0.0000E+00   -8.3321E-05  setid=       0
 node=   191 local x,y,z forces =    0.0000E+00    6.4508E+00    0.0000E+00  setid=       0
 node=   191 local x,y,z moments=    2.0640E-04    0.0000E+00   -3.8484E-05  setid=       0
 node=   192 local x,y,z forces =    0.0000E+00    1.4796E+00    0.0000E+00  setid=       0
 node=   192 local x,y,z moments=   -4.6993E-05    0.0000E+00   -3.4955E-05  setid=       0
 node=   194 local x,y,z forces =    0.0000E+00    1.7906E+00    0.0000E+00  setid=       0
 node=   194 local x,y,z moments=    7.3901E-05    0.0000E+00   -2.9293E-05  setid=       0
 node=   195 local x,y,z forces =    0.0000E+00   -1.1804E+00    0.0000E+00  setid=       0
 node=   195 local x,y,z moments=   -1.1571E-04    0.0000E+00   -3.5665E-06  setid=       0
 node=   197 local x,y,z forces =    0.0000E+00   -1.0569E+00    0.0000E+00  setid=       0
 node=   197 local x,y,z moments=    1.0172E-06    0.0000E+00   -1.2671E-05  setid=       0
 node=   198 local x,y,z forces =    0.0000E+00   -2.6583E+00    0.0000E+00  setid=       0
 node=   198 local x,y,z moments=   -1.2968E-04    0.0000E+00    1.3587E-05  setid=       0
 node=   200 local x,y,z forces =    0.0000E+00   -2.6435E+00    0.0000E+00  setid=       0
 node=   200 local x,y,z moments=   -1.6281E-05    0.0000E+00   -3.2451E-06  setid=       0
 node=   201 local x,y,z forces =    0.0000E+00   -3.4466E+00    0.0000E+00  setid=       0
 node=   201 local x,y,z moments=   -1.2099E-04    0.0000E+00    1.5987E-05  setid=       0
 node=   203 local x,y,z forces =    0.0000E+00   -3.4874E+00    0.0000E+00  setid=       0
 node=   203 local x,y,z moments=   -9.2824E-06    0.0000E+00    2.4805E-06  setid=       0
 node=   204 local x,y,z forces =    0.0000E+00   -3.7131E+00    0.0000E+00  setid=       0
 node=   204 local x,y,z moments=   -1.1151E-04    0.0000E+00    5.7244E-06  setid=       0
 node=   206 local x,y,z forces =    0.0000E+00   -3.9188E+00    0.0000E+00  setid=       0
 node=   206 local x,y,z moments=   -2.3914E-06    0.0000E+00    1.4353E-05  setid=       0
 node=   207 local x,y,z forces =    0.0000E+00   -3.1482E+00    0.0000E+00  setid=       0
 node=   207 local x,y,z moments=   -1.5558E-04    0.0000E+00   -2.1350E-05  setid=       0
 node=   209 local x,y,z forces =    0.0000E+00   -4.1476E+00    0.0000E+00  setid=       0
 node=   209 local x,y,z moments=   -6.1685E-06    0.0000E+00    5.3165E-05  setid=       0
 node=   210 local x,y,z forces =    0.0000E+00   -6.8649E-02    0.0000E+00  setid=       0
 node=   210 local x,y,z moments=   -2.2865E-03    0.0000E+00   -7.5437E-06  setid=       0
 node=   212 local x,y,z forces =    0.0000E+00   -9.0807E-02    0.0000E+00  setid=       0
 node=   212 local x,y,z moments=   -2.0988E-03    0.0000E+00    3.1028E-05  setid=       0
 node=   213 local x,y,z forces =    3.3670E+00    3.3114E+00    0.0000E+00  setid=       0
 node=   213 local x,y,z moments=    2.2378E-05    2.7105E-04   -6.3308E-06  setid=       0
 node=   214 local x,y,z forces =    1.1035E+00    9.8985E-01    0.0000E+00  setid=       0
 node=   214 local x,y,z moments=   -4.7709E-05    3.2917E-04   -1.6177E-05  setid=       0
 node=   215 local x,y,z forces =   -3.3271E-01   -4.5535E-01    0.0000E+00  setid=       0
 node=   215 local x,y,z moments=   -8.6256E-05    3.8126E-04   -1.8847E-05  setid=       0
 node=   216 local x,y,z forces =   -1.1630E+00   -1.2876E+00    0.0000E+00  setid=       0
 node=   216 local x,y,z moments=   -9.5474E-05    4.1058E-04   -1.9864E-05  setid=       0
 node=   217 local x,y,z forces =   -1.5986E+00   -1.7456E+00    0.0000E+00  setid=       0
 node=   217 local x,y,z moments=   -9.0022E-05    4.1424E-04   -2.3071E-05  setid=       0
 node=   218 local x,y,z forces =   -1.8002E+00   -1.9276E+00    0.0000E+00  setid=       0
 node=   218 local x,y,z moments=   -8.2179E-05    3.8328E-04   -2.1875E-05  setid=       0
 node=   219 local x,y,z forces =   -2.0573E+00   -1.7336E+00    0.0000E+00  setid=       0
 node=   219 local x,y,z moments=   -1.4024E-04    2.8438E-04    3.4970E-05  setid=       0
 node=   220 local x,y,z forces =   -5.8390E-01   -1.7301E-01    0.0000E+00  setid=       0
 node=   220 local x,y,z moments=   -1.4036E-03    1.5043E-03    6.5764E-05  setid=       0
 node=   221 local x,y,z forces =    1.1380E+00    0.0000E+00    0.0000E+00  setid=       0
 node=   221 local x,y,z moments=    0.0000E+00    4.8033E-04   -1.3217E-04  setid=       0
 node=   222 local x,y,z forces =   -1.0149E+00    0.0000E+00    0.0000E+00  setid=       0
 node=   222 local x,y,z moments=    0.0000E+00    7.8055E-05   -1.7690E-04  setid=       0
 node=   223 local x,y,z forces =   -2.2618E+00    0.0000E+00    0.0000E+00  setid=       0
 node=   223 local x,y,z moments=    0.0000E+00   -1.3275E-04   -1.8714E-04  setid=       0
 node=   224 local x,y,z forces =   -3.0000E+00    0.0000E+00    0.0000E+00  setid=       0
 node=   224 local x,y,z moments=    0.0000E+00   -3.0014E-04   -1.8276E-04  setid=       0
 node=   225 local x,y,z forces =   -3.4730E+00    0.0000E+00    0.0000E+00  setid=       0
 node=   225 local x,y,z moments=    0.0000E+00   -4.6475E-04   -1.7823E-04  setid=       0
 node=   226 local x,y,z forces =   -3.8381E+00    0.0000E+00    0.0000E+00  setid=       0
 node=   226 local x,y,z moments=    0.0000E+00   -6.7786E-04   -1.8630E-04  setid=       0
 node=   227 local x,y,z forces =   -4.2293E+00    0.0000E+00    0.0000E+00  setid=       0
 node=   227 local x,y,z moments=    0.0000E+00   -9.9844E-04   -2.3567E-04  setid=       0
 node=   228 local x,y,z forces =    2.8709E-01    0.0000E+00    0.0000E+00  setid=       0
 node=   228 local x,y,z moments=    0.0000E+00    3.1697E-03   -3.3308E-05  setid=       0
 node=   787 local x,y,z forces =    5.8799E-01    0.0000E+00    0.0000E+00  setid=       0
 node=   787 local x,y,z moments=    0.0000E+00    3.3601E-03   -1.8336E-05  setid=       0
 node=   788 local x,y,z forces =    7.8885E-01    0.0000E+00    0.0000E+00  setid=       0
 node=   788 local x,y,z moments=    0.0000E+00    3.1392E-03   -2.2797E-05  setid=       0
 node=   789 local x,y,z forces =    9.4278E-01    0.0000E+00    0.0000E+00  setid=       0
 node=   789 local x,y,z moments=    0.0000E+00    2.5180E-03   -2.0544E-05  setid=       0
 node=   790 local x,y,z forces =    9.9082E-01    0.0000E+00    0.0000E+00  setid=       0
 node=   790 local x,y,z moments=    0.0000E+00    1.6708E-03   -1.6392E-05  setid=       0
 node=   791 local x,y,z forces =    9.3334E-01    0.0000E+00    0.0000E+00  setid=       0
 node=   791 local x,y,z moments=    0.0000E+00    7.9326E-04   -1.0614E-05  setid=       0
 node=   792 local x,y,z forces =    7.9783E-01    0.0000E+00    0.0000E+00  setid=       0
 node=   792 local x,y,z moments=    0.0000E+00   -5.4181E-06    3.6672E-06  setid=       0
 node=   793 local x,y,z forces =    6.4400E-01    0.0000E+00    0.0000E+00  setid=       0
 node=   793 local x,y,z moments=    0.0000E+00   -7.9657E-04    6.3690E-05  setid=       0
 node=   794 local x,y,z forces =    4.0809E-01    0.0000E+00    0.0000E+00  setid=       0
 node=   794 local x,y,z moments=    0.0000E+00   -6.4724E-04    1.2302E-04  setid=       0
 node=   795 local x,y,z forces =   -5.9851E-01    0.0000E+00    0.0000E+00  setid=       0
 node=   795 local x,y,z moments=    0.0000E+00   -1.6691E-04   -2.6689E-05  setid=       0
 node=   796 local x,y,z forces =   -6.3422E-01    0.0000E+00    0.0000E+00  setid=       0
 node=   796 local x,y,z moments=    0.0000E+00   -1.8317E-04   -6.8819E-05  setid=       0
 node=   797 local x,y,z forces =   -6.2603E-01    0.0000E+00    0.0000E+00  setid=       0
 node=   797 local x,y,z moments=    0.0000E+00   -7.4728E-05   -7.1490E-05  setid=       0
 node=   798 local x,y,z forces =   -6.0199E-01    0.0000E+00    0.0000E+00  setid=       0
 node=   798 local x,y,z moments=    0.0000E+00   -1.0634E-05   -7.7664E-05  setid=       0
 node=   799 local x,y,z forces =   -5.7146E-01    0.0000E+00    0.0000E+00  setid=       0
 node=   799 local x,y,z moments=    0.0000E+00    2.3045E-05   -8.4100E-05  setid=       0
 node=   800 local x,y,z forces =   -5.3822E-01    0.0000E+00    0.0000E+00  setid=       0
 node=   800 local x,y,z moments=    0.0000E+00    4.1055E-05   -8.5304E-05  setid=       0
 node=   801 local x,y,z forces =   -5.0348E-01    0.0000E+00    0.0000E+00  setid=       0
 node=   801 local x,y,z moments=    0.0000E+00    5.3017E-05   -7.1255E-05  setid=       0
 node=   802 local x,y,z forces =   -4.1871E-01    0.0000E+00    0.0000E+00  setid=       0
 node=   802 local x,y,z moments=    0.0000E+00    1.1122E-04   -1.3702E-04  setid=       0
 node=   803 local x,y,z forces =   -1.0729E+00    0.0000E+00    0.0000E+00  setid=       0
 node=   803 local x,y,z moments=    0.0000E+00   -2.8567E-04   -2.1558E-04  setid=       0
 node=   804 local x,y,z forces =   -1.1929E+00    0.0000E+00    0.0000E+00  setid=       0
 node=   804 local x,y,z moments=    0.0000E+00   -2.5250E-04   -1.1419E-04  setid=       0
 node=   805 local x,y,z forces =   -1.2372E+00    0.0000E+00    0.0000E+00  setid=       0
 node=   805 local x,y,z moments=    0.0000E+00   -2.3311E-04   -1.0258E-04  setid=       0
 node=   806 local x,y,z forces =   -1.2364E+00    0.0000E+00    0.0000E+00  setid=       0
 node=   806 local x,y,z moments=    0.0000E+00   -2.1637E-04   -9.6246E-05  setid=       0
 node=   807 local x,y,z forces =   -1.1326E+00    0.0000E+00    0.0000E+00  setid=       0
 node=   807 local x,y,z moments=    0.0000E+00   -1.8642E-04   -9.4012E-05  setid=       0
 node=   808 local x,y,z forces =   -8.4045E-01    0.0000E+00    0.0000E+00  setid=       0
 node=   808 local x,y,z moments=    0.0000E+00   -1.0743E-04   -6.4805E-05  setid=       0
 node=   809 local x,y,z forces =    1.1620E-01    0.0000E+00    0.0000E+00  setid=       0
 node=   809 local x,y,z moments=    0.0000E+00   -6.7970E-05   -2.0199E-05  setid=       0
 node=   810 local x,y,z forces =   -2.1587E+00    0.0000E+00    0.0000E+00  setid=       0
 node=   810 local x,y,z moments=    0.0000E+00   -1.1549E-04   -1.5823E-04  setid=       0
 node=   811 local x,y,z forces =   -2.2492E+00    0.0000E+00    0.0000E+00  setid=       0
 node=   811 local x,y,z moments=    0.0000E+00   -1.1387E-04   -1.7698E-04  setid=       0
 node=   812 local x,y,z forces =   -2.3324E+00    0.0000E+00    0.0000E+00  setid=       0
 node=   812 local x,y,z moments=    0.0000E+00   -1.5573E-04   -1.9575E-04  setid=       0
 node=   813 local x,y,z forces =   -2.4300E+00    0.0000E+00    0.0000E+00  setid=       0
 node=   813 local x,y,z moments=    0.0000E+00   -2.3476E-04   -2.1554E-04  setid=       0
 node=   814 local x,y,z forces =   -2.5601E+00    0.0000E+00    0.0000E+00  setid=       0
 node=   814 local x,y,z moments=    0.0000E+00   -3.5879E-04   -2.3766E-04  setid=       0
 node=   815 local x,y,z forces =   -2.7392E+00    0.0000E+00    0.0000E+00  setid=       0
 node=   815 local x,y,z moments=    0.0000E+00   -5.5146E-04   -2.6564E-04  setid=       0
 node=   816 local x,y,z forces =   -2.9995E+00    0.0000E+00    0.0000E+00  setid=       0
 node=   816 local x,y,z moments=    0.0000E+00   -7.6196E-04   -2.9684E-04  setid=       0
 node=   817 local x,y,z forces =   -1.6495E+00    0.0000E+00    0.0000E+00  setid=       0
 node=   817 local x,y,z moments=    0.0000E+00   -1.7539E-04   -9.8742E-05  setid=       0
 node=   818 local x,y,z forces =   -1.6766E+00    0.0000E+00    0.0000E+00  setid=       0
 node=   818 local x,y,z moments=    0.0000E+00   -1.5811E-04   -1.1380E-04  setid=       0
 node=   819 local x,y,z forces =   -1.7360E+00    0.0000E+00    0.0000E+00  setid=       0
 node=   819 local x,y,z moments=    0.0000E+00   -1.6941E-04   -1.3684E-04  setid=       0
 node=   820 local x,y,z forces =   -1.8115E+00    0.0000E+00    0.0000E+00  setid=       0
 node=   820 local x,y,z moments=    0.0000E+00   -2.0405E-04   -1.5432E-04  setid=       0
 node=   821 local x,y,z forces =   -1.9020E+00    0.0000E+00    0.0000E+00  setid=       0
 node=   821 local x,y,z moments=    0.0000E+00   -2.7242E-04   -1.6746E-04  setid=       0
 node=   822 local x,y,z forces =   -2.0050E+00    0.0000E+00    0.0000E+00  setid=       0
 node=   822 local x,y,z moments=    0.0000E+00   -3.8612E-04   -1.7328E-04  setid=       0
 node=   823 local x,y,z forces =   -2.1336E+00    0.0000E+00    0.0000E+00  setid=       0
 node=   823 local x,y,z moments=    0.0000E+00   -3.5821E-04   -1.5661E-04  setid=       0
 node=   824 local x,y,z forces =   -1.5257E+00    0.0000E+00    0.0000E+00  setid=       0
 node=   824 local x,y,z moments=    0.0000E+00   -2.0150E-04   -1.2123E-04  setid=       0
 node=   825 local x,y,z forces =   -1.4537E+00    0.0000E+00    0.0000E+00  setid=       0
 node=   825 local x,y,z moments=    0.0000E+00   -1.6533E-04   -1.0738E-04  setid=       0
 node=   826 local x,y,z forces =   -1.3824E+00    0.0000E+00    0.0000E+00  setid=       0
 node=   826 local x,y,z moments=    0.0000E+00   -1.4193E-04   -8.9290E-05  setid=       0
 node=   827 local x,y,z forces =   -1.3106E+00    0.0000E+00    0.0000E+00  setid=       0
 node=   827 local x,y,z moments=    0.0000E+00   -1.1452E-04   -5.1489E-05  setid=       0
 node=   828 local x,y,z forces =   -1.7090E+00    0.0000E+00    0.0000E+00  setid=       0
 node=   828 local x,y,z moments=    0.0000E+00   -3.1146E-04   -3.7102E-05  setid=       0
 node=   829 local x,y,z forces =   -1.6601E+00    0.0000E+00    0.0000E+00  setid=       0
 node=   829 local x,y,z moments=    0.0000E+00   -3.9512E-04   -1.0768E-04  setid=       0
 node=   830 local x,y,z forces =   -1.5973E+00    0.0000E+00    0.0000E+00  setid=       0
 node=   830 local x,y,z moments=    0.0000E+00   -2.7524E-04   -1.2647E-04  setid=       0
 node=   831 local x,y,z forces =   -2.1227E+00    0.0000E+00    0.0000E+00  setid=       0
 node=   831 local x,y,z moments=    0.0000E+00   -2.1702E-04   -1.8565E-04  setid=       0
 node=   832 local x,y,z forces =   -1.9838E+00    0.0000E+00    0.0000E+00  setid=       0
 node=   832 local x,y,z moments=    0.0000E+00   -1.4386E-04   -1.4335E-04  setid=       0
 node=   833 local x,y,z forces =   -1.9481E+00    0.0000E+00    0.0000E+00  setid=       0
 node=   833 local x,y,z moments=    0.0000E+00   -1.6137E-04   -1.3652E-04  setid=       0
 node=   834 local x,y,z forces =   -2.0419E+00    0.0000E+00    0.0000E+00  setid=       0
 node=   834 local x,y,z moments=    0.0000E+00   -1.6570E-04   -1.6375E-04  setid=       0
 node=   835 local x,y,z forces =   -2.3745E+00    0.0000E+00    0.0000E+00  setid=       0
 node=   835 local x,y,z moments=    0.0000E+00   -4.5170E-04   -2.2671E-04  setid=       0
 node=   836 local x,y,z forces =   -2.2312E+00    0.0000E+00    0.0000E+00  setid=       0
 node=   836 local x,y,z moments=    0.0000E+00   -3.0800E-04   -2.0702E-04  setid=       0
 node=   837 local x,y,z forces =   -2.5762E+00    0.0000E+00    0.0000E+00  setid=       0
 node=   837 local x,y,z moments=    0.0000E+00   -5.4111E-04   -2.3650E-04  setid=       0
 node=   838 local x,y,z forces =   -2.9564E+00    0.0000E+00    0.0000E+00  setid=       0
 node=   838 local x,y,z moments=    0.0000E+00   -2.5218E-04   -1.9910E-04  setid=       0
 node=   839 local x,y,z forces =   -2.8962E+00    0.0000E+00    0.0000E+00  setid=       0
 node=   839 local x,y,z moments=    0.0000E+00   -2.5782E-04   -2.2898E-04  setid=       0
[...]
 node=   823 local x,y,z forces =   -2.3114E+01    0.0000E+00    0.0000E+00  setid=       0
 node=   823 local x,y,z moments=    0.0000E+00    1.6847E-02   -2.7113E-03  setid=       0
 node=   824 local x,y,z forces =   -1.3884E+01    0.0000E+00    0.0000E+00  setid=       0
 node=   824 local x,y,z moments=    0.0000E+00   -1.4536E-03   -2.0784E-03  setid=       0
 node=   825 local x,y,z forces =   -1.3343E+01    0.0000E+00    0.0000E+00  setid=       0
 node=   825 local x,y,z moments=    0.0000E+00   -9.1959E-04   -1.2566E-03  setid=       0
 node=   826 local x,y,z forces =   -1.3106E+01    0.0000E+00    0.0000E+00  setid=       0
 node=   826 local x,y,z moments=    0.0000E+00   -2.3220E-04   -3.9992E-04  setid=       0
 node=   827 local x,y,z forces =   -1.2723E+01    0.0000E+00    0.0000E+00  setid=       0
 node=   827 local x,y,z moments=    0.0000E+00    8.0569E-04    1.0413E-03  setid=       0
 node=   828 local x,y,z forces =   -1.9683E+01    0.0000E+00    0.0000E+00  setid=       0
 node=   828 local x,y,z moments=    0.0000E+00    1.9882E-02   -2.5225E-03  setid=       0
 node=   829 local x,y,z forces =   -1.7350E+01    0.0000E+00    0.0000E+00  setid=       0
 node=   829 local x,y,z moments=    0.0000E+00   -1.0132E-03   -2.7947E-03  setid=       0
 node=   830 local x,y,z forces =   -1.5116E+01    0.0000E+00    0.0000E+00  setid=       0
 node=   830 local x,y,z moments=    0.0000E+00   -2.6456E-03   -2.8468E-03  setid=       0
 node=   831 local x,y,z forces =   -2.1292E+01    0.0000E+00    0.0000E+00  setid=       0
 node=   831 local x,y,z moments=    0.0000E+00   -4.3084E-04   -1.6674E-03  setid=       0
 node=   832 local x,y,z forces =   -2.2177E+01    0.0000E+00    0.0000E+00  setid=       0
 node=   832 local x,y,z moments=    0.0000E+00   -6.4005E-04   -9.9678E-04  setid=       0
 node=   833 local x,y,z forces =   -2.3079E+01    0.0000E+00    0.0000E+00  setid=       0
 node=   833 local x,y,z moments=    0.0000E+00   -8.8667E-04   -1.0105E-03  setid=       0
 node=   834 local x,y,z forces =   -2.1535E+01    0.0000E+00    0.0000E+00  setid=       0
 node=   834 local x,y,z moments=    0.0000E+00   -8.4079E-04   -1.2536E-03  setid=       0
 node=   835 local x,y,z forces =   -2.4739E+01    0.0000E+00    0.0000E+00  setid=       0
 node=   835 local x,y,z moments=    0.0000E+00    3.2934E-03   -2.5553E-03  setid=       0
 node=   836 local x,y,z forces =   -2.2146E+01    0.0000E+00    0.0000E+00  setid=       0
 node=   836 local x,y,z moments=    0.0000E+00    1.0384E-04   -2.1872E-03  setid=       0
 node=   837 local x,y,z forces =   -2.7976E+01    0.0000E+00    0.0000E+00  setid=       0
 node=   837 local x,y,z moments=    0.0000E+00    1.1215E-02   -3.0883E-03  setid=       0
 node=   838 local x,y,z forces =   -7.1393E+01    0.0000E+00    0.0000E+00  setid=       0
 node=   838 local x,y,z moments=    0.0000E+00    1.8651E-03   -6.6290E-03  setid=       0
 node=   839 local x,y,z forces =   -4.9851E+01    0.0000E+00    0.0000E+00  setid=       0
 node=   839 local x,y,z moments=    0.0000E+00    2.6571E-04   -3.2821E-03  setid=       0
 node=   840 local x,y,z forces =   -3.6041E+01    0.0000E+00    0.0000E+00  setid=       0
 node=   840 local x,y,z moments=    0.0000E+00   -6.9245E-05   -2.0077E-03  setid=       0
 node=   841 local x,y,z forces =   -5.3549E+01    0.0000E+00    0.0000E+00  setid=       0
 node=   841 local x,y,z moments=    0.0000E+00    1.2154E-03   -3.1774E-03  setid=       0
 node=   842 local x,y,z forces =   -5.8713E+01    0.0000E+00    0.0000E+00  setid=       0
 node=   842 local x,y,z moments=    0.0000E+00    2.4023E-03   -2.5463E-03  setid=       0
 node=   843 local x,y,z forces =   -5.4319E+01    0.0000E+00    0.0000E+00  setid=       0
 node=   843 local x,y,z moments=    0.0000E+00    1.0457E-03   -1.5677E-03  setid=       0
 node=   844 local x,y,z forces =   -8.0880E+01    0.0000E+00    0.0000E+00  setid=       0
 node=   844 local x,y,z moments=    0.0000E+00    2.9959E-04   -6.3075E-03  setid=       0
 node=   845 local x,y,z forces =   -7.6521E+01    0.0000E+00    0.0000E+00  setid=       0
 node=   845 local x,y,z moments=    0.0000E+00    2.6553E-03   -7.9119E-03  setid=       0
 node=   846 local x,y,z forces =   -4.3902E+01    0.0000E+00    0.0000E+00  setid=       0
 node=   846 local x,y,z moments=    0.0000E+00    6.1338E-03   -7.8588E-04  setid=       0
 node=   847 local x,y,z forces =   -3.8295E+01    0.0000E+00    0.0000E+00  setid=       0
 node=   847 local x,y,z moments=    0.0000E+00    3.3318E-04   -1.7983E-03  setid=       0
 node=   848 local x,y,z forces =   -3.7275E+01    0.0000E+00    0.0000E+00  setid=       0
 node=   848 local x,y,z moments=    0.0000E+00    2.7786E-08   -1.9308E-03  setid=       0
 node=   849 local x,y,z forces =   -3.8221E+01    0.0000E+00    0.0000E+00  setid=       0
 node=   849 local x,y,z moments=    0.0000E+00    2.2498E-04   -2.9887E-03  setid=       0
 node=   850 local x,y,z forces =   -4.1766E+01    0.0000E+00    0.0000E+00  setid=       0
 node=   850 local x,y,z moments=    0.0000E+00    2.4542E-03   -4.5546E-03  setid=       0
 node=   851 local x,y,z forces =   -4.8821E+01    0.0000E+00    0.0000E+00  setid=       0
 node=   851 local x,y,z moments=    0.0000E+00    1.7102E-03   -3.8363E-03  setid=       0
 node=   852 local x,y,z forces =   -4.9214E+01    0.0000E+00    0.0000E+00  setid=       0
 node=   852 local x,y,z moments=    0.0000E+00    3.1427E-04   -3.6695E-03  setid=       0
 node=   853 local x,y,z forces =   -6.7208E+01    0.0000E+00    0.0000E+00  setid=       0
 node=   853 local x,y,z moments=    0.0000E+00    2.9687E-03   -5.2385E-03  setid=       0
 node=   854 local x,y,z forces =   -5.6154E+01    0.0000E+00    0.0000E+00  setid=       0
 node=   854 local x,y,z moments=    0.0000E+00    1.7389E-03   -5.5053E-03  setid=       0
 node=   855 local x,y,z forces =   -6.9883E+01    0.0000E+00    0.0000E+00  setid=       0
 node=   855 local x,y,z moments=    0.0000E+00    1.6762E-03   -5.9136E-03  setid=       0
 node=   856 local x,y,z forces =   -3.7740E+01    0.0000E+00    0.0000E+00  setid=       0
 node=   856 local x,y,z moments=    0.0000E+00    1.6372E-03   -3.2862E-03  setid=       0
 node=   857 local x,y,z forces =   -3.6317E+01    0.0000E+00    0.0000E+00  setid=       0
 node=   857 local x,y,z moments=    0.0000E+00    5.0896E-03   -4.6296E-03  setid=       0
 node=   858 local x,y,z forces =   -3.6368E+01    0.0000E+00    0.0000E+00  setid=       0
 node=   858 local x,y,z moments=    0.0000E+00    8.9463E-05   -2.7320E-03  setid=       0
 node=   871 local x,y,z forces =    0.0000E+00   -3.8097E+01    0.0000E+00  setid=       0
 node=   871 local x,y,z moments=   -1.3438E-03    0.0000E+00    3.4715E-03  setid=       0
 node=   872 local x,y,z forces =    0.0000E+00   -4.2264E+01    0.0000E+00  setid=       0
 node=   872 local x,y,z moments=   -2.3286E-03    0.0000E+00    4.5531E-03  setid=       0
 node=   873 local x,y,z forces =    0.0000E+00   -4.9329E+01    0.0000E+00  setid=       0
 node=   873 local x,y,z moments=   -2.1139E-04    0.0000E+00    3.0089E-03  setid=       0
 node=   874 local x,y,z forces =    0.0000E+00   -4.4618E+01    0.0000E+00  setid=       0
 node=   874 local x,y,z moments=    5.2032E-04    0.0000E+00    2.5625E-03  setid=       0
 node=   887 local x,y,z forces =    0.0000E+00   -2.0734E+01    0.0000E+00  setid=       0
 node=   887 local x,y,z moments=   -1.4727E-03    0.0000E+00    2.8890E-03  setid=       0
 node=   888 local x,y,z forces =    0.0000E+00   -1.9000E+01    0.0000E+00  setid=       0
 node=   888 local x,y,z moments=   -8.8739E-04    0.0000E+00    3.0560E-03  setid=       0
 node=   889 local x,y,z forces =    0.0000E+00   -1.4843E+01    0.0000E+00  setid=       0
 node=   889 local x,y,z moments=   -2.1669E-03    0.0000E+00    2.6239E-03  setid=       0
 node=   890 local x,y,z forces =    0.0000E+00   -1.6620E+01    0.0000E+00  setid=       0
 node=   890 local x,y,z moments=   -2.4385E-03    0.0000E+00    3.0744E-03  setid=       0
 node=   903 local x,y,z forces =    0.0000E+00   -4.8192E+01    0.0000E+00  setid=       0
 node=   903 local x,y,z moments=   -6.9936E-03    0.0000E+00    3.1683E-03  setid=       0
 node=   904 local x,y,z forces =    0.0000E+00   -4.2729E+01    0.0000E+00  setid=       0
 node=   904 local x,y,z moments=   -4.0876E-03    0.0000E+00    3.3464E-03  setid=       0
 node=   905 local x,y,z forces =    0.0000E+00   -3.5543E+01    0.0000E+00  setid=       0
 node=   905 local x,y,z moments=   -2.9826E-03    0.0000E+00    2.7685E-03  setid=       0
 node=   906 local x,y,z forces =    0.0000E+00   -4.1358E+01    0.0000E+00  setid=       0
 node=   906 local x,y,z moments=   -8.7685E-03    0.0000E+00    2.6472E-03  setid=       0
 node=   919 local x,y,z forces =    0.0000E+00   -3.3136E+01    0.0000E+00  setid=       0
 node=   919 local x,y,z moments=   -1.1526E-02    0.0000E+00    1.6979E-03  setid=       0
 node=   920 local x,y,z forces =    0.0000E+00   -2.8921E+01    0.0000E+00  setid=       0
 node=   920 local x,y,z moments=   -1.7219E-03    0.0000E+00    2.3894E-03  setid=       0
 node=   921 local x,y,z forces =    0.0000E+00   -2.3307E+01    0.0000E+00  setid=       0
 node=   921 local x,y,z moments=   -3.7286E-04    0.0000E+00    2.6040E-03  setid=       0
 node=   922 local x,y,z forces =    0.0000E+00   -2.6521E+01    0.0000E+00  setid=       0
 node=   922 local x,y,z moments=   -1.3995E-02    0.0000E+00    9.1275E-04  setid=       0
 node=   935 local x,y,z forces =    0.0000E+00   -2.8740E+01    0.0000E+00  setid=       0
 node=   935 local x,y,z moments=   -3.0571E-04    0.0000E+00    3.8169E-03  setid=       0
 node=   936 local x,y,z forces =    0.0000E+00   -2.7639E+01    0.0000E+00  setid=       0
 node=   936 local x,y,z moments=    4.4093E-05    0.0000E+00    3.3497E-03  setid=       0
 node=   937 local x,y,z forces =    0.0000E+00   -2.2308E+01    0.0000E+00  setid=       0
 node=   937 local x,y,z moments=   -1.1456E-03    0.0000E+00    4.1081E-03  setid=       0
 node=   938 local x,y,z forces =    0.0000E+00   -2.3494E+01    0.0000E+00  setid=       0
 node=   938 local x,y,z moments=   -1.2490E-03    0.0000E+00    3.5998E-03  setid=       0
 node=   951 local x,y,z forces =    0.0000E+00   -3.3555E+01    0.0000E+00  setid=       0
 node=   951 local x,y,z moments=    1.7334E-03    0.0000E+00    2.9031E-03  setid=       0
 node=   952 local x,y,z forces =    0.0000E+00   -3.3994E+01    0.0000E+00  setid=       0
 node=   952 local x,y,z moments=    8.2238E-05    0.0000E+00    4.1499E-03  setid=       0
 node=   953 local x,y,z forces =    0.0000E+00   -3.8951E+01    0.0000E+00  setid=       0
 node=   953 local x,y,z moments=    1.6477E-03    0.0000E+00    2.8465E-03  setid=       0
 node=   954 local x,y,z forces =    0.0000E+00   -4.1128E+01    0.0000E+00  setid=       0
 node=   954 local x,y,z moments=    9.5234E-03    0.0000E+00    1.6306E-03  setid=       0
 node=   961 local x,y,z forces =    0.0000E+00    4.5545E+01    0.0000E+00  setid=       0
 node=   961 local x,y,z moments=    1.0567E-02    0.0000E+00    3.8189E-05  setid=       0
 node=   962 local x,y,z forces =    0.0000E+00    5.1948E+01    0.0000E+00  setid=       0
 node=   962 local x,y,z moments=    1.3575E-02    0.0000E+00   -6.9666E-04  setid=       0
 node=   972 local x,y,z forces =    0.0000E+00   -1.8686E+01    0.0000E+00  setid=       0
 node=   972 local x,y,z moments=   -2.8425E-03    0.0000E+00    3.2881E-03  setid=       0
 node=   973 local x,y,z forces =    0.0000E+00   -9.2171E+00    0.0000E+00  setid=       0
 node=   973 local x,y,z moments=   -5.6184E-03    0.0000E+00    8.5172E-04  setid=       0
 node=   974 local x,y,z forces =    0.0000E+00   -1.0022E+01    0.0000E+00  setid=       0
 node=   974 local x,y,z moments=   -5.1992E-03    0.0000E+00    4.7603E-04  setid=       0
 node=   984 local x,y,z forces =    0.0000E+00    5.6899E+01    0.0000E+00  setid=       0
 node=   984 local x,y,z moments=    2.5325E-02    0.0000E+00   -2.1225E-03  setid=       0
 node=   985 local x,y,z forces =    0.0000E+00   -1.0293E+01    0.0000E+00  setid=       0
 node=   985 local x,y,z moments=   -1.2146E-02    0.0000E+00   -5.0266E-03  setid=       0
 node=   986 local x,y,z forces =    0.0000E+00    3.0711E+01    0.0000E+00  setid=       0
 node=   986 local x,y,z moments=    2.1637E-02    0.0000E+00   -1.1353E-02  setid=       0
 node=   993 local x,y,z forces =    0.0000E+00   -5.8754E+01    0.0000E+00  setid=       0
 node=   993 local x,y,z moments=    1.0625E-03    0.0000E+00    2.0691E-03  setid=       0
 node=   994 local x,y,z forces =    0.0000E+00   -3.7022E+01    0.0000E+00  setid=       0
 node=   994 local x,y,z moments=    6.1669E-04    0.0000E+00    1.4419E-03  setid=       0
 node=   998 local x,y,z forces =    0.0000E+00   -8.3482E+00    0.0000E+00  setid=       0
 node=   998 local x,y,z moments=   -5.8732E-03    0.0000E+00    1.1376E-03  setid=       0
 node=  1005 local x,y,z forces =    0.0000E+00   -5.0299E+01    0.0000E+00  setid=       0
 node=  1005 local x,y,z moments=    2.8941E-03    0.0000E+00    2.6214E-04  setid=       0
 node=  1006 local x,y,z forces =    0.0000E+00   -5.3525E+01    0.0000E+00  setid=       0
 node=  1006 local x,y,z moments=    1.9958E-03    0.0000E+00    4.1068E-04  setid=       0
 node=  1013 local x,y,z forces =    0.0000E+00   -5.4455E+01    0.0000E+00  setid=       0
 node=  1013 local x,y,z moments=   -1.6933E-03    0.0000E+00    4.9887E-03  setid=       0
 node=  1014 local x,y,z forces =    0.0000E+00   -4.7154E+01    0.0000E+00  setid=       0
 node=  1014 local x,y,z moments=   -3.0662E-03    0.0000E+00    2.7404E-03  setid=       0
 node=  1021 local x,y,z forces =    0.0000E+00   -3.6747E+01    0.0000E+00  setid=       0
 node=  1021 local x,y,z moments=   -3.0706E-03    0.0000E+00    4.1756E-03  setid=       0
 node=  1022 local x,y,z forces =    0.0000E+00   -4.9012E+01    0.0000E+00  setid=       0
 node=  1022 local x,y,z moments=   -4.4023E-03    0.0000E+00    4.2710E-03  setid=       0
 node=  1029 local x,y,z forces =    0.0000E+00   -1.6692E+01    0.0000E+00  setid=       0
 node=  1029 local x,y,z moments=   -1.6188E-03    0.0000E+00    1.1631E-03  setid=       0
 node=  1030 local x,y,z forces =    0.0000E+00   -2.4714E+01    0.0000E+00  setid=       0
 node=  1030 local x,y,z moments=   -2.8011E-03    0.0000E+00    3.0567E-03  setid=       0
 node=  1034 local x,y,z forces =    0.0000E+00   -1.7447E+01    0.0000E+00  setid=       0
 node=  1034 local x,y,z moments=   -7.6698E-04    0.0000E+00    2.8540E-03  setid=       0
 node=  1044 local x,y,z forces =    0.0000E+00   -3.2987E+01    0.0000E+00  setid=       0
 node=  1044 local x,y,z moments=   -1.8210E-03    0.0000E+00    3.7319E-03  setid=       0
 node=  1045 local x,y,z forces =    0.0000E+00   -2.7738E+01    0.0000E+00  setid=       0
 node=  1045 local x,y,z moments=   -2.1201E-03    0.0000E+00    3.5829E-03  setid=       0
 node=  1046 local x,y,z forces =    0.0000E+00   -3.1164E+01    0.0000E+00  setid=       0
 node=  1046 local x,y,z moments=   -3.0053E-03    0.0000E+00    3.3912E-03  setid=       0
 node=  1050 local x,y,z forces =    0.0000E+00   -2.5845E+01    0.0000E+00  setid=       0
 node=  1050 local x,y,z moments=   -2.4378E-03    0.0000E+00    2.8332E-03  setid=       0
 node=  1057 local x,y,z forces =    0.0000E+00   -2.1013E+01    0.0000E+00  setid=       0
 node=  1057 local x,y,z moments=   -2.1045E-03    0.0000E+00    3.2852E-03  setid=       0
 node=  1058 local x,y,z forces =    0.0000E+00   -1.0646E+01    0.0000E+00  setid=       0
 node=  1058 local x,y,z moments=   -4.2131E-03    0.0000E+00   -1.4042E-04  setid=       0
 node=  1065 local x,y,z forces =    0.0000E+00    3.0412E+01    0.0000E+00  setid=       0
 node=  1065 local x,y,z moments=    6.3358E-03    0.0000E+00    1.5623E-03  setid=       0
 node=  1066 local x,y,z forces =    0.0000E+00   -4.9024E+01    0.0000E+00  setid=       0
 node=  1066 local x,y,z moments=   -5.3452E-03    0.0000E+00    2.5126E-03  setid=       0
 node=  1070 local x,y,z forces =    0.0000E+00   -1.3395E+01    0.0000E+00  setid=       0
 node=  1070 local x,y,z moments=   -1.9593E-03    0.0000E+00    2.3149E-03  setid=       0
 node=  1074 local x,y,z forces =    0.0000E+00    5.4414E+01    0.0000E+00  setid=       0
 node=  1074 local x,y,z moments=    1.7889E-02    0.0000E+00   -1.1732E-03  setid=       0
 node=  1081 local x,y,z forces =    0.0000E+00   -2.5251E+01    0.0000E+00  setid=       0
 node=  1081 local x,y,z moments=   -1.5776E-03    0.0000E+00    3.4120E-03  setid=       0
 node=  1082 local x,y,z forces =    0.0000E+00   -2.2983E+01    0.0000E+00  setid=       0
 node=  1082 local x,y,z moments=   -2.2195E-03    0.0000E+00    2.8506E-03  setid=       0
 node=  1092 local x,y,z forces =    0.0000E+00   -3.8892E+01    0.0000E+00  setid=       0
 node=  1092 local x,y,z moments=   -3.4100E-03    0.0000E+00    3.6300E-03  setid=       0
 node=  1093 local x,y,z forces =    0.0000E+00   -2.2054E+01    0.0000E+00  setid=       0
 node=  1093 local x,y,z moments=    8.4815E-04    0.0000E+00    7.3730E-03  setid=       0
 node=  1094 local x,y,z forces =    0.0000E+00   -7.3914E+00    0.0000E+00  setid=       0
 node=  1094 local x,y,z moments=   -6.2980E-03    0.0000E+00    1.4692E-03  setid=       0
 node=  1098 local x,y,z forces =    0.0000E+00   -4.1299E+01    0.0000E+00  setid=       0
 node=  1098 local x,y,z moments=    1.3341E-03    0.0000E+00    2.8632E-03  setid=       0
 node=  1105 local x,y,z forces =    0.0000E+00    4.0559E+01    0.0000E+00  setid=       0
 node=  1105 local x,y,z moments=   -6.5095E-03    0.0000E+00   -2.9830E-03  setid=       0
 node=  1106 local x,y,z forces =    0.0000E+00   -4.1995E+01    0.0000E+00  setid=       0
 node=  1106 local x,y,z moments=    1.3193E-02    0.0000E+00    7.8098E-04  setid=       0
 node=  1110 local x,y,z forces =    0.0000E+00   -3.0455E+01    0.0000E+00  setid=       0
 node=  1110 local x,y,z moments=   -1.1366E-03    0.0000E+00    3.8637E-03  setid=       0
 node=  1114 local x,y,z forces =    0.0000E+00    1.1209E+01    0.0000E+00  setid=       0
 node=  1114 local x,y,z moments=    1.8801E-03    0.0000E+00    2.0085E-03  setid=       0
 node=  1118 local x,y,z forces =    0.0000E+00   -4.7791E+01    0.0000E+00  setid=       0
 node=  1118 local x,y,z moments=    4.0537E-03    0.0000E+00   -8.4233E-04  setid=       0
 node=  1122 local x,y,z forces =    0.0000E+00   -1.0736E+01    0.0000E+00  setid=       0
 node=  1122 local x,y,z moments=   -2.7470E-03    0.0000E+00   -1.1724E-03  setid=       0
 node=  1126 local x,y,z forces =    0.0000E+00   -5.7690E+01    0.0000E+00  setid=       0
 node=  1126 local x,y,z moments=    1.2519E-03    0.0000E+00    9.2232E-04  setid=       0
 node=  1130 local x,y,z forces =    0.0000E+00   -3.5528E+01    0.0000E+00  setid=       0
 node=  1130 local x,y,z moments=   -9.6291E-04    0.0000E+00    3.7828E-03  setid=       0
 node=  1134 local x,y,z forces =    0.0000E+00   -9.5520E+00    0.0000E+00  setid=       0
 node=  1134 local x,y,z moments=   -1.7957E-03    0.0000E+00    1.6412E-04  setid=       0
 node=  1138 local x,y,z forces =    0.0000E+00   -6.5799E+00    0.0000E+00  setid=       0
 node=  1138 local x,y,z moments=   -4.0608E-03    0.0000E+00    1.3227E-03  setid=       0
 node=  1142 local x,y,z forces =    0.0000E+00    4.6421E+00    0.0000E+00  setid=       0
 node=  1142 local x,y,z moments=   -5.4444E-04    0.0000E+00   -2.5509E-03  setid=       0
 node=  1146 local x,y,z forces =    0.0000E+00   -3.2294E+01    0.0000E+00  setid=       0
 node=  1146 local x,y,z moments=   -3.3673E-03    0.0000E+00    3.1604E-03  setid=       0
             force resultants   =    1.2818E+02   -9.9982E+00    2.9390E+03
