 LS-DYNA keyword deck by LS-PrePost                                      
                    ls-dyna smp d R14 R14.1.1s_1_ef50e1 date 06/16/2024

 n o d a l   f o r c e/e n e r g y    o u t p u t  t=   0.00000E+00

 velocity boundary condition forces/rigid body moments 

 nd#     220  xforce=   0.0000E+00   yforce=   0.0000E+00  zforce=   0.0000E+00   energy=   0.0000E+00   setid =     220 xmoment=   0.0000E+00 ymoment=   0.0000E+00 zmoment=   0.0000E+00
 nd#     221  xforce=   0.0000E+00   yforce=   0.0000E+00  zforce=   0.0000E+00   energy=   0.0000E+00   setid =     221 xmoment=   0.0000E+00 ymoment=   0.0000E+00 zmoment=   0.0000E+00
 nd#     222  xforce=   0.0000E+00   yforce=   0.0000E+00  zforce=   0.0000E+00   energy=   0.0000E+00   setid =     222 xmoment=   0.0000E+00 ymoment=   0.0000E+00 zmoment=   0.0000E+00
 nd#     223  xforce=   0.0000E+00   yforce=   0.0000E+00  zforce=   0.0000E+00   energy=   0.0000E+00   setid =     223 xmoment=   0.0000E+00 ymoment=   0.0000E+00 zmoment=   0.0000E+00
 nd#     248  xforce=   0.0000E+00   yforce=   0.0000E+00  zforce=   0.0000E+00   energy=   0.0000E+00   setid =     248 xmoment=   0.0000E+00 ymoment=   0.0000E+00 zmoment=   0.0000E+00
 nd#     249  xforce=   0.0000E+00   yforce=   0.0000E+00  zforce=   0.0000E+00   energy=   0.0000E+00   setid =     249 xmoment=   0.0000E+00 ymoment=   0.0000E+00 zmoment=   0.0000E+00
 nd#     286  xforce=   0.0000E+00   yforce=   0.0000E+00  zforce=   0.0000E+00   energy=   0.0000E+00   setid =     286 xmoment=   0.0000E+00 ymoment=   0.0000E+00 zmoment=   0.0000E+00
 nd#     287  xforce=   0.0000E+00   yforce=   0.0000E+00  zforce=   0.0000E+00   energy=   0.0000E+00   setid =     287 xmoment=   0.0000E+00 ymoment=   0.0000E+00 zmoment=   0.0000E+00
 nd#     288  xforce=   0.0000E+00   yforce=   0.0000E+00  zforce=   0.0000E+00   energy=   0.0000E+00   setid =     288 xmoment=   0.0000E+00 ymoment=   0.0000E+00 zmoment=   0.0000E+00
 nd#     301  xforce=   0.0000E+00   yforce=   0.0000E+00  zforce=   0.0000E+00   energy=   0.0000E+00   setid =     301 xmoment=   0.0000E+00 ymoment=   0.0000E+00 zmoment=   0.0000E+00
 nd#     314  xforce=   0.0000E+00   yforce=   0.0000E+00  zforce=   0.0000E+00   energy=   0.0000E+00   setid =     314 xmoment=   0.0000E+00 ymoment=   0.0000E+00 zmoment=   0.0000E+00
 nd#     363  xforce=   0.0000E+00   yforce=   0.0000E+00  zforce=   0.0000E+00   energy=   0.0000E+00   setid =     363 xmoment=   0.0000E+00 ymoment=   0.0000E+00 zmoment=   0.0000E+00
 nd#     364  xforce=   0.0000E+00   yforce=   0.0000E+00  zforce=   0.0000E+00   energy=   0.0000E+00   setid =     364 xmoment=   0.0000E+00 ymoment=   0.0000E+00 zmoment=   0.0000E+00
 nd#     365  xforce=   0.0000E+00   yforce=   0.0000E+00  zforce=   0.0000E+00   energy=   0.0000E+00   setid =     365 xmoment=   0.0000E+00 ymoment=   0.0000E+00 zmoment=   0.0000E+00
 nd#     366  xforce=   0.0000E+00   yforce=   0.0000E+00  zforce=   0.0000E+00   energy=   0.0000E+00   setid =     366 xmoment=   0.0000E+00 ymoment=   0.0000E+00 zmoment=   0.0000E+00
 nd#     379  xforce=   0.0000E+00   yforce=   0.0000E+00  zforce=   0.0000E+00   energy=   0.0000E+00   setid =     379 xmoment=   0.0000E+00 ymoment=   0.0000E+00 zmoment=   0.0000E+00
 nd#     404  xforce=   0.0000E+00   yforce=   0.0000E+00  zforce=   0.0000E+00   energy=   0.0000E+00   setid =     404 xmoment=   0.0000E+00 ymoment=   0.0000E+00 zmoment=   0.0000E+00
 nd#     405  xforce=   0.0000E+00   yforce=   0.0000E+00  zforce=   0.0000E+00   energy=   0.0000E+00   setid =     405 xmoment=   0.0000E+00 ymoment=   0.0000E+00 zmoment=   0.0000E+00
 nd#     418  xforce=   0.0000E+00   yforce=   0.0000E+00  zforce=   0.0000E+00   energy=   0.0000E+00   setid =     418 xmoment=   0.0000E+00 ymoment=   0.0000E+00 zmoment=   0.0000E+00
 nd#     438  xforce=   0.0000E+00   yforce=   0.0000E+00  zforce=   0.0000E+00   energy=   0.0000E+00   setid =     438 xmoment=   0.0000E+00 ymoment=   0.0000E+00 zmoment=   0.0000E+00
 nd#     439  xforce=   0.0000E+00   yforce=   0.0000E+00  zforce=   0.0000E+00   energy=   0.0000E+00   setid =     439 xmoment=   0.0000E+00 ymoment=   0.0000E+00 zmoment=   0.0000E+00
 nd#     440  xforce=   0.0000E+00   yforce=   0.0000E+00  zforce=   0.0000E+00   energy=   0.0000E+00   setid =     440 xmoment=   0.0000E+00 ymoment=   0.0000E+00 zmoment=   0.0000E+00
 nd#     441  xforce=   0.0000E+00   yforce=   0.0000E+00  zforce=   0.0000E+00   energy=   0.0000E+00   setid =     441 xmoment=   0.0000E+00 ymoment=   0.0000E+00 zmoment=   0.0000E+00
 nd#     442  xforce=   0.0000E+00   yforce=   0.0000E+00  zforce=   0.0000E+00   energy=   0.0000E+00   setid =     442 xmoment=   0.0000E+00 ymoment=   0.0000E+00 zmoment=   0.0000E+00
 nd#     443  xforce=   0.0000E+00   yforce=   0.0000E+00  zforce=   0.0000E+00   energy=   0.0000E+00   setid =     443 xmoment=   0.0000E+00 ymoment=   0.0000E+00 zmoment=   0.0000E+00
 nd#     444  xforce=   0.0000E+00   yforce=   0.0000E+00  zforce=   0.0000E+00   energy=   0.0000E+00   setid =     444 xmoment=   0.0000E+00 ymoment=   0.0000E+00 zmoment=   0.0000E+00
 nd#     591  xforce=   0.0000E+00   yforce=   0.0000E+00  zforce=   0.0000E+00   energy=   0.0000E+00   setid =     591 xmoment=   0.0000E+00 ymoment=   0.0000E+00 zmoment=   0.0000E+00
 nd#     592  xforce=   0.0000E+00   yforce=   0.0000E+00  zforce=   0.0000E+00   energy=   0.0000E+00   setid =     592 xmoment=   0.0000E+00 ymoment=   0.0000E+00 zmoment=   0.0000E+00
 nd#     595  xforce=   0.0000E+00   yforce=   0.0000E+00  zforce=   0.0000E+00   energy=   0.0000E+00   setid =     595 xmoment=   0.0000E+00 ymoment=   0.0000E+00 zmoment=   0.0000E+00
 nd#     596  xforce=   0.0000E+00   yforce=   0.0000E+00  zforce=   0.0000E+00   energy=   0.0000E+00   setid =     596 xmoment=   0.0000E+00 ymoment=   0.0000E+00 zmoment=   0.0000E+00
 nd#     599  xforce=   0.0000E+00   yforce=   0.0000E+00  zforce=   0.0000E+00   energy=   0.0000E+00   setid =     599 xmoment=   0.0000E+00 ymoment=   0.0000E+00 zmoment=   0.0000E+00
 nd#     600  xforce=   0.0000E+00   yforce=   0.0000E+00  zforce=   0.0000E+00   energy=   0.0000E+00   setid =     600 xmoment=   0.0000E+00 ymoment=   0.0000E+00 zmoment=   0.0000E+00
 nd#     603  xforce=   0.0000E+00   yforce=   0.0000E+00  zforce=   0.0000E+00   energy=   0.0000E+00   setid =     603 xmoment=   0.0000E+00 ymoment=   0.0000E+00 zmoment=   0.0000E+00
 nd#     604  xforce=   0.0000E+00   yforce=   0.0000E+00  zforce=   0.0000E+00   energy=   0.0000E+00   setid =     604 xmoment=   0.0000E+00 ymoment=   0.0000E+00 zmoment=   0.0000E+00
 nd#     638  xforce=   0.0000E+00   yforce=   0.0000E+00  zforce=   0.0000E+00   energy=   0.0000E+00   setid =     638 xmoment=   0.0000E+00 ymoment=   0.0000E+00 zmoment=   0.0000E+00
 nd#     639  xforce=   0.0000E+00   yforce=   0.0000E+00  zforce=   0.0000E+00   energy=   0.0000E+00   setid =     639 xmoment=   0.0000E+00 ymoment=   0.0000E+00 zmoment=   0.0000E+00
 nd#     641  xforce=   0.0000E+00   yforce=   0.0000E+00  zforce=   0.0000E+00   energy=   0.0000E+00   setid =     641 xmoment=   0.0000E+00 ymoment=   0.0000E+00 zmoment=   0.0000E+00
 nd#     642  xforce=   0.0000E+00   yforce=   0.0000E+00  zforce=   0.0000E+00   energy=   0.0000E+00   setid =     642 xmoment=   0.0000E+00 ymoment=   0.0000E+00 zmoment=   0.0000E+00
 nd#     644  xforce=   0.0000E+00   yforce=   0.0000E+00  zforce=   0.0000E+00   energy=   0.0000E+00   setid =     644 xmoment=   0.0000E+00 ymoment=   0.0000E+00 zmoment=   0.0000E+00
 nd#     645  xforce=   0.0000E+00   yforce=   0.0000E+00  zforce=   0.0000E+00   energy=   0.0000E+00   setid =     645 xmoment=   0.0000E+00 ymoment=   0.0000E+00 zmoment=   0.0000E+00
 nd#     647  xforce=   0.0000E+00   yforce=   0.0000E+00  zforce=   0.0000E+00   energy=   0.0000E+00   setid =     647 xmoment=   0.0000E+00 ymoment=   0.0000E+00 zmoment=   0.0000E+00
 nd#     648  xforce=   0.0000E+00   yforce=   0.0000E+00  zforce=   0.0000E+00   energy=   0.0000E+00   setid =     648 xmoment=   0.0000E+00 ymoment=   0.0000E+00 zmoment=   0.0000E+00
 nd#     674  xforce=   0.0000E+00   yforce=   0.0000E+00  zforce=   0.0000E+00   energy=   0.0000E+00   setid =     674 xmoment=   0.0000E+00 ymoment=   0.0000E+00 zmoment=   0.0000E+00
 nd#     676  xforce=   0.0000E+00   yforce=   0.0000E+00  zforce=   0.0000E+00   energy=   0.0000E+00   setid =     676 xmoment=   0.0000E+00 ymoment=   0.0000E+00 zmoment=   0.0000E+00
 nd#     678  xforce=   0.0000E+00   yforce=   0.0000E+00  zforce=   0.0000E+00   energy=   0.0000E+00   setid =     678 xmoment=   0.0000E+00 ymoment=   0.0000E+00 zmoment=   0.0000E+00
 nd#     680  xforce=   0.0000E+00   yforce=   0.0000E+00  zforce=   0.0000E+00   energy=   0.0000E+00   setid =     680 xmoment=   0.0000E+00 ymoment=   0.0000E+00 zmoment=   0.0000E+00
 nd#     821  xforce=   0.0000E+00   yforce=   0.0000E+00  zforce=   0.0000E+00   energy=   0.0000E+00   setid =     821 xmoment=   0.0000E+00 ymoment=   0.0000E+00 zmoment=   0.0000E+00
 nd#     822  xforce=   0.0000E+00   yforce=   0.0000E+00  zforce=   0.0000E+00   energy=   0.0000E+00   setid =     822 xmoment=   0.0000E+00 ymoment=   0.0000E+00 zmoment=   0.0000E+00
 nd#     823  xforce=   0.0000E+00   yforce=   0.0000E+00  zforce=   0.0000E+00   energy=   0.0000E+00   setid =     823 xmoment=   0.0000E+00 ymoment=   0.0000E+00 zmoment=   0.0000E+00
 nd#     824  xforce=   0.0000E+00   yforce=   0.0000E+00  zforce=   0.0000E+00   energy=   0.0000E+00   setid =     824 xmoment=   0.0000E+00 ymoment=   0.0000E+00 zmoment=   0.0000E+00
 nd#     850  xforce=   0.0000E+00   yforce=   0.0000E+00  zforce=   0.0000E+00   energy=   0.0000E+00   setid =     850 xmoment=   0.0000E+00 ymoment=   0.0000E+00 zmoment=   0.0000E+00
 nd#     852  xforce=   0.0000E+00   yforce=   0.0000E+00  zforce=   0.0000E+00   energy=   0.0000E+00   setid =     852 xmoment=   0.0000E+00 ymoment=   0.0000E+00 zmoment=   0.0000E+00
 nd#     854  xforce=   0.0000E+00   yforce=   0.0000E+00  zforce=   0.0000E+00   energy=   0.0000E+00   setid =     854 xmoment=   0.0000E+00 ymoment=   0.0000E+00 zmoment=   0.0000E+00
 nd#     856  xforce=   0.0000E+00   yforce=   0.0000E+00  zforce=   0.0000E+00   energy=   0.0000E+00   setid =     856 xmoment=   0.0000E+00 ymoment=   0.0000E+00 zmoment=   0.0000E+00
              xtotal=   0.0000E+00   ytotal=   0.0000E+00  ztotal=   0.0000E+00   etotal=   0.0000E+00

 n o d a l   f o r c e/e n e r g y    o u t p u t  t=   1.29245E+00

 velocity boundary condition forces/rigid body moments 

 nd#     220  xforce=   0.0000E+00   yforce=   0.0000E+00  zforce=  -1.4005E+01   energy=   8.9493E-05   setid =     220 xmoment=   0.0000E+00 ymoment=   0.0000E+00 zmoment=   0.0000E+00
 nd#     221  xforce=   0.0000E+00   yforce=   0.0000E+00  zforce=  -1.9136E+01   energy=   1.2898E-04   setid =     221 xmoment=   0.0000E+00 ymoment=   0.0000E+00 zmoment=   0.0000E+00
 nd#     222  xforce=   0.0000E+00   yforce=   0.0000E+00  zforce=  -2.9374E+01   energy=   1.9109E-04   setid =     222 xmoment=   0.0000E+00 ymoment=   0.0000E+00 zmoment=   0.0000E+00
 nd#     223  xforce=   0.0000E+00   yforce=   0.0000E+00  zforce=  -1.7577E+01   energy=   1.1220E-04   setid =     223 xmoment=   0.0000E+00 ymoment=   0.0000E+00 zmoment=   0.0000E+00
 nd#     248  xforce=   0.0000E+00   yforce=   0.0000E+00  zforce=  -2.6580E+01   energy=   1.7172E-04   setid =     248 xmoment=   0.0000E+00 ymoment=   0.0000E+00 zmoment=   0.0000E+00
 nd#     249  xforce=   0.0000E+00   yforce=   0.0000E+00  zforce=  -1.5619E+01   energy=   9.9474E-05   setid =     249 xmoment=   0.0000E+00 ymoment=   0.0000E+00 zmoment=   0.0000E+00
 nd#     286  xforce=   0.0000E+00   yforce=   0.0000E+00  zforce=  -2.7562E+01   energy=   1.7928E-04   setid =     286 xmoment=   0.0000E+00 ymoment=   0.0000E+00 zmoment=   0.0000E+00
 nd#     287  xforce=   0.0000E+00   yforce=   0.0000E+00  zforce=  -1.4601E+01   energy=   9.6168E-05   setid =     287 xmoment=   0.0000E+00 ymoment=   0.0000E+00 zmoment=   0.0000E+00
 nd#     288  xforce=   0.0000E+00   yforce=   0.0000E+00  zforce=  -2.6605E+01   energy=   1.7302E-04   setid =     288 xmoment=   0.0000E+00 ymoment=   0.0000E+00 zmoment=   0.0000E+00
 nd#     301  xforce=   0.0000E+00   yforce=   0.0000E+00  zforce=  -2.8971E+01   energy=   1.8822E-04   setid =     301 xmoment=   0.0000E+00 ymoment=   0.0000E+00 zmoment=   0.0000E+00
 nd#     314  xforce=   0.0000E+00   yforce=   0.0000E+00  zforce=  -2.5515E+01   energy=   1.6569E-04   setid =     314 xmoment=   0.0000E+00 ymoment=   0.0000E+00 zmoment=   0.0000E+00
 nd#     363  xforce=   0.0000E+00   yforce=   0.0000E+00  zforce=  -2.6885E+01   energy=   1.7423E-04   setid =     363 xmoment=   0.0000E+00 ymoment=   0.0000E+00 zmoment=   0.0000E+00
 nd#     364  xforce=   0.0000E+00   yforce=   0.0000E+00  zforce=  -3.3594E+01   energy=   2.1697E-04   setid =     364 xmoment=   0.0000E+00 ymoment=   0.0000E+00 zmoment=   0.0000E+00
 nd#     365  xforce=   0.0000E+00   yforce=   0.0000E+00  zforce=  -1.9898E+01   energy=   1.2488E-04   setid =     365 xmoment=   0.0000E+00 ymoment=   0.0000E+00 zmoment=   0.0000E+00
 nd#     366  xforce=   0.0000E+00   yforce=   0.0000E+00  zforce=  -1.4782E+01   energy=   9.4343E-05   setid =     366 xmoment=   0.0000E+00 ymoment=   0.0000E+00 zmoment=   0.0000E+00
 nd#     379  xforce=   0.0000E+00   yforce=   0.0000E+00  zforce=  -1.8162E+01   energy=   1.1358E-04   setid =     379 xmoment=   0.0000E+00 ymoment=   0.0000E+00 zmoment=   0.0000E+00
 nd#     404  xforce=   0.0000E+00   yforce=   0.0000E+00  zforce=  -1.6752E+01   energy=   1.0352E-04   setid =     404 xmoment=   0.0000E+00 ymoment=   0.0000E+00 zmoment=   0.0000E+00
 nd#     405  xforce=   0.0000E+00   yforce=   0.0000E+00  zforce=  -1.1276E+01   energy=   6.8330E-05   setid =     405 xmoment=   0.0000E+00 ymoment=   0.0000E+00 zmoment=   0.0000E+00
 nd#     418  xforce=   0.0000E+00   yforce=   0.0000E+00  zforce=  -1.9632E+01   energy=   1.2109E-04   setid =     418 xmoment=   0.0000E+00 ymoment=   0.0000E+00 zmoment=   0.0000E+00
 nd#     438  xforce=   0.0000E+00   yforce=   0.0000E+00  zforce=  -2.5428E+00   energy=   1.7335E-05   setid =     438 xmoment=   0.0000E+00 ymoment=   0.0000E+00 zmoment=   0.0000E+00
 nd#     439  xforce=   0.0000E+00   yforce=   0.0000E+00  zforce=  -1.3070E+01   energy=   8.5508E-05   setid =     439 xmoment=   0.0000E+00 ymoment=   0.0000E+00 zmoment=   0.0000E+00
 nd#     440  xforce=   0.0000E+00   yforce=   0.0000E+00  zforce=  -1.2991E+01   energy=   8.4486E-05   setid =     440 xmoment=   0.0000E+00 ymoment=   0.0000E+00 zmoment=   0.0000E+00
 nd#     441  xforce=   0.0000E+00   yforce=   0.0000E+00  zforce=  -1.2704E+01   energy=   8.2297E-05   setid =     441 xmoment=   0.0000E+00 ymoment=   0.0000E+00 zmoment=   0.0000E+00
 nd#     442  xforce=   0.0000E+00   yforce=   0.0000E+00  zforce=  -1.2390E+01   energy=   7.9977E-05   setid =     442 xmoment=   0.0000E+00 ymoment=   0.0000E+00 zmoment=   0.0000E+00
 nd#     443  xforce=   0.0000E+00   yforce=   0.0000E+00  zforce=  -1.2014E+01   energy=   7.7310E-05   setid =     443 xmoment=   0.0000E+00 ymoment=   0.0000E+00 zmoment=   0.0000E+00
 nd#     444  xforce=   0.0000E+00   yforce=   0.0000E+00  zforce=  -1.1385E+01   energy=   7.3063E-05   setid =     444 xmoment=   0.0000E+00 ymoment=   0.0000E+00 zmoment=   0.0000E+00
 nd#     591  xforce=   0.0000E+00   yforce=   0.0000E+00  zforce=  -2.3653E+01   energy=   1.5325E-04   setid =     591 xmoment=   0.0000E+00 ymoment=   0.0000E+00 zmoment=   0.0000E+00
 nd#     592  xforce=   0.0000E+00   yforce=   0.0000E+00  zforce=  -2.4623E+01   energy=   1.5971E-04   setid =     592 xmoment=   0.0000E+00 ymoment=   0.0000E+00 zmoment=   0.0000E+00
 nd#     595  xforce=   0.0000E+00   yforce=   0.0000E+00  zforce=  -2.3235E+01   energy=   1.5054E-04   setid =     595 xmoment=   0.0000E+00 ymoment=   0.0000E+00 zmoment=   0.0000E+00
 nd#     596  xforce=   0.0000E+00   yforce=   0.0000E+00  zforce=  -2.4460E+01   energy=   1.5857E-04   setid =     596 xmoment=   0.0000E+00 ymoment=   0.0000E+00 zmoment=   0.0000E+00
 nd#     599  xforce=   0.0000E+00   yforce=   0.0000E+00  zforce=  -2.3391E+01   energy=   1.5120E-04   setid =     599 xmoment=   0.0000E+00 ymoment=   0.0000E+00 zmoment=   0.0000E+00
 nd#     600  xforce=   0.0000E+00   yforce=   0.0000E+00  zforce=  -2.4725E+01   energy=   1.5985E-04   setid =     600 xmoment=   0.0000E+00 ymoment=   0.0000E+00 zmoment=   0.0000E+00
 nd#     603  xforce=   0.0000E+00   yforce=   0.0000E+00  zforce=  -1.2319E+01   energy=   7.9062E-05   setid =     603 xmoment=   0.0000E+00 ymoment=   0.0000E+00 zmoment=   0.0000E+00
 nd#     604  xforce=   0.0000E+00   yforce=   0.0000E+00  zforce=  -1.2918E+01   energy=   8.2991E-05   setid =     604 xmoment=   0.0000E+00 ymoment=   0.0000E+00 zmoment=   0.0000E+00
 nd#     638  xforce=   0.0000E+00   yforce=   0.0000E+00  zforce=  -2.6128E+01   energy=   1.7025E-04   setid =     638 xmoment=   0.0000E+00 ymoment=   0.0000E+00 zmoment=   0.0000E+00
 nd#     639  xforce=   0.0000E+00   yforce=   0.0000E+00  zforce=  -2.6313E+01   energy=   1.7234E-04   setid =     639 xmoment=   0.0000E+00 ymoment=   0.0000E+00 zmoment=   0.0000E+00
 nd#     641  xforce=   0.0000E+00   yforce=   0.0000E+00  zforce=  -2.6371E+01   energy=   1.7155E-04   setid =     641 xmoment=   0.0000E+00 ymoment=   0.0000E+00 zmoment=   0.0000E+00
 nd#     642  xforce=   0.0000E+00   yforce=   0.0000E+00  zforce=  -2.6598E+01   energy=   1.7388E-04   setid =     642 xmoment=   0.0000E+00 ymoment=   0.0000E+00 zmoment=   0.0000E+00
 nd#     644  xforce=   0.0000E+00   yforce=   0.0000E+00  zforce=  -2.6830E+01   energy=   1.7387E-04   setid =     644 xmoment=   0.0000E+00 ymoment=   0.0000E+00 zmoment=   0.0000E+00
 nd#     645  xforce=   0.0000E+00   yforce=   0.0000E+00  zforce=  -2.7234E+01   energy=   1.7725E-04   setid =     645 xmoment=   0.0000E+00 ymoment=   0.0000E+00 zmoment=   0.0000E+00
 nd#     647  xforce=   0.0000E+00   yforce=   0.0000E+00  zforce=  -1.3828E+01   energy=   8.9185E-05   setid =     647 xmoment=   0.0000E+00 ymoment=   0.0000E+00 zmoment=   0.0000E+00
 nd#     648  xforce=   0.0000E+00   yforce=   0.0000E+00  zforce=  -1.4002E+01   energy=   9.0725E-05   setid =     648 xmoment=   0.0000E+00 ymoment=   0.0000E+00 zmoment=   0.0000E+00
 nd#     674  xforce=   0.0000E+00   yforce=   0.0000E+00  zforce=  -2.2338E+01   energy=   1.4462E-04   setid =     674 xmoment=   0.0000E+00 ymoment=   0.0000E+00 zmoment=   0.0000E+00
 nd#     676  xforce=   0.0000E+00   yforce=   0.0000E+00  zforce=  -2.1774E+01   energy=   1.4099E-04   setid =     676 xmoment=   0.0000E+00 ymoment=   0.0000E+00 zmoment=   0.0000E+00
 nd#     678  xforce=   0.0000E+00   yforce=   0.0000E+00  zforce=  -2.2013E+01   energy=   1.4218E-04   setid =     678 xmoment=   0.0000E+00 ymoment=   0.0000E+00 zmoment=   0.0000E+00
 nd#     680  xforce=   0.0000E+00   yforce=   0.0000E+00  zforce=  -1.1700E+01   energy=   7.4950E-05   setid =     680 xmoment=   0.0000E+00 ymoment=   0.0000E+00 zmoment=   0.0000E+00
 nd#     821  xforce=   0.0000E+00   yforce=   0.0000E+00  zforce=  -2.5436E+01   energy=   1.6530E-04   setid =     821 xmoment=   0.0000E+00 ymoment=   0.0000E+00 zmoment=   0.0000E+00
 nd#     822  xforce=   0.0000E+00   yforce=   0.0000E+00  zforce=  -2.5507E+01   energy=   1.6557E-04   setid =     822 xmoment=   0.0000E+00 ymoment=   0.0000E+00 zmoment=   0.0000E+00
 nd#     823  xforce=   0.0000E+00   yforce=   0.0000E+00  zforce=  -2.5865E+01   energy=   1.6734E-04   setid =     823 xmoment=   0.0000E+00 ymoment=   0.0000E+00 zmoment=   0.0000E+00
 nd#     824  xforce=   0.0000E+00   yforce=   0.0000E+00  zforce=  -1.3411E+01   energy=   8.6293E-05   setid =     824 xmoment=   0.0000E+00 ymoment=   0.0000E+00 zmoment=   0.0000E+00
 nd#     850  xforce=   0.0000E+00   yforce=   0.0000E+00  zforce=  -4.2793E+00   energy=   3.0418E-05   setid =     850 xmoment=   0.0000E+00 ymoment=   0.0000E+00 zmoment=   0.0000E+00
 nd#     852  xforce=   0.0000E+00   yforce=   0.0000E+00  zforce=  -2.5031E+00   energy=   2.0323E-05   setid =     852 xmoment=   0.0000E+00 ymoment=   0.0000E+00 zmoment=   0.0000E+00
 nd#     854  xforce=   0.0000E+00   yforce=   0.0000E+00  zforce=  -6.1608E-01   energy=   9.9206E-06   setid =     854 xmoment=   0.0000E+00 ymoment=   0.0000E+00 zmoment=   0.0000E+00
 nd#     856  xforce=   0.0000E+00   yforce=   0.0000E+00  zforce=  -1.4138E-01   energy=   4.2560E-06   setid =     856 xmoment=   0.0000E+00 ymoment=   0.0000E+00 zmoment=   0.0000E+00
              xtotal=   0.0000E+00   ytotal=   0.0000E+00  ztotal=  -1.0158E+03   etotal=   6.5786E-03

 n o d a l   f o r c e/e n e r g y    o u t p u t  t=   2.54839E+00

 velocity boundary condition forces/rigid body moments 

 nd#     220  xforce=   0.0000E+00   yforce=   0.0000E+00  zforce=  -2.8612E+01   energy=   3.5711E-04   setid =     220 xmoment=   0.0000E+00 ymoment=   0.0000E+00 zmoment=   0.0000E+00
 nd#     221  xforce=   0.0000E+00   yforce=   0.0000E+00  zforce=  -3.5353E+01   energy=   4.7116E-04   setid =     221 xmoment=   0.0000E+00 ymoment=   0.0000E+00 zmoment=   0.0000E+00
 nd#     222  xforce=   0.0000E+00   yforce=   0.0000E+00  zforce=  -5.7377E+01   energy=   7.3586E-04   setid =     222 xmoment=   0.0000E+00 ymoment=   0.0000E+00 zmoment=   0.0000E+00
 nd#     223  xforce=   0.0000E+00   yforce=   0.0000E+00  zforce=  -3.5492E+01   energy=   4.4546E-04   setid =     223 xmoment=   0.0000E+00 ymoment=   0.0000E+00 zmoment=   0.0000E+00
 nd#     248  xforce=   0.0000E+00   yforce=   0.0000E+00  zforce=  -5.2351E+01   energy=   6.6738E-04   setid =     248 xmoment=   0.0000E+00 ymoment=   0.0000E+00 zmoment=   0.0000E+00
 nd#     249  xforce=   0.0000E+00   yforce=   0.0000E+00  zforce=  -3.1501E+01   energy=   3.9537E-04   setid =     249 xmoment=   0.0000E+00 ymoment=   0.0000E+00 zmoment=   0.0000E+00
 nd#     286  xforce=   0.0000E+00   yforce=   0.0000E+00  zforce=  -5.1765E+01   energy=   6.7743E-04   setid =     286 xmoment=   0.0000E+00 ymoment=   0.0000E+00 zmoment=   0.0000E+00
 nd#     287  xforce=   0.0000E+00   yforce=   0.0000E+00  zforce=  -2.7858E+01   energy=   3.6280E-04   setid =     287 xmoment=   0.0000E+00 ymoment=   0.0000E+00 zmoment=   0.0000E+00
 nd#     288  xforce=   0.0000E+00   yforce=   0.0000E+00  zforce=  -5.0960E+01   energy=   6.6011E-04   setid =     288 xmoment=   0.0000E+00 ymoment=   0.0000E+00 zmoment=   0.0000E+00
 nd#     301  xforce=   0.0000E+00   yforce=   0.0000E+00  zforce=  -5.6854E+01   energy=   7.2718E-04   setid =     301 xmoment=   0.0000E+00 ymoment=   0.0000E+00 zmoment=   0.0000E+00
 nd#     314  xforce=   0.0000E+00   yforce=   0.0000E+00  zforce=  -4.9969E+01   energy=   6.3970E-04   setid =     314 xmoment=   0.0000E+00 ymoment=   0.0000E+00 zmoment=   0.0000E+00
 nd#     363  xforce=   0.0000E+00   yforce=   0.0000E+00  zforce=  -5.2256E+01   energy=   6.7121E-04   setid =     363 xmoment=   0.0000E+00 ymoment=   0.0000E+00 zmoment=   0.0000E+00
 nd#     364  xforce=   0.0000E+00   yforce=   0.0000E+00  zforce=  -6.5470E+01   energy=   8.3906E-04   setid =     364 xmoment=   0.0000E+00 ymoment=   0.0000E+00 zmoment=   0.0000E+00
 nd#     365  xforce=   0.0000E+00   yforce=   0.0000E+00  zforce=  -4.1769E+01   energy=   5.1213E-04   setid =     365 xmoment=   0.0000E+00 ymoment=   0.0000E+00 zmoment=   0.0000E+00
 nd#     366  xforce=   0.0000E+00   yforce=   0.0000E+00  zforce=  -3.0005E+01   energy=   3.7560E-04   setid =     366 xmoment=   0.0000E+00 ymoment=   0.0000E+00 zmoment=   0.0000E+00
 nd#     379  xforce=   0.0000E+00   yforce=   0.0000E+00  zforce=  -3.7414E+01   energy=   4.6258E-04   setid =     379 xmoment=   0.0000E+00 ymoment=   0.0000E+00 zmoment=   0.0000E+00
 nd#     404  xforce=   0.0000E+00   yforce=   0.0000E+00  zforce=  -3.6793E+01   energy=   4.3977E-04   setid =     404 xmoment=   0.0000E+00 ymoment=   0.0000E+00 zmoment=   0.0000E+00
 nd#     405  xforce=   0.0000E+00   yforce=   0.0000E+00  zforce=  -2.5239E+01   energy=   2.9763E-04   setid =     405 xmoment=   0.0000E+00 ymoment=   0.0000E+00 zmoment=   0.0000E+00
 nd#     418  xforce=   0.0000E+00   yforce=   0.0000E+00  zforce=  -4.2161E+01   energy=   5.0913E-04   setid =     418 xmoment=   0.0000E+00 ymoment=   0.0000E+00 zmoment=   0.0000E+00
 nd#     438  xforce=   0.0000E+00   yforce=   0.0000E+00  zforce=  -4.4912E+00   energy=   6.1507E-05   setid =     438 xmoment=   0.0000E+00 ymoment=   0.0000E+00 zmoment=   0.0000E+00
 nd#     439  xforce=   0.0000E+00   yforce=   0.0000E+00  zforce=  -2.5238E+01   energy=   3.2607E-04   setid =     439 xmoment=   0.0000E+00 ymoment=   0.0000E+00 zmoment=   0.0000E+00
 nd#     440  xforce=   0.0000E+00   yforce=   0.0000E+00  zforce=  -2.5369E+01   energy=   3.2538E-04   setid =     440 xmoment=   0.0000E+00 ymoment=   0.0000E+00 zmoment=   0.0000E+00
 nd#     441  xforce=   0.0000E+00   yforce=   0.0000E+00  zforce=  -2.4985E+01   energy=   3.1897E-04   setid =     441 xmoment=   0.0000E+00 ymoment=   0.0000E+00 zmoment=   0.0000E+00
 nd#     442  xforce=   0.0000E+00   yforce=   0.0000E+00  zforce=  -2.4521E+01   energy=   3.1176E-04   setid =     442 xmoment=   0.0000E+00 ymoment=   0.0000E+00 zmoment=   0.0000E+00
 nd#     443  xforce=   0.0000E+00   yforce=   0.0000E+00  zforce=  -2.3919E+01   energy=   3.0296E-04   setid =     443 xmoment=   0.0000E+00 ymoment=   0.0000E+00 zmoment=   0.0000E+00
 nd#     444  xforce=   0.0000E+00   yforce=   0.0000E+00  zforce=  -2.2800E+01   energy=   2.8773E-04   setid =     444 xmoment=   0.0000E+00 ymoment=   0.0000E+00 zmoment=   0.0000E+00
 nd#     591  xforce=   0.0000E+00   yforce=   0.0000E+00  zforce=  -4.6102E+01   energy=   5.9129E-04   setid =     591 xmoment=   0.0000E+00 ymoment=   0.0000E+00 zmoment=   0.0000E+00
 nd#     592  xforce=   0.0000E+00   yforce=   0.0000E+00  zforce=  -4.7965E+01   energy=   6.1554E-04   setid =     592 xmoment=   0.0000E+00 ymoment=   0.0000E+00 zmoment=   0.0000E+00
 nd#     595  xforce=   0.0000E+00   yforce=   0.0000E+00  zforce=  -4.5614E+01   energy=   5.8290E-04   setid =     595 xmoment=   0.0000E+00 ymoment=   0.0000E+00 zmoment=   0.0000E+00
 nd#     596  xforce=   0.0000E+00   yforce=   0.0000E+00  zforce=  -4.7947E+01   energy=   6.1327E-04   setid =     596 xmoment=   0.0000E+00 ymoment=   0.0000E+00 zmoment=   0.0000E+00
 nd#     599  xforce=   0.0000E+00   yforce=   0.0000E+00  zforce=  -4.6064E+01   energy=   5.8735E-04   setid =     599 xmoment=   0.0000E+00 ymoment=   0.0000E+00 zmoment=   0.0000E+00
 nd#     600  xforce=   0.0000E+00   yforce=   0.0000E+00  zforce=  -4.8683E+01   energy=   6.2083E-04   setid =     600 xmoment=   0.0000E+00 ymoment=   0.0000E+00 zmoment=   0.0000E+00
 nd#     603  xforce=   0.0000E+00   yforce=   0.0000E+00  zforce=  -2.4565E+01   energy=   3.1068E-04   setid =     603 xmoment=   0.0000E+00 ymoment=   0.0000E+00 zmoment=   0.0000E+00
 nd#     604  xforce=   0.0000E+00   yforce=   0.0000E+00  zforce=  -2.5713E+01   energy=   3.2559E-04   setid =     604 xmoment=   0.0000E+00 ymoment=   0.0000E+00 zmoment=   0.0000E+00
 nd#     638  xforce=   0.0000E+00   yforce=   0.0000E+00  zforce=  -5.0634E+01   energy=   6.5229E-04   setid =     638 xmoment=   0.0000E+00 ymoment=   0.0000E+00 zmoment=   0.0000E+00
 nd#     639  xforce=   0.0000E+00   yforce=   0.0000E+00  zforce=  -5.0543E+01   energy=   6.5498E-04   setid =     639 xmoment=   0.0000E+00 ymoment=   0.0000E+00 zmoment=   0.0000E+00
 nd#     641  xforce=   0.0000E+00   yforce=   0.0000E+00  zforce=  -5.1399E+01   energy=   6.5992E-04   setid =     641 xmoment=   0.0000E+00 ymoment=   0.0000E+00 zmoment=   0.0000E+00
 nd#     642  xforce=   0.0000E+00   yforce=   0.0000E+00  zforce=  -5.1413E+01   energy=   6.6377E-04   setid =     642 xmoment=   0.0000E+00 ymoment=   0.0000E+00 zmoment=   0.0000E+00
 nd#     644  xforce=   0.0000E+00   yforce=   0.0000E+00  zforce=  -5.2675E+01   energy=   6.7314E-04   setid =     644 xmoment=   0.0000E+00 ymoment=   0.0000E+00 zmoment=   0.0000E+00
 nd#     645  xforce=   0.0000E+00   yforce=   0.0000E+00  zforce=  -5.3073E+01   energy=   6.8156E-04   setid =     645 xmoment=   0.0000E+00 ymoment=   0.0000E+00 zmoment=   0.0000E+00
 nd#     647  xforce=   0.0000E+00   yforce=   0.0000E+00  zforce=  -2.7366E+01   energy=   3.4787E-04   setid =     647 xmoment=   0.0000E+00 ymoment=   0.0000E+00 zmoment=   0.0000E+00
 nd#     648  xforce=   0.0000E+00   yforce=   0.0000E+00  zforce=  -2.7503E+01   energy=   3.5136E-04   setid =     648 xmoment=   0.0000E+00 ymoment=   0.0000E+00 zmoment=   0.0000E+00
 nd#     674  xforce=   0.0000E+00   yforce=   0.0000E+00  zforce=  -4.3546E+01   energy=   5.5835E-04   setid =     674 xmoment=   0.0000E+00 ymoment=   0.0000E+00 zmoment=   0.0000E+00
 nd#     676  xforce=   0.0000E+00   yforce=   0.0000E+00  zforce=  -4.2818E+01   energy=   5.4661E-04   setid =     676 xmoment=   0.0000E+00 ymoment=   0.0000E+00 zmoment=   0.0000E+00
 nd#     678  xforce=   0.0000E+00   yforce=   0.0000E+00  zforce=  -4.3408E+01   energy=   5.5300E-04   setid =     678 xmoment=   0.0000E+00 ymoment=   0.0000E+00 zmoment=   0.0000E+00
 nd#     680  xforce=   0.0000E+00   yforce=   0.0000E+00  zforce=  -2.3407E+01   energy=   2.9541E-04   setid =     680 xmoment=   0.0000E+00 ymoment=   0.0000E+00 zmoment=   0.0000E+00
 nd#     821  xforce=   0.0000E+00   yforce=   0.0000E+00  zforce=  -4.9459E+01   energy=   6.3562E-04   setid =     821 xmoment=   0.0000E+00 ymoment=   0.0000E+00 zmoment=   0.0000E+00
 nd#     822  xforce=   0.0000E+00   yforce=   0.0000E+00  zforce=  -4.9892E+01   energy=   6.3905E-04   setid =     822 xmoment=   0.0000E+00 ymoment=   0.0000E+00 zmoment=   0.0000E+00
 nd#     823  xforce=   0.0000E+00   yforce=   0.0000E+00  zforce=  -5.0895E+01   energy=   6.4937E-04   setid =     823 xmoment=   0.0000E+00 ymoment=   0.0000E+00 zmoment=   0.0000E+00
 nd#     824  xforce=   0.0000E+00   yforce=   0.0000E+00  zforce=  -2.6631E+01   energy=   3.3774E-04   setid =     824 xmoment=   0.0000E+00 ymoment=   0.0000E+00 zmoment=   0.0000E+00
 nd#     850  xforce=   0.0000E+00   yforce=   0.0000E+00  zforce=  -6.7947E+00   energy=   9.9960E-05   setid =     850 xmoment=   0.0000E+00 ymoment=   0.0000E+00 zmoment=   0.0000E+00
 nd#     852  xforce=   0.0000E+00   yforce=   0.0000E+00  zforce=  -2.7136E+00   energy=   5.3082E-05   setid =     852 xmoment=   0.0000E+00 ymoment=   0.0000E+00 zmoment=   0.0000E+00
 nd#     854  xforce=   0.0000E+00   yforce=   0.0000E+00  zforce=   1.9423E+00   energy=   1.5921E-06   setid =     854 xmoment=   0.0000E+00 ymoment=   0.0000E+00 zmoment=   0.0000E+00
 nd#     856  xforce=   0.0000E+00   yforce=   0.0000E+00  zforce=   1.7264E+00   energy=  -5.6972E-06   setid =     856 xmoment=   0.0000E+00 ymoment=   0.0000E+00 zmoment=   0.0000E+00
              xtotal=   0.0000E+00   ytotal=   0.0000E+00  ztotal=  -1.9937E+03   etotal=   2.5477E-02

 n o d a l   f o r c e/e n e r g y    o u t p u t  t=   3.47231E+00

 velocity boundary condition forces/rigid body moments 

 nd#     220  xforce=   0.0000E+00   yforce=   0.0000E+00  zforce=  -4.2553E+01   energy=   6.8587E-04   setid =     220 xmoment=   0.0000E+00 ymoment=   0.0000E+00 zmoment=   0.0000E+00
 nd#     221  xforce=   0.0000E+00   yforce=   0.0000E+00  zforce=  -3.3695E+01   energy=   7.9014E-04   setid =     221 xmoment=   0.0000E+00 ymoment=   0.0000E+00 zmoment=   0.0000E+00
 nd#     222  xforce=   0.0000E+00   yforce=   0.0000E+00  zforce=  -6.8560E+01   energy=   1.3176E-03   setid =     222 xmoment=   0.0000E+00 ymoment=   0.0000E+00 zmoment=   0.0000E+00
 nd#     223  xforce=   0.0000E+00   yforce=   0.0000E+00  zforce=  -4.8752E+01   energy=   8.3464E-04   setid =     223 xmoment=   0.0000E+00 ymoment=   0.0000E+00 zmoment=   0.0000E+00
 nd#     248  xforce=   0.0000E+00   yforce=   0.0000E+00  zforce=  -6.4333E+01   energy=   1.2064E-03   setid =     248 xmoment=   0.0000E+00 ymoment=   0.0000E+00 zmoment=   0.0000E+00
 nd#     249  xforce=   0.0000E+00   yforce=   0.0000E+00  zforce=  -4.4027E+01   energy=   7.4429E-04   setid =     249 xmoment=   0.0000E+00 ymoment=   0.0000E+00 zmoment=   0.0000E+00
 nd#     286  xforce=   0.0000E+00   yforce=   0.0000E+00  zforce=  -4.7252E+01   energy=   1.1349E-03   setid =     286 xmoment=   0.0000E+00 ymoment=   0.0000E+00 zmoment=   0.0000E+00
 nd#     287  xforce=   0.0000E+00   yforce=   0.0000E+00  zforce=  -3.1858E+01   energy=   6.3866E-04   setid =     287 xmoment=   0.0000E+00 ymoment=   0.0000E+00 zmoment=   0.0000E+00
 nd#     288  xforce=   0.0000E+00   yforce=   0.0000E+00  zforce=  -5.3380E+01   energy=   1.1421E-03   setid =     288 xmoment=   0.0000E+00 ymoment=   0.0000E+00 zmoment=   0.0000E+00
 nd#     301  xforce=   0.0000E+00   yforce=   0.0000E+00  zforce=  -7.3830E+01   energy=   1.3309E-03   setid =     301 xmoment=   0.0000E+00 ymoment=   0.0000E+00 zmoment=   0.0000E+00
 nd#     314  xforce=   0.0000E+00   yforce=   0.0000E+00  zforce=  -6.0419E+01   energy=   1.1497E-03   setid =     314 xmoment=   0.0000E+00 ymoment=   0.0000E+00 zmoment=   0.0000E+00
 nd#     363  xforce=   0.0000E+00   yforce=   0.0000E+00  zforce=  -5.9622E+01   energy=   1.1880E-03   setid =     363 xmoment=   0.0000E+00 ymoment=   0.0000E+00 zmoment=   0.0000E+00
 nd#     364  xforce=   0.0000E+00   yforce=   0.0000E+00  zforce=  -7.8133E+01   energy=   1.5025E-03   setid =     364 xmoment=   0.0000E+00 ymoment=   0.0000E+00 zmoment=   0.0000E+00
 nd#     365  xforce=   0.0000E+00   yforce=   0.0000E+00  zforce=  -6.9127E+01   energy=   1.0244E-03   setid =     365 xmoment=   0.0000E+00 ymoment=   0.0000E+00 zmoment=   0.0000E+00
 nd#     366  xforce=   0.0000E+00   yforce=   0.0000E+00  zforce=  -4.2706E+01   energy=   7.1149E-04   setid =     366 xmoment=   0.0000E+00 ymoment=   0.0000E+00 zmoment=   0.0000E+00
 nd#     379  xforce=   0.0000E+00   yforce=   0.0000E+00  zforce=  -5.4244E+01   energy=   8.8600E-04   setid =     379 xmoment=   0.0000E+00 ymoment=   0.0000E+00 zmoment=   0.0000E+00
 nd#     404  xforce=   0.0000E+00   yforce=   0.0000E+00  zforce=  -6.9997E+01   energy=   9.3310E-04   setid =     404 xmoment=   0.0000E+00 ymoment=   0.0000E+00 zmoment=   0.0000E+00
 nd#     405  xforce=   0.0000E+00   yforce=   0.0000E+00  zforce=  -5.0289E+01   energy=   6.4654E-04   setid =     405 xmoment=   0.0000E+00 ymoment=   0.0000E+00 zmoment=   0.0000E+00
 nd#     418  xforce=   0.0000E+00   yforce=   0.0000E+00  zforce=  -7.3625E+01   energy=   1.0440E-03   setid =     418 xmoment=   0.0000E+00 ymoment=   0.0000E+00 zmoment=   0.0000E+00
 nd#     438  xforce=   0.0000E+00   yforce=   0.0000E+00  zforce=  -1.5400E+00   energy=   8.9370E-05   setid =     438 xmoment=   0.0000E+00 ymoment=   0.0000E+00 zmoment=   0.0000E+00
 nd#     439  xforce=   0.0000E+00   yforce=   0.0000E+00  zforce=  -2.6737E+01   energy=   5.6618E-04   setid =     439 xmoment=   0.0000E+00 ymoment=   0.0000E+00 zmoment=   0.0000E+00
 nd#     440  xforce=   0.0000E+00   yforce=   0.0000E+00  zforce=  -2.9133E+01   energy=   5.7716E-04   setid =     440 xmoment=   0.0000E+00 ymoment=   0.0000E+00 zmoment=   0.0000E+00
 nd#     441  xforce=   0.0000E+00   yforce=   0.0000E+00  zforce=  -3.0367E+01   energy=   5.7467E-04   setid =     441 xmoment=   0.0000E+00 ymoment=   0.0000E+00 zmoment=   0.0000E+00
 nd#     442  xforce=   0.0000E+00   yforce=   0.0000E+00  zforce=  -3.0301E+01   energy=   5.6502E-04   setid =     442 xmoment=   0.0000E+00 ymoment=   0.0000E+00 zmoment=   0.0000E+00
 nd#     443  xforce=   0.0000E+00   yforce=   0.0000E+00  zforce=  -3.0598E+01   energy=   5.5481E-04   setid =     443 xmoment=   0.0000E+00 ymoment=   0.0000E+00 zmoment=   0.0000E+00
 nd#     444  xforce=   0.0000E+00   yforce=   0.0000E+00  zforce=  -3.0021E+01   energy=   5.3175E-04   setid =     444 xmoment=   0.0000E+00 ymoment=   0.0000E+00 zmoment=   0.0000E+00
 nd#     591  xforce=   0.0000E+00   yforce=   0.0000E+00  zforce=  -5.3499E+01   energy=   1.0514E-03   setid =     591 xmoment=   0.0000E+00 ymoment=   0.0000E+00 zmoment=   0.0000E+00
 nd#     592  xforce=   0.0000E+00   yforce=   0.0000E+00  zforce=  -5.4723E+01   energy=   1.0899E-03   setid =     592 xmoment=   0.0000E+00 ymoment=   0.0000E+00 zmoment=   0.0000E+00
 nd#     595  xforce=   0.0000E+00   yforce=   0.0000E+00  zforce=  -5.6143E+01   energy=   1.0530E-03   setid =     595 xmoment=   0.0000E+00 ymoment=   0.0000E+00 zmoment=   0.0000E+00
 nd#     596  xforce=   0.0000E+00   yforce=   0.0000E+00  zforce=  -5.7284E+01   energy=   1.0994E-03   setid =     596 xmoment=   0.0000E+00 ymoment=   0.0000E+00 zmoment=   0.0000E+00
 nd#     599  xforce=   0.0000E+00   yforce=   0.0000E+00  zforce=  -5.7147E+01   energy=   1.0641E-03   setid =     599 xmoment=   0.0000E+00 ymoment=   0.0000E+00 zmoment=   0.0000E+00
 nd#     600  xforce=   0.0000E+00   yforce=   0.0000E+00  zforce=  -5.9556E+01   energy=   1.1209E-03   setid =     600 xmoment=   0.0000E+00 ymoment=   0.0000E+00 zmoment=   0.0000E+00
 nd#     603  xforce=   0.0000E+00   yforce=   0.0000E+00  zforce=  -3.2607E+01   energy=   5.7480E-04   setid =     603 xmoment=   0.0000E+00 ymoment=   0.0000E+00 zmoment=   0.0000E+00
 nd#     604  xforce=   0.0000E+00   yforce=   0.0000E+00  zforce=  -3.3494E+01   energy=   5.9911E-04   setid =     604 xmoment=   0.0000E+00 ymoment=   0.0000E+00 zmoment=   0.0000E+00
 nd#     638  xforce=   0.0000E+00   yforce=   0.0000E+00  zforce=  -5.6235E+01   energy=   1.1460E-03   setid =     638 xmoment=   0.0000E+00 ymoment=   0.0000E+00 zmoment=   0.0000E+00
 nd#     639  xforce=   0.0000E+00   yforce=   0.0000E+00  zforce=  -5.1955E+01   energy=   1.1285E-03   setid =     639 xmoment=   0.0000E+00 ymoment=   0.0000E+00 zmoment=   0.0000E+00
 nd#     641  xforce=   0.0000E+00   yforce=   0.0000E+00  zforce=  -6.0015E+01   energy=   1.1746E-03   setid =     641 xmoment=   0.0000E+00 ymoment=   0.0000E+00 zmoment=   0.0000E+00
 nd#     642  xforce=   0.0000E+00   yforce=   0.0000E+00  zforce=  -5.4985E+01   energy=   1.1553E-03   setid =     642 xmoment=   0.0000E+00 ymoment=   0.0000E+00 zmoment=   0.0000E+00
 nd#     644  xforce=   0.0000E+00   yforce=   0.0000E+00  zforce=  -6.5838E+01   energy=   1.2206E-03   setid =     644 xmoment=   0.0000E+00 ymoment=   0.0000E+00 zmoment=   0.0000E+00
 nd#     645  xforce=   0.0000E+00   yforce=   0.0000E+00  zforce=  -6.0581E+01   energy=   1.2066E-03   setid =     645 xmoment=   0.0000E+00 ymoment=   0.0000E+00 zmoment=   0.0000E+00
 nd#     647  xforce=   0.0000E+00   yforce=   0.0000E+00  zforce=  -3.6418E+01   energy=   6.4253E-04   setid =     647 xmoment=   0.0000E+00 ymoment=   0.0000E+00 zmoment=   0.0000E+00
 nd#     648  xforce=   0.0000E+00   yforce=   0.0000E+00  zforce=  -3.3884E+01   energy=   6.3495E-04   setid =     648 xmoment=   0.0000E+00 ymoment=   0.0000E+00 zmoment=   0.0000E+00
 nd#     674  xforce=   0.0000E+00   yforce=   0.0000E+00  zforce=  -5.0395E+01   energy=   9.9232E-04   setid =     674 xmoment=   0.0000E+00 ymoment=   0.0000E+00 zmoment=   0.0000E+00
 nd#     676  xforce=   0.0000E+00   yforce=   0.0000E+00  zforce=  -5.3700E+01   energy=   9.9249E-04   setid =     676 xmoment=   0.0000E+00 ymoment=   0.0000E+00 zmoment=   0.0000E+00
 nd#     678  xforce=   0.0000E+00   yforce=   0.0000E+00  zforce=  -5.4650E+01   energy=   1.0060E-03   setid =     678 xmoment=   0.0000E+00 ymoment=   0.0000E+00 zmoment=   0.0000E+00
 nd#     680  xforce=   0.0000E+00   yforce=   0.0000E+00  zforce=  -3.1807E+01   energy=   5.5048E-04   setid =     680 xmoment=   0.0000E+00 ymoment=   0.0000E+00 zmoment=   0.0000E+00
 nd#     821  xforce=   0.0000E+00   yforce=   0.0000E+00  zforce=  -5.7320E+01   energy=   1.1289E-03   setid =     821 xmoment=   0.0000E+00 ymoment=   0.0000E+00 zmoment=   0.0000E+00
 nd#     822  xforce=   0.0000E+00   yforce=   0.0000E+00  zforce=  -6.0099E+01   energy=   1.1472E-03   setid =     822 xmoment=   0.0000E+00 ymoment=   0.0000E+00 zmoment=   0.0000E+00
 nd#     823  xforce=   0.0000E+00   yforce=   0.0000E+00  zforce=  -6.2939E+01   energy=   1.1752E-03   setid =     823 xmoment=   0.0000E+00 ymoment=   0.0000E+00 zmoment=   0.0000E+00
 nd#     824  xforce=   0.0000E+00   yforce=   0.0000E+00  zforce=  -3.4672E+01   energy=   6.2094E-04   setid =     824 xmoment=   0.0000E+00 ymoment=   0.0000E+00 zmoment=   0.0000E+00
 nd#     850  xforce=   0.0000E+00   yforce=   0.0000E+00  zforce=   3.7165E+00   energy=   1.1418E-04   setid =     850 xmoment=   0.0000E+00 ymoment=   0.0000E+00 zmoment=   0.0000E+00
 nd#     852  xforce=   0.0000E+00   yforce=   0.0000E+00  zforce=   1.2894E+01   energy=   6.0544E-06   setid =     852 xmoment=   0.0000E+00 ymoment=   0.0000E+00 zmoment=   0.0000E+00
 nd#     854  xforce=   0.0000E+00   yforce=   0.0000E+00  zforce=   2.8121E+01   energy=  -1.3729E-04   setid =     854 xmoment=   0.0000E+00 ymoment=   0.0000E+00 zmoment=   0.0000E+00
 nd#     856  xforce=   0.0000E+00   yforce=   0.0000E+00  zforce=   2.0974E+01   energy=  -1.1056E-04   setid =     856 xmoment=   0.0000E+00 ymoment=   0.0000E+00 zmoment=   0.0000E+00
              xtotal=   0.0000E+00   ytotal=   0.0000E+00  ztotal=  -2.4093E+03   etotal=   4.5818E-02

 n o d a l   f o r c e/e n e r g y    o u t p u t  t=   4.93664E+00

 velocity boundary condition forces/rigid body moments 

 nd#     220  xforce=   0.0000E+00   yforce=   0.0000E+00  zforce=  -6.8989E+01   energy=   1.5025E-03   setid =     220 xmoment=   0.0000E+00 ymoment=   0.0000E+00 zmoment=   0.0000E+00
 nd#     221  xforce=   0.0000E+00   yforce=   0.0000E+00  zforce=  -2.8465E+01   energy=   1.2452E-03   setid =     221 xmoment=   0.0000E+00 ymoment=   0.0000E+00 zmoment=   0.0000E+00
 nd#     222  xforce=   0.0000E+00   yforce=   0.0000E+00  zforce=  -6.7297E+01   energy=   2.3123E-03   setid =     222 xmoment=   0.0000E+00 ymoment=   0.0000E+00 zmoment=   0.0000E+00
 nd#     223  xforce=   0.0000E+00   yforce=   0.0000E+00  zforce=  -6.3620E+01   energy=   1.6574E-03   setid =     223 xmoment=   0.0000E+00 ymoment=   0.0000E+00 zmoment=   0.0000E+00
 nd#     248  xforce=   0.0000E+00   yforce=   0.0000E+00  zforce=  -6.5097E+01   energy=   2.1541E-03   setid =     248 xmoment=   0.0000E+00 ymoment=   0.0000E+00 zmoment=   0.0000E+00
 nd#     249  xforce=   0.0000E+00   yforce=   0.0000E+00  zforce=  -5.0662E+01   energy=   1.4376E-03   setid =     249 xmoment=   0.0000E+00 ymoment=   0.0000E+00 zmoment=   0.0000E+00
 nd#     286  xforce=   0.0000E+00   yforce=   0.0000E+00  zforce=   2.8195E+01   energy=   1.2744E-03   setid =     286 xmoment=   0.0000E+00 ymoment=   0.0000E+00 zmoment=   0.0000E+00
 nd#     287  xforce=   0.0000E+00   yforce=   0.0000E+00  zforce=  -3.4687E+01   energy=   1.1259E-03   setid =     287 xmoment=   0.0000E+00 ymoment=   0.0000E+00 zmoment=   0.0000E+00
 nd#     288  xforce=   0.0000E+00   yforce=   0.0000E+00  zforce=  -1.3590E+01   energy=   1.6325E-03   setid =     288 xmoment=   0.0000E+00 ymoment=   0.0000E+00 zmoment=   0.0000E+00
 nd#     301  xforce=   0.0000E+00   yforce=   0.0000E+00  zforce=  -9.4104E+01   energy=   2.5604E-03   setid =     301 xmoment=   0.0000E+00 ymoment=   0.0000E+00 zmoment=   0.0000E+00
 nd#     314  xforce=   0.0000E+00   yforce=   0.0000E+00  zforce=  -6.8538E+01   energy=   2.0938E-03   setid =     314 xmoment=   0.0000E+00 ymoment=   0.0000E+00 zmoment=   0.0000E+00
 nd#     363  xforce=   0.0000E+00   yforce=   0.0000E+00  zforce=  -4.0174E+01   energy=   1.9187E-03   setid =     363 xmoment=   0.0000E+00 ymoment=   0.0000E+00 zmoment=   0.0000E+00
 nd#     364  xforce=   0.0000E+00   yforce=   0.0000E+00  zforce=  -5.4529E+01   energy=   2.4738E-03   setid =     364 xmoment=   0.0000E+00 ymoment=   0.0000E+00 zmoment=   0.0000E+00
 nd#     365  xforce=   0.0000E+00   yforce=   0.0000E+00  zforce=  -1.1302E+02   energy=   2.3580E-03   setid =     365 xmoment=   0.0000E+00 ymoment=   0.0000E+00 zmoment=   0.0000E+00
 nd#     366  xforce=   0.0000E+00   yforce=   0.0000E+00  zforce=  -5.7057E+01   energy=   1.4419E-03   setid =     366 xmoment=   0.0000E+00 ymoment=   0.0000E+00 zmoment=   0.0000E+00
 nd#     379  xforce=   0.0000E+00   yforce=   0.0000E+00  zforce=  -5.8877E+01   energy=   1.7142E-03   setid =     379 xmoment=   0.0000E+00 ymoment=   0.0000E+00 zmoment=   0.0000E+00
 nd#     404  xforce=   0.0000E+00   yforce=   0.0000E+00  zforce=  -1.3147E+02   energy=   2.4082E-03   setid =     404 xmoment=   0.0000E+00 ymoment=   0.0000E+00 zmoment=   0.0000E+00
 nd#     405  xforce=   0.0000E+00   yforce=   0.0000E+00  zforce=  -8.6641E+01   energy=   1.6491E-03   setid =     405 xmoment=   0.0000E+00 ymoment=   0.0000E+00 zmoment=   0.0000E+00
 nd#     418  xforce=   0.0000E+00   yforce=   0.0000E+00  zforce=  -1.1522E+02   energy=   2.4267E-03   setid =     418 xmoment=   0.0000E+00 ymoment=   0.0000E+00 zmoment=   0.0000E+00
 nd#     438  xforce=   0.0000E+00   yforce=   0.0000E+00  zforce=   1.1666E+00   energy=   9.2104E-05   setid =     438 xmoment=   0.0000E+00 ymoment=   0.0000E+00 zmoment=   0.0000E+00
 nd#     439  xforce=   0.0000E+00   yforce=   0.0000E+00  zforce=  -2.9988E+01   energy=   9.8150E-04   setid =     439 xmoment=   0.0000E+00 ymoment=   0.0000E+00 zmoment=   0.0000E+00
 nd#     440  xforce=   0.0000E+00   yforce=   0.0000E+00  zforce=  -3.4304E+01   energy=   1.0416E-03   setid =     440 xmoment=   0.0000E+00 ymoment=   0.0000E+00 zmoment=   0.0000E+00
 nd#     441  xforce=   0.0000E+00   yforce=   0.0000E+00  zforce=  -3.5918E+01   energy=   1.0600E-03   setid =     441 xmoment=   0.0000E+00 ymoment=   0.0000E+00 zmoment=   0.0000E+00
 nd#     442  xforce=   0.0000E+00   yforce=   0.0000E+00  zforce=  -3.7240E+01   energy=   1.0595E-03   setid =     442 xmoment=   0.0000E+00 ymoment=   0.0000E+00 zmoment=   0.0000E+00
 nd#     443  xforce=   0.0000E+00   yforce=   0.0000E+00  zforce=  -3.8290E+01   energy=   1.0592E-03   setid =     443 xmoment=   0.0000E+00 ymoment=   0.0000E+00 zmoment=   0.0000E+00
 nd#     444  xforce=   0.0000E+00   yforce=   0.0000E+00  zforce=  -3.8498E+01   energy=   1.0334E-03   setid =     444 xmoment=   0.0000E+00 ymoment=   0.0000E+00 zmoment=   0.0000E+00
 nd#     591  xforce=   0.0000E+00   yforce=   0.0000E+00  zforce=  -4.9044E+01   energy=   1.8022E-03   setid =     591 xmoment=   0.0000E+00 ymoment=   0.0000E+00 zmoment=   0.0000E+00
 nd#     592  xforce=   0.0000E+00   yforce=   0.0000E+00  zforce=  -5.3570E+01   energy=   1.8828E-03   setid =     592 xmoment=   0.0000E+00 ymoment=   0.0000E+00 zmoment=   0.0000E+00
 nd#     595  xforce=   0.0000E+00   yforce=   0.0000E+00  zforce=  -6.4888E+01   energy=   1.9391E-03   setid =     595 xmoment=   0.0000E+00 ymoment=   0.0000E+00 zmoment=   0.0000E+00
 nd#     596  xforce=   0.0000E+00   yforce=   0.0000E+00  zforce=  -6.6039E+01   energy=   2.0023E-03   setid =     596 xmoment=   0.0000E+00 ymoment=   0.0000E+00 zmoment=   0.0000E+00
 nd#     599  xforce=   0.0000E+00   yforce=   0.0000E+00  zforce=  -6.4252E+01   energy=   1.9530E-03   setid =     599 xmoment=   0.0000E+00 ymoment=   0.0000E+00 zmoment=   0.0000E+00
 nd#     600  xforce=   0.0000E+00   yforce=   0.0000E+00  zforce=  -6.8864E+01   energy=   2.0611E-03   setid =     600 xmoment=   0.0000E+00 ymoment=   0.0000E+00 zmoment=   0.0000E+00
 nd#     603  xforce=   0.0000E+00   yforce=   0.0000E+00  zforce=  -3.8970E+01   energy=   1.0989E-03   setid =     603 xmoment=   0.0000E+00 ymoment=   0.0000E+00 zmoment=   0.0000E+00
 nd#     604  xforce=   0.0000E+00   yforce=   0.0000E+00  zforce=  -4.0940E+01   energy=   1.1441E-03   setid =     604 xmoment=   0.0000E+00 ymoment=   0.0000E+00 zmoment=   0.0000E+00
 nd#     638  xforce=   0.0000E+00   yforce=   0.0000E+00  zforce=  -5.7933E+01   energy=   1.9819E-03   setid =     638 xmoment=   0.0000E+00 ymoment=   0.0000E+00 zmoment=   0.0000E+00
 nd#     639  xforce=   0.0000E+00   yforce=   0.0000E+00  zforce=  -5.2244E+01   energy=   1.8914E-03   setid =     639 xmoment=   0.0000E+00 ymoment=   0.0000E+00 zmoment=   0.0000E+00
 nd#     641  xforce=   0.0000E+00   yforce=   0.0000E+00  zforce=  -6.6665E+01   energy=   2.1021E-03   setid =     641 xmoment=   0.0000E+00 ymoment=   0.0000E+00 zmoment=   0.0000E+00
 nd#     642  xforce=   0.0000E+00   yforce=   0.0000E+00  zforce=  -6.3303E+01   energy=   2.0213E-03   setid =     642 xmoment=   0.0000E+00 ymoment=   0.0000E+00 zmoment=   0.0000E+00
 nd#     644  xforce=   0.0000E+00   yforce=   0.0000E+00  zforce=  -7.4773E+01   energy=   2.2501E-03   setid =     644 xmoment=   0.0000E+00 ymoment=   0.0000E+00 zmoment=   0.0000E+00
 nd#     645  xforce=   0.0000E+00   yforce=   0.0000E+00  zforce=  -7.0119E+01   energy=   2.1635E-03   setid =     645 xmoment=   0.0000E+00 ymoment=   0.0000E+00 zmoment=   0.0000E+00
 nd#     647  xforce=   0.0000E+00   yforce=   0.0000E+00  zforce=  -4.2818E+01   energy=   1.2227E-03   setid =     647 xmoment=   0.0000E+00 ymoment=   0.0000E+00 zmoment=   0.0000E+00
 nd#     648  xforce=   0.0000E+00   yforce=   0.0000E+00  zforce=  -3.2886E+01   energy=   1.1238E-03   setid =     648 xmoment=   0.0000E+00 ymoment=   0.0000E+00 zmoment=   0.0000E+00
 nd#     674  xforce=   0.0000E+00   yforce=   0.0000E+00  zforce=  -4.2881E+01   energy=   1.6753E-03   setid =     674 xmoment=   0.0000E+00 ymoment=   0.0000E+00 zmoment=   0.0000E+00
 nd#     676  xforce=   0.0000E+00   yforce=   0.0000E+00  zforce=  -6.2162E+01   energy=   1.8408E-03   setid =     676 xmoment=   0.0000E+00 ymoment=   0.0000E+00 zmoment=   0.0000E+00
 nd#     678  xforce=   0.0000E+00   yforce=   0.0000E+00  zforce=  -5.9095E+01   energy=   1.8388E-03   setid =     678 xmoment=   0.0000E+00 ymoment=   0.0000E+00 zmoment=   0.0000E+00
 nd#     680  xforce=   0.0000E+00   yforce=   0.0000E+00  zforce=  -3.8670E+01   energy=   1.0665E-03   setid =     680 xmoment=   0.0000E+00 ymoment=   0.0000E+00 zmoment=   0.0000E+00
 nd#     821  xforce=   0.0000E+00   yforce=   0.0000E+00  zforce=  -5.6531E+01   energy=   1.9625E-03   setid =     821 xmoment=   0.0000E+00 ymoment=   0.0000E+00 zmoment=   0.0000E+00
 nd#     822  xforce=   0.0000E+00   yforce=   0.0000E+00  zforce=  -6.6760E+01   energy=   2.0760E-03   setid =     822 xmoment=   0.0000E+00 ymoment=   0.0000E+00 zmoment=   0.0000E+00
 nd#     823  xforce=   0.0000E+00   yforce=   0.0000E+00  zforce=  -7.2387E+01   energy=   2.1661E-03   setid =     823 xmoment=   0.0000E+00 ymoment=   0.0000E+00 zmoment=   0.0000E+00
 nd#     824  xforce=   0.0000E+00   yforce=   0.0000E+00  zforce=  -4.1723E+01   energy=   1.1803E-03   setid =     824 xmoment=   0.0000E+00 ymoment=   0.0000E+00 zmoment=   0.0000E+00
 nd#     850  xforce=   0.0000E+00   yforce=   0.0000E+00  zforce=   1.6262E+01   energy=  -3.2096E-05   setid =     850 xmoment=   0.0000E+00 ymoment=   0.0000E+00 zmoment=   0.0000E+00
 nd#     852  xforce=   0.0000E+00   yforce=   0.0000E+00  zforce=   2.7764E+01   energy=  -2.9162E-04   setid =     852 xmoment=   0.0000E+00 ymoment=   0.0000E+00 zmoment=   0.0000E+00
 nd#     854  xforce=   0.0000E+00   yforce=   0.0000E+00  zforce=   4.8003E+01   energy=  -6.9464E-04   setid =     854 xmoment=   0.0000E+00 ymoment=   0.0000E+00 zmoment=   0.0000E+00
 nd#     856  xforce=   0.0000E+00   yforce=   0.0000E+00  zforce=   4.4044E+01   energy=  -5.8660E-04   setid =     856 xmoment=   0.0000E+00 ymoment=   0.0000E+00 zmoment=   0.0000E+00
              xtotal=   0.0000E+00   ytotal=   0.0000E+00  ztotal=  -2.6084E+03   etotal=   8.2555E-02

 n o d a l   f o r c e/e n e r g y    o u t p u t  t=   7.25743E+00

 velocity boundary condition forces/rigid body moments 

 nd#     220  xforce=   0.0000E+00   yforce=   0.0000E+00  zforce=  -9.5680E+01   energy=   3.4134E-03   setid =     220 xmoment=   0.0000E+00 ymoment=   0.0000E+00 zmoment=   0.0000E+00
 nd#     221  xforce=   0.0000E+00   yforce=   0.0000E+00  zforce=  -4.0342E+01   energy=   2.0437E-03   setid =     221 xmoment=   0.0000E+00 ymoment=   0.0000E+00 zmoment=   0.0000E+00
 nd#     222  xforce=   0.0000E+00   yforce=   0.0000E+00  zforce=  -6.7581E+01   energy=   3.8775E-03   setid =     222 xmoment=   0.0000E+00 ymoment=   0.0000E+00 zmoment=   0.0000E+00
 nd#     223  xforce=   0.0000E+00   yforce=   0.0000E+00  zforce=  -7.4676E+01   energy=   3.2622E-03   setid =     223 xmoment=   0.0000E+00 ymoment=   0.0000E+00 zmoment=   0.0000E+00
 nd#     248  xforce=   0.0000E+00   yforce=   0.0000E+00  zforce=  -6.0082E+01   energy=   3.6066E-03   setid =     248 xmoment=   0.0000E+00 ymoment=   0.0000E+00 zmoment=   0.0000E+00
 nd#     249  xforce=   0.0000E+00   yforce=   0.0000E+00  zforce=  -4.8254E+01   energy=   2.5854E-03   setid =     249 xmoment=   0.0000E+00 ymoment=   0.0000E+00 zmoment=   0.0000E+00
 nd#     286  xforce=   0.0000E+00   yforce=   0.0000E+00  zforce=   1.1889E+02   energy=  -4.3238E-04   setid =     286 xmoment=   0.0000E+00 ymoment=   0.0000E+00 zmoment=   0.0000E+00
 nd#     287  xforce=   0.0000E+00   yforce=   0.0000E+00  zforce=  -4.4881E+01   energy=   2.0492E-03   setid =     287 xmoment=   0.0000E+00 ymoment=   0.0000E+00 zmoment=   0.0000E+00
 nd#     288  xforce=   0.0000E+00   yforce=   0.0000E+00  zforce=   3.7585E+01   energy=   1.3540E-03   setid =     288 xmoment=   0.0000E+00 ymoment=   0.0000E+00 zmoment=   0.0000E+00
 nd#     301  xforce=   0.0000E+00   yforce=   0.0000E+00  zforce=  -1.2567E+02   energy=   5.1107E-03   setid =     301 xmoment=   0.0000E+00 ymoment=   0.0000E+00 zmoment=   0.0000E+00
 nd#     314  xforce=   0.0000E+00   yforce=   0.0000E+00  zforce=  -7.2094E+01   energy=   3.7257E-03   setid =     314 xmoment=   0.0000E+00 ymoment=   0.0000E+00 zmoment=   0.0000E+00
 nd#     363  xforce=   0.0000E+00   yforce=   0.0000E+00  zforce=  -2.2589E+01   energy=   2.6470E-03   setid =     363 xmoment=   0.0000E+00 ymoment=   0.0000E+00 zmoment=   0.0000E+00
 nd#     364  xforce=   0.0000E+00   yforce=   0.0000E+00  zforce=  -4.6204E+01   energy=   3.6427E-03   setid =     364 xmoment=   0.0000E+00 ymoment=   0.0000E+00 zmoment=   0.0000E+00
 nd#     365  xforce=   0.0000E+00   yforce=   0.0000E+00  zforce=  -1.5634E+02   energy=   5.4837E-03   setid =     365 xmoment=   0.0000E+00 ymoment=   0.0000E+00 zmoment=   0.0000E+00
 nd#     366  xforce=   0.0000E+00   yforce=   0.0000E+00  zforce=  -7.0111E+01   energy=   2.9176E-03   setid =     366 xmoment=   0.0000E+00 ymoment=   0.0000E+00 zmoment=   0.0000E+00
 nd#     379  xforce=   0.0000E+00   yforce=   0.0000E+00  zforce=  -5.1051E+01   energy=   2.9898E-03   setid =     379 xmoment=   0.0000E+00 ymoment=   0.0000E+00 zmoment=   0.0000E+00
 nd#     404  xforce=   0.0000E+00   yforce=   0.0000E+00  zforce=  -2.0285E+02   energy=   6.2876E-03   setid =     404 xmoment=   0.0000E+00 ymoment=   0.0000E+00 zmoment=   0.0000E+00
 nd#     405  xforce=   0.0000E+00   yforce=   0.0000E+00  zforce=  -1.4674E+02   energy=   4.3573E-03   setid =     405 xmoment=   0.0000E+00 ymoment=   0.0000E+00 zmoment=   0.0000E+00
 nd#     418  xforce=   0.0000E+00   yforce=   0.0000E+00  zforce=  -1.3029E+02   energy=   5.2757E-03   setid =     418 xmoment=   0.0000E+00 ymoment=   0.0000E+00 zmoment=   0.0000E+00
 nd#     438  xforce=   0.0000E+00   yforce=   0.0000E+00  zforce=   5.9084E+00   energy=   1.0007E-05   setid =     438 xmoment=   0.0000E+00 ymoment=   0.0000E+00 zmoment=   0.0000E+00
 nd#     439  xforce=   0.0000E+00   yforce=   0.0000E+00  zforce=  -2.8664E+01   energy=   1.6621E-03   setid =     439 xmoment=   0.0000E+00 ymoment=   0.0000E+00 zmoment=   0.0000E+00
 nd#     440  xforce=   0.0000E+00   yforce=   0.0000E+00  zforce=  -3.5677E+01   energy=   1.8537E-03   setid =     440 xmoment=   0.0000E+00 ymoment=   0.0000E+00 zmoment=   0.0000E+00
 nd#     441  xforce=   0.0000E+00   yforce=   0.0000E+00  zforce=  -3.8978E+01   energy=   1.9291E-03   setid =     441 xmoment=   0.0000E+00 ymoment=   0.0000E+00 zmoment=   0.0000E+00
 nd#     442  xforce=   0.0000E+00   yforce=   0.0000E+00  zforce=  -4.2270E+01   energy=   1.9822E-03   setid =     442 xmoment=   0.0000E+00 ymoment=   0.0000E+00 zmoment=   0.0000E+00
 nd#     443  xforce=   0.0000E+00   yforce=   0.0000E+00  zforce=  -4.4483E+01   energy=   2.0197E-03   setid =     443 xmoment=   0.0000E+00 ymoment=   0.0000E+00 zmoment=   0.0000E+00
 nd#     444  xforce=   0.0000E+00   yforce=   0.0000E+00  zforce=  -4.8146E+01   energy=   2.0388E-03   setid =     444 xmoment=   0.0000E+00 ymoment=   0.0000E+00 zmoment=   0.0000E+00
 nd#     591  xforce=   0.0000E+00   yforce=   0.0000E+00  zforce=  -3.8138E+01   energy=   2.8138E-03   setid =     591 xmoment=   0.0000E+00 ymoment=   0.0000E+00 zmoment=   0.0000E+00
 nd#     592  xforce=   0.0000E+00   yforce=   0.0000E+00  zforce=  -4.3467E+01   energy=   3.0088E-03   setid =     592 xmoment=   0.0000E+00 ymoment=   0.0000E+00 zmoment=   0.0000E+00
 nd#     595  xforce=   0.0000E+00   yforce=   0.0000E+00  zforce=  -6.8100E+01   energy=   3.4823E-03   setid =     595 xmoment=   0.0000E+00 ymoment=   0.0000E+00 zmoment=   0.0000E+00
 nd#     596  xforce=   0.0000E+00   yforce=   0.0000E+00  zforce=  -6.7365E+01   energy=   3.5503E-03   setid =     596 xmoment=   0.0000E+00 ymoment=   0.0000E+00 zmoment=   0.0000E+00
 nd#     599  xforce=   0.0000E+00   yforce=   0.0000E+00  zforce=  -6.2409E+01   energy=   3.4228E-03   setid =     599 xmoment=   0.0000E+00 ymoment=   0.0000E+00 zmoment=   0.0000E+00
 nd#     600  xforce=   0.0000E+00   yforce=   0.0000E+00  zforce=  -6.6961E+01   energy=   3.6372E-03   setid =     600 xmoment=   0.0000E+00 ymoment=   0.0000E+00 zmoment=   0.0000E+00
 nd#     603  xforce=   0.0000E+00   yforce=   0.0000E+00  zforce=  -4.2044E+01   energy=   2.0389E-03   setid =     603 xmoment=   0.0000E+00 ymoment=   0.0000E+00 zmoment=   0.0000E+00
 nd#     604  xforce=   0.0000E+00   yforce=   0.0000E+00  zforce=  -4.3028E+01   energy=   2.1184E-03   setid =     604 xmoment=   0.0000E+00 ymoment=   0.0000E+00 zmoment=   0.0000E+00
 nd#     638  xforce=   0.0000E+00   yforce=   0.0000E+00  zforce=  -5.1044E+01   energy=   3.2464E-03   setid =     638 xmoment=   0.0000E+00 ymoment=   0.0000E+00 zmoment=   0.0000E+00
 nd#     639  xforce=   0.0000E+00   yforce=   0.0000E+00  zforce=  -4.1184E+01   energy=   2.9755E-03   setid =     639 xmoment=   0.0000E+00 ymoment=   0.0000E+00 zmoment=   0.0000E+00
 nd#     641  xforce=   0.0000E+00   yforce=   0.0000E+00  zforce=  -6.5657E+01   energy=   3.6376E-03   setid =     641 xmoment=   0.0000E+00 ymoment=   0.0000E+00 zmoment=   0.0000E+00
 nd#     642  xforce=   0.0000E+00   yforce=   0.0000E+00  zforce=  -6.0930E+01   energy=   3.4629E-03   setid =     642 xmoment=   0.0000E+00 ymoment=   0.0000E+00 zmoment=   0.0000E+00
 nd#     644  xforce=   0.0000E+00   yforce=   0.0000E+00  zforce=  -7.7132E+01   energy=   4.0128E-03   setid =     644 xmoment=   0.0000E+00 ymoment=   0.0000E+00 zmoment=   0.0000E+00
 nd#     645  xforce=   0.0000E+00   yforce=   0.0000E+00  zforce=  -7.0898E+01   energy=   3.7999E-03   setid =     645 xmoment=   0.0000E+00 ymoment=   0.0000E+00 zmoment=   0.0000E+00
 nd#     647  xforce=   0.0000E+00   yforce=   0.0000E+00  zforce=  -3.6216E+01   energy=   2.1398E-03   setid =     647 xmoment=   0.0000E+00 ymoment=   0.0000E+00 zmoment=   0.0000E+00
 nd#     648  xforce=   0.0000E+00   yforce=   0.0000E+00  zforce=  -1.9977E+01   energy=   1.7372E-03   setid =     648 xmoment=   0.0000E+00 ymoment=   0.0000E+00 zmoment=   0.0000E+00
 nd#     674  xforce=   0.0000E+00   yforce=   0.0000E+00  zforce=  -3.5972E+01   energy=   2.5903E-03   setid =     674 xmoment=   0.0000E+00 ymoment=   0.0000E+00 zmoment=   0.0000E+00
 nd#     676  xforce=   0.0000E+00   yforce=   0.0000E+00  zforce=  -7.1591E+01   energy=   3.3929E-03   setid =     676 xmoment=   0.0000E+00 ymoment=   0.0000E+00 zmoment=   0.0000E+00
 nd#     678  xforce=   0.0000E+00   yforce=   0.0000E+00  zforce=  -5.8408E+01   energy=   3.2023E-03   setid =     678 xmoment=   0.0000E+00 ymoment=   0.0000E+00 zmoment=   0.0000E+00
 nd#     680  xforce=   0.0000E+00   yforce=   0.0000E+00  zforce=  -4.5106E+01   energy=   2.0386E-03   setid =     680 xmoment=   0.0000E+00 ymoment=   0.0000E+00 zmoment=   0.0000E+00
 nd#     821  xforce=   0.0000E+00   yforce=   0.0000E+00  zforce=  -4.7339E+01   energy=   3.1678E-03   setid =     821 xmoment=   0.0000E+00 ymoment=   0.0000E+00 zmoment=   0.0000E+00
 nd#     822  xforce=   0.0000E+00   yforce=   0.0000E+00  zforce=  -6.7422E+01   energy=   3.6330E-03   setid =     822 xmoment=   0.0000E+00 ymoment=   0.0000E+00 zmoment=   0.0000E+00
 nd#     823  xforce=   0.0000E+00   yforce=   0.0000E+00  zforce=  -7.4448E+01   energy=   3.8699E-03   setid =     823 xmoment=   0.0000E+00 ymoment=   0.0000E+00 zmoment=   0.0000E+00
 nd#     824  xforce=   0.0000E+00   yforce=   0.0000E+00  zforce=  -4.4727E+01   energy=   2.1834E-03   setid =     824 xmoment=   0.0000E+00 ymoment=   0.0000E+00 zmoment=   0.0000E+00
 nd#     850  xforce=   0.0000E+00   yforce=   0.0000E+00  zforce=   3.2365E+01   energy=  -5.9636E-04   setid =     850 xmoment=   0.0000E+00 ymoment=   0.0000E+00 zmoment=   0.0000E+00
 nd#     852  xforce=   0.0000E+00   yforce=   0.0000E+00  zforce=   4.2856E+01   energy=  -1.1111E-03   setid =     852 xmoment=   0.0000E+00 ymoment=   0.0000E+00 zmoment=   0.0000E+00
 nd#     854  xforce=   0.0000E+00   yforce=   0.0000E+00  zforce=   5.8629E+01   energy=  -1.9320E-03   setid =     854 xmoment=   0.0000E+00 ymoment=   0.0000E+00 zmoment=   0.0000E+00
 nd#     856  xforce=   0.0000E+00   yforce=   0.0000E+00  zforce=   5.8046E+01   energy=  -1.7712E-03   setid =     856 xmoment=   0.0000E+00 ymoment=   0.0000E+00 zmoment=   0.0000E+00
              xtotal=   0.0000E+00   ytotal=   0.0000E+00  ztotal=  -2.6389E+03   etotal=   1.4345E-01

 n o d a l   f o r c e/e n e r g y    o u t p u t  t=   1.09356E+01

 velocity boundary condition forces/rigid body moments 

 nd#     220  xforce=   0.0000E+00   yforce=   0.0000E+00  zforce=  -1.1604E+02   energy=   7.3071E-03   setid =     220 xmoment=   0.0000E+00 ymoment=   0.0000E+00 zmoment=   0.0000E+00
 nd#     221  xforce=   0.0000E+00   yforce=   0.0000E+00  zforce=  -7.3453E+01   energy=   4.1365E-03   setid =     221 xmoment=   0.0000E+00 ymoment=   0.0000E+00 zmoment=   0.0000E+00
 nd#     222  xforce=   0.0000E+00   yforce=   0.0000E+00  zforce=  -6.9676E+01   energy=   6.4018E-03   setid =     222 xmoment=   0.0000E+00 ymoment=   0.0000E+00 zmoment=   0.0000E+00
 nd#     223  xforce=   0.0000E+00   yforce=   0.0000E+00  zforce=  -7.7635E+01   energy=   6.0633E-03   setid =     223 xmoment=   0.0000E+00 ymoment=   0.0000E+00 zmoment=   0.0000E+00
 nd#     248  xforce=   0.0000E+00   yforce=   0.0000E+00  zforce=  -5.7876E+01   energy=   5.7760E-03   setid =     248 xmoment=   0.0000E+00 ymoment=   0.0000E+00 zmoment=   0.0000E+00
 nd#     249  xforce=   0.0000E+00   yforce=   0.0000E+00  zforce=  -5.0198E+01   energy=   4.3960E-03   setid =     249 xmoment=   0.0000E+00 ymoment=   0.0000E+00 zmoment=   0.0000E+00
 nd#     286  xforce=   0.0000E+00   yforce=   0.0000E+00  zforce=   3.2806E+02   energy=  -8.6523E-03   setid =     286 xmoment=   0.0000E+00 ymoment=   0.0000E+00 zmoment=   0.0000E+00
 nd#     287  xforce=   0.0000E+00   yforce=   0.0000E+00  zforce=  -8.3503E+01   energy=   4.4103E-03   setid =     287 xmoment=   0.0000E+00 ymoment=   0.0000E+00 zmoment=   0.0000E+00
 nd#     288  xforce=   0.0000E+00   yforce=   0.0000E+00  zforce=   1.0499E+02   energy=  -1.2681E-03   setid =     288 xmoment=   0.0000E+00 ymoment=   0.0000E+00 zmoment=   0.0000E+00
 nd#     301  xforce=   0.0000E+00   yforce=   0.0000E+00  zforce=  -1.9704E+02   energy=   1.1046E-02   setid =     301 xmoment=   0.0000E+00 ymoment=   0.0000E+00 zmoment=   0.0000E+00
 nd#     314  xforce=   0.0000E+00   yforce=   0.0000E+00  zforce=  -8.5461E+01   energy=   6.6233E-03   setid =     314 xmoment=   0.0000E+00 ymoment=   0.0000E+00 zmoment=   0.0000E+00
 nd#     363  xforce=   0.0000E+00   yforce=   0.0000E+00  zforce=  -3.7550E+00   energy=   3.1315E-03   setid =     363 xmoment=   0.0000E+00 ymoment=   0.0000E+00 zmoment=   0.0000E+00
 nd#     364  xforce=   0.0000E+00   yforce=   0.0000E+00  zforce=  -3.1377E+01   energy=   5.0694E-03   setid =     364 xmoment=   0.0000E+00 ymoment=   0.0000E+00 zmoment=   0.0000E+00
 nd#     365  xforce=   0.0000E+00   yforce=   0.0000E+00  zforce=  -1.9921E+02   energy=   1.2023E-02   setid =     365 xmoment=   0.0000E+00 ymoment=   0.0000E+00 zmoment=   0.0000E+00
 nd#     366  xforce=   0.0000E+00   yforce=   0.0000E+00  zforce=  -7.7736E+01   energy=   5.6367E-03   setid =     366 xmoment=   0.0000E+00 ymoment=   0.0000E+00 zmoment=   0.0000E+00
 nd#     379  xforce=   0.0000E+00   yforce=   0.0000E+00  zforce=  -4.0159E+01   energy=   4.6673E-03   setid =     379 xmoment=   0.0000E+00 ymoment=   0.0000E+00 zmoment=   0.0000E+00
 nd#     404  xforce=   0.0000E+00   yforce=   0.0000E+00  zforce=  -2.9941E+02   energy=   1.5525E-02   setid =     404 xmoment=   0.0000E+00 ymoment=   0.0000E+00 zmoment=   0.0000E+00
 nd#     405  xforce=   0.0000E+00   yforce=   0.0000E+00  zforce=  -1.8895E+02   energy=   1.0531E-02   setid =     405 xmoment=   0.0000E+00 ymoment=   0.0000E+00 zmoment=   0.0000E+00
 nd#     418  xforce=   0.0000E+00   yforce=   0.0000E+00  zforce=  -1.4949E+02   energy=   1.0421E-02   setid =     418 xmoment=   0.0000E+00 ymoment=   0.0000E+00 zmoment=   0.0000E+00
 nd#     438  xforce=   0.0000E+00   yforce=   0.0000E+00  zforce=   8.4633E+00   energy=  -2.5430E-04   setid =     438 xmoment=   0.0000E+00 ymoment=   0.0000E+00 zmoment=   0.0000E+00
 nd#     439  xforce=   0.0000E+00   yforce=   0.0000E+00  zforce=  -3.2403E+01   energy=   2.7852E-03   setid =     439 xmoment=   0.0000E+00 ymoment=   0.0000E+00 zmoment=   0.0000E+00
 nd#     440  xforce=   0.0000E+00   yforce=   0.0000E+00  zforce=  -4.0584E+01   energy=   3.2562E-03   setid =     440 xmoment=   0.0000E+00 ymoment=   0.0000E+00 zmoment=   0.0000E+00
 nd#     441  xforce=   0.0000E+00   yforce=   0.0000E+00  zforce=  -4.4610E+01   energy=   3.4663E-03   setid =     441 xmoment=   0.0000E+00 ymoment=   0.0000E+00 zmoment=   0.0000E+00
 nd#     442  xforce=   0.0000E+00   yforce=   0.0000E+00  zforce=  -4.7375E+01   energy=   3.6308E-03   setid =     442 xmoment=   0.0000E+00 ymoment=   0.0000E+00 zmoment=   0.0000E+00
 nd#     443  xforce=   0.0000E+00   yforce=   0.0000E+00  zforce=  -5.0569E+01   energy=   3.7678E-03   setid =     443 xmoment=   0.0000E+00 ymoment=   0.0000E+00 zmoment=   0.0000E+00
 nd#     444  xforce=   0.0000E+00   yforce=   0.0000E+00  zforce=  -5.4705E+01   energy=   3.9304E-03   setid =     444 xmoment=   0.0000E+00 ymoment=   0.0000E+00 zmoment=   0.0000E+00
 nd#     591  xforce=   0.0000E+00   yforce=   0.0000E+00  zforce=  -4.2861E+01   energy=   4.3035E-03   setid =     591 xmoment=   0.0000E+00 ymoment=   0.0000E+00 zmoment=   0.0000E+00
 nd#     592  xforce=   0.0000E+00   yforce=   0.0000E+00  zforce=  -4.7091E+01   energy=   4.6743E-03   setid =     592 xmoment=   0.0000E+00 ymoment=   0.0000E+00 zmoment=   0.0000E+00
 nd#     595  xforce=   0.0000E+00   yforce=   0.0000E+00  zforce=  -8.0002E+01   energy=   6.2060E-03   setid =     595 xmoment=   0.0000E+00 ymoment=   0.0000E+00 zmoment=   0.0000E+00
 nd#     596  xforce=   0.0000E+00   yforce=   0.0000E+00  zforce=  -7.5821E+01   energy=   6.1837E-03   setid =     596 xmoment=   0.0000E+00 ymoment=   0.0000E+00 zmoment=   0.0000E+00
 nd#     599  xforce=   0.0000E+00   yforce=   0.0000E+00  zforce=  -6.7734E+01   energy=   5.8162E-03   setid =     599 xmoment=   0.0000E+00 ymoment=   0.0000E+00 zmoment=   0.0000E+00
 nd#     600  xforce=   0.0000E+00   yforce=   0.0000E+00  zforce=  -7.4128E+01   energy=   6.2320E-03   setid =     600 xmoment=   0.0000E+00 ymoment=   0.0000E+00 zmoment=   0.0000E+00
 nd#     603  xforce=   0.0000E+00   yforce=   0.0000E+00  zforce=  -4.7563E+01   energy=   3.6869E-03   setid =     603 xmoment=   0.0000E+00 ymoment=   0.0000E+00 zmoment=   0.0000E+00
 nd#     604  xforce=   0.0000E+00   yforce=   0.0000E+00  zforce=  -4.4881E+01   energy=   3.7352E-03   setid =     604 xmoment=   0.0000E+00 ymoment=   0.0000E+00 zmoment=   0.0000E+00
 nd#     638  xforce=   0.0000E+00   yforce=   0.0000E+00  zforce=  -5.6316E+01   energy=   5.2209E-03   setid =     638 xmoment=   0.0000E+00 ymoment=   0.0000E+00 zmoment=   0.0000E+00
 nd#     639  xforce=   0.0000E+00   yforce=   0.0000E+00  zforce=  -4.4619E+01   energy=   4.5535E-03   setid =     639 xmoment=   0.0000E+00 ymoment=   0.0000E+00 zmoment=   0.0000E+00
 nd#     641  xforce=   0.0000E+00   yforce=   0.0000E+00  zforce=  -7.2189E+01   energy=   6.1727E-03   setid =     641 xmoment=   0.0000E+00 ymoment=   0.0000E+00 zmoment=   0.0000E+00
 nd#     642  xforce=   0.0000E+00   yforce=   0.0000E+00  zforce=  -6.8928E+01   energy=   5.8512E-03   setid =     642 xmoment=   0.0000E+00 ymoment=   0.0000E+00 zmoment=   0.0000E+00
 nd#     644  xforce=   0.0000E+00   yforce=   0.0000E+00  zforce=  -8.2090E+01   energy=   6.9411E-03   setid =     644 xmoment=   0.0000E+00 ymoment=   0.0000E+00 zmoment=   0.0000E+00
 nd#     645  xforce=   0.0000E+00   yforce=   0.0000E+00  zforce=  -8.4827E+01   energy=   6.6638E-03   setid =     645 xmoment=   0.0000E+00 ymoment=   0.0000E+00 zmoment=   0.0000E+00
 nd#     647  xforce=   0.0000E+00   yforce=   0.0000E+00  zforce=  -3.5151E+01   energy=   3.4523E-03   setid =     647 xmoment=   0.0000E+00 ymoment=   0.0000E+00 zmoment=   0.0000E+00
 nd#     648  xforce=   0.0000E+00   yforce=   0.0000E+00  zforce=  -1.4896E+01   energy=   2.3786E-03   setid =     648 xmoment=   0.0000E+00 ymoment=   0.0000E+00 zmoment=   0.0000E+00
 nd#     674  xforce=   0.0000E+00   yforce=   0.0000E+00  zforce=  -4.0312E+01   energy=   3.9932E-03   setid =     674 xmoment=   0.0000E+00 ymoment=   0.0000E+00 zmoment=   0.0000E+00
 nd#     676  xforce=   0.0000E+00   yforce=   0.0000E+00  zforce=  -8.3729E+01   energy=   6.2494E-03   setid =     676 xmoment=   0.0000E+00 ymoment=   0.0000E+00 zmoment=   0.0000E+00
 nd#     678  xforce=   0.0000E+00   yforce=   0.0000E+00  zforce=  -5.8937E+01   energy=   5.3604E-03   setid =     678 xmoment=   0.0000E+00 ymoment=   0.0000E+00 zmoment=   0.0000E+00
 nd#     680  xforce=   0.0000E+00   yforce=   0.0000E+00  zforce=  -5.0988E+01   energy=   3.8059E-03   setid =     680 xmoment=   0.0000E+00 ymoment=   0.0000E+00 zmoment=   0.0000E+00
 nd#     821  xforce=   0.0000E+00   yforce=   0.0000E+00  zforce=  -5.2176E+01   energy=   4.9980E-03   setid =     821 xmoment=   0.0000E+00 ymoment=   0.0000E+00 zmoment=   0.0000E+00
 nd#     822  xforce=   0.0000E+00   yforce=   0.0000E+00  zforce=  -7.3447E+01   energy=   6.2237E-03   setid =     822 xmoment=   0.0000E+00 ymoment=   0.0000E+00 zmoment=   0.0000E+00
 nd#     823  xforce=   0.0000E+00   yforce=   0.0000E+00  zforce=  -7.9431E+01   energy=   6.6999E-03   setid =     823 xmoment=   0.0000E+00 ymoment=   0.0000E+00 zmoment=   0.0000E+00
 nd#     824  xforce=   0.0000E+00   yforce=   0.0000E+00  zforce=  -4.2472E+01   energy=   3.7871E-03   setid =     824 xmoment=   0.0000E+00 ymoment=   0.0000E+00 zmoment=   0.0000E+00
 nd#     850  xforce=   0.0000E+00   yforce=   0.0000E+00  zforce=   4.0336E+01   energy=  -1.9334E-03   setid =     850 xmoment=   0.0000E+00 ymoment=   0.0000E+00 zmoment=   0.0000E+00
 nd#     852  xforce=   0.0000E+00   yforce=   0.0000E+00  zforce=   5.2358E+01   energy=  -2.8622E-03   setid =     852 xmoment=   0.0000E+00 ymoment=   0.0000E+00 zmoment=   0.0000E+00
 nd#     854  xforce=   0.0000E+00   yforce=   0.0000E+00  zforce=   6.9486E+01   energy=  -4.2882E-03   setid =     854 xmoment=   0.0000E+00 ymoment=   0.0000E+00 zmoment=   0.0000E+00
 nd#     856  xforce=   0.0000E+00   yforce=   0.0000E+00  zforce=   6.5680E+01   energy=  -4.0467E-03   setid =     856 xmoment=   0.0000E+00 ymoment=   0.0000E+00 zmoment=   0.0000E+00
              xtotal=   0.0000E+00   ytotal=   0.0000E+00  ztotal=  -2.8224E+03   etotal=   2.4389E-01

 n o d a l   f o r c e/e n e r g y    o u t p u t  t=   1.46139E+01

 velocity boundary condition forces/rigid body moments 

 nd#     220  xforce=   0.0000E+00   yforce=   0.0000E+00  zforce=  -1.1567E+02   energy=   1.1568E-02   setid =     220 xmoment=   0.0000E+00 ymoment=   0.0000E+00 zmoment=   0.0000E+00
 nd#     221  xforce=   0.0000E+00   yforce=   0.0000E+00  zforce=  -6.3336E+01   energy=   6.6522E-03   setid =     221 xmoment=   0.0000E+00 ymoment=   0.0000E+00 zmoment=   0.0000E+00
 nd#     222  xforce=   0.0000E+00   yforce=   0.0000E+00  zforce=  -7.4735E+01   energy=   9.0576E-03   setid =     222 xmoment=   0.0000E+00 ymoment=   0.0000E+00 zmoment=   0.0000E+00
 nd#     223  xforce=   0.0000E+00   yforce=   0.0000E+00  zforce=  -8.0041E+01   energy=   8.9631E-03   setid =     223 xmoment=   0.0000E+00 ymoment=   0.0000E+00 zmoment=   0.0000E+00
 nd#     248  xforce=   0.0000E+00   yforce=   0.0000E+00  zforce=  -6.7540E+01   energy=   8.0825E-03   setid =     248 xmoment=   0.0000E+00 ymoment=   0.0000E+00 zmoment=   0.0000E+00
 nd#     249  xforce=   0.0000E+00   yforce=   0.0000E+00  zforce=  -5.4308E+01   energy=   6.3180E-03   setid =     249 xmoment=   0.0000E+00 ymoment=   0.0000E+00 zmoment=   0.0000E+00
 nd#     286  xforce=   0.0000E+00   yforce=   0.0000E+00  zforce=   3.2603E+02   energy=  -2.0682E-02   setid =     286 xmoment=   0.0000E+00 ymoment=   0.0000E+00 zmoment=   0.0000E+00
 nd#     287  xforce=   0.0000E+00   yforce=   0.0000E+00  zforce=  -6.4053E+01   energy=   7.1240E-03   setid =     287 xmoment=   0.0000E+00 ymoment=   0.0000E+00 zmoment=   0.0000E+00
 nd#     288  xforce=   0.0000E+00   yforce=   0.0000E+00  zforce=   8.2465E+01   energy=  -4.7156E-03   setid =     288 xmoment=   0.0000E+00 ymoment=   0.0000E+00 zmoment=   0.0000E+00
 nd#     301  xforce=   0.0000E+00   yforce=   0.0000E+00  zforce=  -1.9513E+02   energy=   1.8258E-02   setid =     301 xmoment=   0.0000E+00 ymoment=   0.0000E+00 zmoment=   0.0000E+00
 nd#     314  xforce=   0.0000E+00   yforce=   0.0000E+00  zforce=  -9.3048E+01   energy=   9.9063E-03   setid =     314 xmoment=   0.0000E+00 ymoment=   0.0000E+00 zmoment=   0.0000E+00
 nd#     363  xforce=   0.0000E+00   yforce=   0.0000E+00  zforce=  -1.1987E+01   energy=   3.4210E-03   setid =     363 xmoment=   0.0000E+00 ymoment=   0.0000E+00 zmoment=   0.0000E+00
 nd#     364  xforce=   0.0000E+00   yforce=   0.0000E+00  zforce=  -2.9156E+01   energy=   6.1827E-03   setid =     364 xmoment=   0.0000E+00 ymoment=   0.0000E+00 zmoment=   0.0000E+00
 nd#     365  xforce=   0.0000E+00   yforce=   0.0000E+00  zforce=  -2.0590E+02   energy=   1.9473E-02   setid =     365 xmoment=   0.0000E+00 ymoment=   0.0000E+00 zmoment=   0.0000E+00
 nd#     366  xforce=   0.0000E+00   yforce=   0.0000E+00  zforce=  -7.9970E+01   energy=   8.5370E-03   setid =     366 xmoment=   0.0000E+00 ymoment=   0.0000E+00 zmoment=   0.0000E+00
 nd#     379  xforce=   0.0000E+00   yforce=   0.0000E+00  zforce=  -5.5693E+01   energy=   6.4301E-03   setid =     379 xmoment=   0.0000E+00 ymoment=   0.0000E+00 zmoment=   0.0000E+00
 nd#     404  xforce=   0.0000E+00   yforce=   0.0000E+00  zforce=  -3.1460E+02   energy=   2.6817E-02   setid =     404 xmoment=   0.0000E+00 ymoment=   0.0000E+00 zmoment=   0.0000E+00
 nd#     405  xforce=   0.0000E+00   yforce=   0.0000E+00  zforce=  -2.0111E+02   energy=   1.7705E-02   setid =     405 xmoment=   0.0000E+00 ymoment=   0.0000E+00 zmoment=   0.0000E+00
 nd#     418  xforce=   0.0000E+00   yforce=   0.0000E+00  zforce=  -1.7495E+02   energy=   1.6388E-02   setid =     418 xmoment=   0.0000E+00 ymoment=   0.0000E+00 zmoment=   0.0000E+00
 nd#     438  xforce=   0.0000E+00   yforce=   0.0000E+00  zforce=   8.1047E+00   energy=  -5.5900E-04   setid =     438 xmoment=   0.0000E+00 ymoment=   0.0000E+00 zmoment=   0.0000E+00
 nd#     439  xforce=   0.0000E+00   yforce=   0.0000E+00  zforce=  -3.4681E+01   energy=   4.0189E-03   setid =     439 xmoment=   0.0000E+00 ymoment=   0.0000E+00 zmoment=   0.0000E+00
 nd#     440  xforce=   0.0000E+00   yforce=   0.0000E+00  zforce=  -4.2728E+01   energy=   4.7884E-03   setid =     440 xmoment=   0.0000E+00 ymoment=   0.0000E+00 zmoment=   0.0000E+00
 nd#     441  xforce=   0.0000E+00   yforce=   0.0000E+00  zforce=  -4.6721E+01   energy=   5.1460E-03   setid =     441 xmoment=   0.0000E+00 ymoment=   0.0000E+00 zmoment=   0.0000E+00
 nd#     442  xforce=   0.0000E+00   yforce=   0.0000E+00  zforce=  -5.0075E+01   energy=   5.4230E-03   setid =     442 xmoment=   0.0000E+00 ymoment=   0.0000E+00 zmoment=   0.0000E+00
 nd#     443  xforce=   0.0000E+00   yforce=   0.0000E+00  zforce=  -5.3510E+01   energy=   5.6819E-03   setid =     443 xmoment=   0.0000E+00 ymoment=   0.0000E+00 zmoment=   0.0000E+00
 nd#     444  xforce=   0.0000E+00   yforce=   0.0000E+00  zforce=  -5.6820E+01   energy=   5.9814E-03   setid =     444 xmoment=   0.0000E+00 ymoment=   0.0000E+00 zmoment=   0.0000E+00
 nd#     591  xforce=   0.0000E+00   yforce=   0.0000E+00  zforce=  -5.0529E+01   energy=   6.0211E-03   setid =     591 xmoment=   0.0000E+00 ymoment=   0.0000E+00 zmoment=   0.0000E+00
 nd#     592  xforce=   0.0000E+00   yforce=   0.0000E+00  zforce=  -5.2826E+01   energy=   6.5119E-03   setid =     592 xmoment=   0.0000E+00 ymoment=   0.0000E+00 zmoment=   0.0000E+00
 nd#     595  xforce=   0.0000E+00   yforce=   0.0000E+00  zforce=  -8.5777E+01   energy=   9.2549E-03   setid =     595 xmoment=   0.0000E+00 ymoment=   0.0000E+00 zmoment=   0.0000E+00
 nd#     596  xforce=   0.0000E+00   yforce=   0.0000E+00  zforce=  -8.2119E+01   energy=   9.0884E-03   setid =     596 xmoment=   0.0000E+00 ymoment=   0.0000E+00 zmoment=   0.0000E+00
 nd#     599  xforce=   0.0000E+00   yforce=   0.0000E+00  zforce=  -7.2779E+01   energy=   8.4004E-03   setid =     599 xmoment=   0.0000E+00 ymoment=   0.0000E+00 zmoment=   0.0000E+00
 nd#     600  xforce=   0.0000E+00   yforce=   0.0000E+00  zforce=  -8.0924E+01   energy=   9.0835E-03   setid =     600 xmoment=   0.0000E+00 ymoment=   0.0000E+00 zmoment=   0.0000E+00
 nd#     603  xforce=   0.0000E+00   yforce=   0.0000E+00  zforce=  -5.0440E+01   energy=   5.4893E-03   setid =     603 xmoment=   0.0000E+00 ymoment=   0.0000E+00 zmoment=   0.0000E+00
 nd#     604  xforce=   0.0000E+00   yforce=   0.0000E+00  zforce=  -4.9141E+01   energy=   5.4643E-03   setid =     604 xmoment=   0.0000E+00 ymoment=   0.0000E+00 zmoment=   0.0000E+00
 nd#     638  xforce=   0.0000E+00   yforce=   0.0000E+00  zforce=  -6.0392E+01   energy=   7.3673E-03   setid =     638 xmoment=   0.0000E+00 ymoment=   0.0000E+00 zmoment=   0.0000E+00
 nd#     639  xforce=   0.0000E+00   yforce=   0.0000E+00  zforce=  -4.8556E+01   energy=   6.2671E-03   setid =     639 xmoment=   0.0000E+00 ymoment=   0.0000E+00 zmoment=   0.0000E+00
 nd#     641  xforce=   0.0000E+00   yforce=   0.0000E+00  zforce=  -7.7677E+01   energy=   8.9289E-03   setid =     641 xmoment=   0.0000E+00 ymoment=   0.0000E+00 zmoment=   0.0000E+00
 nd#     642  xforce=   0.0000E+00   yforce=   0.0000E+00  zforce=  -7.1582E+01   energy=   8.4353E-03   setid =     642 xmoment=   0.0000E+00 ymoment=   0.0000E+00 zmoment=   0.0000E+00
 nd#     644  xforce=   0.0000E+00   yforce=   0.0000E+00  zforce=  -8.9469E+01   energy=   1.0096E-02   setid =     644 xmoment=   0.0000E+00 ymoment=   0.0000E+00 zmoment=   0.0000E+00
[...]
 nd#     223  xforce=   0.0000E+00   yforce=   0.0000E+00  zforce=  -5.3701E+01   energy=   5.1637E-02   setid =     223 xmoment=   0.0000E+00 ymoment=   0.0000E+00 zmoment=   0.0000E+00
 nd#     248  xforce=   0.0000E+00   yforce=   0.0000E+00  zforce=  -8.5302E+01   energy=   6.9237E-02   setid =     248 xmoment=   0.0000E+00 ymoment=   0.0000E+00 zmoment=   0.0000E+00
 nd#     249  xforce=   0.0000E+00   yforce=   0.0000E+00  zforce=  -4.5281E+01   energy=   4.2694E-02   setid =     249 xmoment=   0.0000E+00 ymoment=   0.0000E+00 zmoment=   0.0000E+00
 nd#     286  xforce=   0.0000E+00   yforce=   0.0000E+00  zforce=   1.2234E+02   energy=  -1.4888E-01   setid =     286 xmoment=   0.0000E+00 ymoment=   0.0000E+00 zmoment=   0.0000E+00
 nd#     287  xforce=   0.0000E+00   yforce=   0.0000E+00  zforce=  -4.9498E+01   energy=   5.3687E-02   setid =     287 xmoment=   0.0000E+00 ymoment=   0.0000E+00 zmoment=   0.0000E+00
 nd#     288  xforce=   0.0000E+00   yforce=   0.0000E+00  zforce=  -3.3320E+01   energy=  -2.8484E-03   setid =     288 xmoment=   0.0000E+00 ymoment=   0.0000E+00 zmoment=   0.0000E+00
 nd#     301  xforce=   0.0000E+00   yforce=   0.0000E+00  zforce=  -1.4034E+02   energy=   1.5030E-01   setid =     301 xmoment=   0.0000E+00 ymoment=   0.0000E+00 zmoment=   0.0000E+00
 nd#     314  xforce=   0.0000E+00   yforce=   0.0000E+00  zforce=  -9.3299E+01   energy=   8.5909E-02   setid =     314 xmoment=   0.0000E+00 ymoment=   0.0000E+00 zmoment=   0.0000E+00
 nd#     363  xforce=   0.0000E+00   yforce=   0.0000E+00  zforce=  -5.9271E+01   energy=   3.9423E-02   setid =     363 xmoment=   0.0000E+00 ymoment=   0.0000E+00 zmoment=   0.0000E+00
 nd#     364  xforce=   0.0000E+00   yforce=   0.0000E+00  zforce=  -5.8353E+01   energy=   5.3623E-02   setid =     364 xmoment=   0.0000E+00 ymoment=   0.0000E+00 zmoment=   0.0000E+00
 nd#     365  xforce=   0.0000E+00   yforce=   0.0000E+00  zforce=  -1.2100E+02   energy=   1.2016E-01   setid =     365 xmoment=   0.0000E+00 ymoment=   0.0000E+00 zmoment=   0.0000E+00
 nd#     366  xforce=   0.0000E+00   yforce=   0.0000E+00  zforce=  -5.6581E+01   energy=   4.9489E-02   setid =     366 xmoment=   0.0000E+00 ymoment=   0.0000E+00 zmoment=   0.0000E+00
 nd#     379  xforce=   0.0000E+00   yforce=   0.0000E+00  zforce=  -1.0034E+02   energy=   7.7523E-02   setid =     379 xmoment=   0.0000E+00 ymoment=   0.0000E+00 zmoment=   0.0000E+00
 nd#     404  xforce=   0.0000E+00   yforce=   0.0000E+00  zforce=  -1.7493E+02   energy=   1.7182E-01   setid =     404 xmoment=   0.0000E+00 ymoment=   0.0000E+00 zmoment=   0.0000E+00
 nd#     405  xforce=   0.0000E+00   yforce=   0.0000E+00  zforce=  -1.1612E+02   energy=   1.1704E-01   setid =     405 xmoment=   0.0000E+00 ymoment=   0.0000E+00 zmoment=   0.0000E+00
 nd#     418  xforce=   0.0000E+00   yforce=   0.0000E+00  zforce=  -1.0588E+02   energy=   8.5235E-02   setid =     418 xmoment=   0.0000E+00 ymoment=   0.0000E+00 zmoment=   0.0000E+00
 nd#     438  xforce=   0.0000E+00   yforce=   0.0000E+00  zforce=   6.6082E+00   energy=  -5.9077E-03   setid =     438 xmoment=   0.0000E+00 ymoment=   0.0000E+00 zmoment=   0.0000E+00
 nd#     439  xforce=   0.0000E+00   yforce=   0.0000E+00  zforce=  -2.8082E+01   energy=   2.7063E-02   setid =     439 xmoment=   0.0000E+00 ymoment=   0.0000E+00 zmoment=   0.0000E+00
 nd#     440  xforce=   0.0000E+00   yforce=   0.0000E+00  zforce=  -3.2451E+01   energy=   3.2561E-02   setid =     440 xmoment=   0.0000E+00 ymoment=   0.0000E+00 zmoment=   0.0000E+00
 nd#     441  xforce=   0.0000E+00   yforce=   0.0000E+00  zforce=  -3.5589E+01   energy=   3.4643E-02   setid =     441 xmoment=   0.0000E+00 ymoment=   0.0000E+00 zmoment=   0.0000E+00
 nd#     442  xforce=   0.0000E+00   yforce=   0.0000E+00  zforce=  -3.4780E+01   energy=   3.5864E-02   setid =     442 xmoment=   0.0000E+00 ymoment=   0.0000E+00 zmoment=   0.0000E+00
 nd#     443  xforce=   0.0000E+00   yforce=   0.0000E+00  zforce=  -3.6102E+01   energy=   3.7094E-02   setid =     443 xmoment=   0.0000E+00 ymoment=   0.0000E+00 zmoment=   0.0000E+00
 nd#     444  xforce=   0.0000E+00   yforce=   0.0000E+00  zforce=  -3.5115E+01   energy=   3.8139E-02   setid =     444 xmoment=   0.0000E+00 ymoment=   0.0000E+00 zmoment=   0.0000E+00
 nd#     591  xforce=   0.0000E+00   yforce=   0.0000E+00  zforce=  -5.2548E+01   energy=   5.2030E-02   setid =     591 xmoment=   0.0000E+00 ymoment=   0.0000E+00 zmoment=   0.0000E+00
 nd#     592  xforce=   0.0000E+00   yforce=   0.0000E+00  zforce=  -5.0669E+01   energy=   5.1067E-02   setid =     592 xmoment=   0.0000E+00 ymoment=   0.0000E+00 zmoment=   0.0000E+00
 nd#     595  xforce=   0.0000E+00   yforce=   0.0000E+00  zforce=  -6.8721E+01   energy=   6.9513E-02   setid =     595 xmoment=   0.0000E+00 ymoment=   0.0000E+00 zmoment=   0.0000E+00
 nd#     596  xforce=   0.0000E+00   yforce=   0.0000E+00  zforce=  -6.5581E+01   energy=   6.7109E-02   setid =     596 xmoment=   0.0000E+00 ymoment=   0.0000E+00 zmoment=   0.0000E+00
 nd#     599  xforce=   0.0000E+00   yforce=   0.0000E+00  zforce=  -6.9858E+01   energy=   6.2675E-02   setid =     599 xmoment=   0.0000E+00 ymoment=   0.0000E+00 zmoment=   0.0000E+00
 nd#     600  xforce=   0.0000E+00   yforce=   0.0000E+00  zforce=  -7.3486E+01   energy=   6.7103E-02   setid =     600 xmoment=   0.0000E+00 ymoment=   0.0000E+00 zmoment=   0.0000E+00
 nd#     603  xforce=   0.0000E+00   yforce=   0.0000E+00  zforce=  -4.1232E+01   energy=   3.8564E-02   setid =     603 xmoment=   0.0000E+00 ymoment=   0.0000E+00 zmoment=   0.0000E+00
 nd#     604  xforce=   0.0000E+00   yforce=   0.0000E+00  zforce=  -4.1072E+01   energy=   3.7697E-02   setid =     604 xmoment=   0.0000E+00 ymoment=   0.0000E+00 zmoment=   0.0000E+00
 nd#     638  xforce=   0.0000E+00   yforce=   0.0000E+00  zforce=  -5.4210E+01   energy=   5.4534E-02   setid =     638 xmoment=   0.0000E+00 ymoment=   0.0000E+00 zmoment=   0.0000E+00
 nd#     639  xforce=   0.0000E+00   yforce=   0.0000E+00  zforce=  -4.5190E+01   energy=   4.3812E-02   setid =     639 xmoment=   0.0000E+00 ymoment=   0.0000E+00 zmoment=   0.0000E+00
 nd#     641  xforce=   0.0000E+00   yforce=   0.0000E+00  zforce=  -6.7922E+01   energy=   6.7066E-02   setid =     641 xmoment=   0.0000E+00 ymoment=   0.0000E+00 zmoment=   0.0000E+00
 nd#     642  xforce=   0.0000E+00   yforce=   0.0000E+00  zforce=  -6.2464E+01   energy=   6.0741E-02   setid =     642 xmoment=   0.0000E+00 ymoment=   0.0000E+00 zmoment=   0.0000E+00
 nd#     644  xforce=   0.0000E+00   yforce=   0.0000E+00  zforce=  -8.6554E+01   energy=   7.7788E-02   setid =     644 xmoment=   0.0000E+00 ymoment=   0.0000E+00 zmoment=   0.0000E+00
 nd#     645  xforce=   0.0000E+00   yforce=   0.0000E+00  zforce=  -7.4574E+01   energy=   7.4516E-02   setid =     645 xmoment=   0.0000E+00 ymoment=   0.0000E+00 zmoment=   0.0000E+00
 nd#     647  xforce=   0.0000E+00   yforce=   0.0000E+00  zforce=  -3.2201E+01   energy=   2.8876E-02   setid =     647 xmoment=   0.0000E+00 ymoment=   0.0000E+00 zmoment=   0.0000E+00
 nd#     648  xforce=   0.0000E+00   yforce=   0.0000E+00  zforce=  -7.5197E+00   energy=   9.8212E-03   setid =     648 xmoment=   0.0000E+00 ymoment=   0.0000E+00 zmoment=   0.0000E+00
 nd#     674  xforce=   0.0000E+00   yforce=   0.0000E+00  zforce=  -5.3236E+01   energy=   5.3386E-02   setid =     674 xmoment=   0.0000E+00 ymoment=   0.0000E+00 zmoment=   0.0000E+00
 nd#     676  xforce=   0.0000E+00   yforce=   0.0000E+00  zforce=  -7.6841E+01   energy=   7.6915E-02   setid =     676 xmoment=   0.0000E+00 ymoment=   0.0000E+00 zmoment=   0.0000E+00
 nd#     678  xforce=   0.0000E+00   yforce=   0.0000E+00  zforce=  -7.1437E+01   energy=   6.1264E-02   setid =     678 xmoment=   0.0000E+00 ymoment=   0.0000E+00 zmoment=   0.0000E+00
 nd#     680  xforce=   0.0000E+00   yforce=   0.0000E+00  zforce=  -4.5033E+01   energy=   4.1407E-02   setid =     680 xmoment=   0.0000E+00 ymoment=   0.0000E+00 zmoment=   0.0000E+00
 nd#     821  xforce=   0.0000E+00   yforce=   0.0000E+00  zforce=  -5.5392E+01   energy=   5.3070E-02   setid =     821 xmoment=   0.0000E+00 ymoment=   0.0000E+00 zmoment=   0.0000E+00
 nd#     822  xforce=   0.0000E+00   yforce=   0.0000E+00  zforce=  -6.7674E+01   energy=   6.6830E-02   setid =     822 xmoment=   0.0000E+00 ymoment=   0.0000E+00 zmoment=   0.0000E+00
 nd#     823  xforce=   0.0000E+00   yforce=   0.0000E+00  zforce=  -8.1147E+01   energy=   7.2852E-02   setid =     823 xmoment=   0.0000E+00 ymoment=   0.0000E+00 zmoment=   0.0000E+00
 nd#     824  xforce=   0.0000E+00   yforce=   0.0000E+00  zforce=  -4.0996E+01   energy=   3.6454E-02   setid =     824 xmoment=   0.0000E+00 ymoment=   0.0000E+00 zmoment=   0.0000E+00
 nd#     850  xforce=   0.0000E+00   yforce=   0.0000E+00  zforce=   3.6748E+01   energy=  -3.0528E-02   setid =     850 xmoment=   0.0000E+00 ymoment=   0.0000E+00 zmoment=   0.0000E+00
 nd#     852  xforce=   0.0000E+00   yforce=   0.0000E+00  zforce=   5.2061E+01   energy=  -4.0836E-02   setid =     852 xmoment=   0.0000E+00 ymoment=   0.0000E+00 zmoment=   0.0000E+00
 nd#     854  xforce=   0.0000E+00   yforce=   0.0000E+00  zforce=   8.6410E+01   energy=  -6.7785E-02   setid =     854 xmoment=   0.0000E+00 ymoment=   0.0000E+00 zmoment=   0.0000E+00
 nd#     856  xforce=   0.0000E+00   yforce=   0.0000E+00  zforce=   5.6387E+01   energy=  -4.7484E-02   setid =     856 xmoment=   0.0000E+00 ymoment=   0.0000E+00 zmoment=   0.0000E+00
              xtotal=   0.0000E+00   ytotal=   0.0000E+00  ztotal=  -2.6080E+03   etotal=   2.4800E+00

 n o d a l   f o r c e/e n e r g y    o u t p u t  t=   1.00000E+02

 velocity boundary condition forces/rigid body moments 

 nd#     220  xforce=   0.0000E+00   yforce=   0.0000E+00  zforce=  -3.3985E+01   energy=   5.3211E-02   setid =     220 xmoment=   0.0000E+00 ymoment=   0.0000E+00 zmoment=   0.0000E+00
 nd#     221  xforce=   0.0000E+00   yforce=   0.0000E+00  zforce=   2.1048E+01   energy=   1.0382E-02   setid =     221 xmoment=   0.0000E+00 ymoment=   0.0000E+00 zmoment=   0.0000E+00
 nd#     222  xforce=   0.0000E+00   yforce=   0.0000E+00  zforce=  -5.8908E+01   energy=   6.2741E-02   setid =     222 xmoment=   0.0000E+00 ymoment=   0.0000E+00 zmoment=   0.0000E+00
 nd#     223  xforce=   0.0000E+00   yforce=   0.0000E+00  zforce=  -4.6012E+01   energy=   5.1830E-02   setid =     223 xmoment=   0.0000E+00 ymoment=   0.0000E+00 zmoment=   0.0000E+00
 nd#     248  xforce=   0.0000E+00   yforce=   0.0000E+00  zforce=  -6.5868E+01   energy=   6.9529E-02   setid =     248 xmoment=   0.0000E+00 ymoment=   0.0000E+00 zmoment=   0.0000E+00
 nd#     249  xforce=   0.0000E+00   yforce=   0.0000E+00  zforce=  -3.9066E+01   energy=   4.2856E-02   setid =     249 xmoment=   0.0000E+00 ymoment=   0.0000E+00 zmoment=   0.0000E+00
 nd#     286  xforce=   0.0000E+00   yforce=   0.0000E+00  zforce=   1.5527E+02   energy=  -1.4942E-01   setid =     286 xmoment=   0.0000E+00 ymoment=   0.0000E+00 zmoment=   0.0000E+00
 nd#     287  xforce=   0.0000E+00   yforce=   0.0000E+00  zforce=  -5.0253E+01   energy=   5.3879E-02   setid =     287 xmoment=   0.0000E+00 ymoment=   0.0000E+00 zmoment=   0.0000E+00
 nd#     288  xforce=   0.0000E+00   yforce=   0.0000E+00  zforce=  -1.4788E+00   energy=  -2.7813E-03   setid =     288 xmoment=   0.0000E+00 ymoment=   0.0000E+00 zmoment=   0.0000E+00
 nd#     301  xforce=   0.0000E+00   yforce=   0.0000E+00  zforce=  -1.4268E+02   energy=   1.5084E-01   setid =     301 xmoment=   0.0000E+00 ymoment=   0.0000E+00 zmoment=   0.0000E+00
 nd#     314  xforce=   0.0000E+00   yforce=   0.0000E+00  zforce=  -8.2711E+01   energy=   8.6249E-02   setid =     314 xmoment=   0.0000E+00 ymoment=   0.0000E+00 zmoment=   0.0000E+00
 nd#     363  xforce=   0.0000E+00   yforce=   0.0000E+00  zforce=  -3.1236E+01   energy=   3.9598E-02   setid =     363 xmoment=   0.0000E+00 ymoment=   0.0000E+00 zmoment=   0.0000E+00
 nd#     364  xforce=   0.0000E+00   yforce=   0.0000E+00  zforce=  -3.6106E+01   energy=   5.3805E-02   setid =     364 xmoment=   0.0000E+00 ymoment=   0.0000E+00 zmoment=   0.0000E+00
 nd#     365  xforce=   0.0000E+00   yforce=   0.0000E+00  zforce=  -1.1977E+02   energy=   1.2062E-01   setid =     365 xmoment=   0.0000E+00 ymoment=   0.0000E+00 zmoment=   0.0000E+00
 nd#     366  xforce=   0.0000E+00   yforce=   0.0000E+00  zforce=  -4.8996E+01   energy=   4.9693E-02   setid =     366 xmoment=   0.0000E+00 ymoment=   0.0000E+00 zmoment=   0.0000E+00
 nd#     379  xforce=   0.0000E+00   yforce=   0.0000E+00  zforce=  -8.3257E+01   energy=   7.7878E-02   setid =     379 xmoment=   0.0000E+00 ymoment=   0.0000E+00 zmoment=   0.0000E+00
 nd#     404  xforce=   0.0000E+00   yforce=   0.0000E+00  zforce=  -1.8177E+02   energy=   1.7251E-01   setid =     404 xmoment=   0.0000E+00 ymoment=   0.0000E+00 zmoment=   0.0000E+00
 nd#     405  xforce=   0.0000E+00   yforce=   0.0000E+00  zforce=  -1.2335E+02   energy=   1.1750E-01   setid =     405 xmoment=   0.0000E+00 ymoment=   0.0000E+00 zmoment=   0.0000E+00
 nd#     418  xforce=   0.0000E+00   yforce=   0.0000E+00  zforce=  -9.8126E+01   energy=   8.5629E-02   setid =     418 xmoment=   0.0000E+00 ymoment=   0.0000E+00 zmoment=   0.0000E+00
 nd#     438  xforce=   0.0000E+00   yforce=   0.0000E+00  zforce=   1.5485E+01   energy=  -5.9503E-03   setid =     438 xmoment=   0.0000E+00 ymoment=   0.0000E+00 zmoment=   0.0000E+00
 nd#     439  xforce=   0.0000E+00   yforce=   0.0000E+00  zforce=  -1.6694E+01   energy=   2.7149E-02   setid =     439 xmoment=   0.0000E+00 ymoment=   0.0000E+00 zmoment=   0.0000E+00
 nd#     440  xforce=   0.0000E+00   yforce=   0.0000E+00  zforce=  -2.3373E+01   energy=   3.2669E-02   setid =     440 xmoment=   0.0000E+00 ymoment=   0.0000E+00 zmoment=   0.0000E+00
 nd#     441  xforce=   0.0000E+00   yforce=   0.0000E+00  zforce=  -2.6761E+01   energy=   3.4764E-02   setid =     441 xmoment=   0.0000E+00 ymoment=   0.0000E+00 zmoment=   0.0000E+00
 nd#     442  xforce=   0.0000E+00   yforce=   0.0000E+00  zforce=  -2.8981E+01   energy=   3.5987E-02   setid =     442 xmoment=   0.0000E+00 ymoment=   0.0000E+00 zmoment=   0.0000E+00
 nd#     443  xforce=   0.0000E+00   yforce=   0.0000E+00  zforce=  -3.1207E+01   energy=   3.7224E-02   setid =     443 xmoment=   0.0000E+00 ymoment=   0.0000E+00 zmoment=   0.0000E+00
 nd#     444  xforce=   0.0000E+00   yforce=   0.0000E+00  zforce=  -3.2693E+01   energy=   3.8270E-02   setid =     444 xmoment=   0.0000E+00 ymoment=   0.0000E+00 zmoment=   0.0000E+00
 nd#     591  xforce=   0.0000E+00   yforce=   0.0000E+00  zforce=  -4.0182E+01   energy=   5.2209E-02   setid =     591 xmoment=   0.0000E+00 ymoment=   0.0000E+00 zmoment=   0.0000E+00
 nd#     592  xforce=   0.0000E+00   yforce=   0.0000E+00  zforce=  -3.7512E+01   energy=   5.1238E-02   setid =     592 xmoment=   0.0000E+00 ymoment=   0.0000E+00 zmoment=   0.0000E+00
 nd#     595  xforce=   0.0000E+00   yforce=   0.0000E+00  zforce=  -6.1505E+01   energy=   6.9765E-02   setid =     595 xmoment=   0.0000E+00 ymoment=   0.0000E+00 zmoment=   0.0000E+00
 nd#     596  xforce=   0.0000E+00   yforce=   0.0000E+00  zforce=  -5.4132E+01   energy=   6.7340E-02   setid =     596 xmoment=   0.0000E+00 ymoment=   0.0000E+00 zmoment=   0.0000E+00
 nd#     599  xforce=   0.0000E+00   yforce=   0.0000E+00  zforce=  -5.6083E+01   energy=   6.2918E-02   setid =     599 xmoment=   0.0000E+00 ymoment=   0.0000E+00 zmoment=   0.0000E+00
 nd#     600  xforce=   0.0000E+00   yforce=   0.0000E+00  zforce=  -5.7101E+01   energy=   6.7355E-02   setid =     600 xmoment=   0.0000E+00 ymoment=   0.0000E+00 zmoment=   0.0000E+00
 nd#     603  xforce=   0.0000E+00   yforce=   0.0000E+00  zforce=  -3.4381E+01   energy=   3.8710E-02   setid =     603 xmoment=   0.0000E+00 ymoment=   0.0000E+00 zmoment=   0.0000E+00
 nd#     604  xforce=   0.0000E+00   yforce=   0.0000E+00  zforce=  -3.2426E+01   energy=   3.7839E-02   setid =     604 xmoment=   0.0000E+00 ymoment=   0.0000E+00 zmoment=   0.0000E+00
 nd#     638  xforce=   0.0000E+00   yforce=   0.0000E+00  zforce=  -3.6219E+01   energy=   5.4709E-02   setid =     638 xmoment=   0.0000E+00 ymoment=   0.0000E+00 zmoment=   0.0000E+00
 nd#     639  xforce=   0.0000E+00   yforce=   0.0000E+00  zforce=  -2.2472E+01   energy=   4.3942E-02   setid =     639 xmoment=   0.0000E+00 ymoment=   0.0000E+00 zmoment=   0.0000E+00
 nd#     641  xforce=   0.0000E+00   yforce=   0.0000E+00  zforce=  -4.9178E+01   energy=   6.7292E-02   setid =     641 xmoment=   0.0000E+00 ymoment=   0.0000E+00 zmoment=   0.0000E+00
 nd#     642  xforce=   0.0000E+00   yforce=   0.0000E+00  zforce=  -3.8877E+01   energy=   6.0936E-02   setid =     642 xmoment=   0.0000E+00 ymoment=   0.0000E+00 zmoment=   0.0000E+00
 nd#     644  xforce=   0.0000E+00   yforce=   0.0000E+00  zforce=  -6.5273E+01   energy=   7.8081E-02   setid =     644 xmoment=   0.0000E+00 ymoment=   0.0000E+00 zmoment=   0.0000E+00
 nd#     645  xforce=   0.0000E+00   yforce=   0.0000E+00  zforce=  -5.3072E+01   energy=   7.4762E-02   setid =     645 xmoment=   0.0000E+00 ymoment=   0.0000E+00 zmoment=   0.0000E+00
 nd#     647  xforce=   0.0000E+00   yforce=   0.0000E+00  zforce=  -2.1520E+01   energy=   2.8980E-02   setid =     647 xmoment=   0.0000E+00 ymoment=   0.0000E+00 zmoment=   0.0000E+00
 nd#     648  xforce=   0.0000E+00   yforce=   0.0000E+00  zforce=   5.5119E+00   energy=   9.8251E-03   setid =     648 xmoment=   0.0000E+00 ymoment=   0.0000E+00 zmoment=   0.0000E+00
 nd#     674  xforce=   0.0000E+00   yforce=   0.0000E+00  zforce=  -4.1781E+01   energy=   5.3570E-02   setid =     674 xmoment=   0.0000E+00 ymoment=   0.0000E+00 zmoment=   0.0000E+00
 nd#     676  xforce=   0.0000E+00   yforce=   0.0000E+00  zforce=  -6.8533E+01   energy=   7.7195E-02   setid =     676 xmoment=   0.0000E+00 ymoment=   0.0000E+00 zmoment=   0.0000E+00
 nd#     678  xforce=   0.0000E+00   yforce=   0.0000E+00  zforce=  -5.4656E+01   energy=   6.1508E-02   setid =     678 xmoment=   0.0000E+00 ymoment=   0.0000E+00 zmoment=   0.0000E+00
 nd#     680  xforce=   0.0000E+00   yforce=   0.0000E+00  zforce=  -3.7553E+01   energy=   4.1566E-02   setid =     680 xmoment=   0.0000E+00 ymoment=   0.0000E+00 zmoment=   0.0000E+00
 nd#     821  xforce=   0.0000E+00   yforce=   0.0000E+00  zforce=  -3.7537E+01   energy=   5.3250E-02   setid =     821 xmoment=   0.0000E+00 ymoment=   0.0000E+00 zmoment=   0.0000E+00
 nd#     822  xforce=   0.0000E+00   yforce=   0.0000E+00  zforce=  -5.1245E+01   energy=   6.7059E-02   setid =     822 xmoment=   0.0000E+00 ymoment=   0.0000E+00 zmoment=   0.0000E+00
 nd#     823  xforce=   0.0000E+00   yforce=   0.0000E+00  zforce=  -6.0871E+01   energy=   7.3126E-02   setid =     823 xmoment=   0.0000E+00 ymoment=   0.0000E+00 zmoment=   0.0000E+00
 nd#     824  xforce=   0.0000E+00   yforce=   0.0000E+00  zforce=  -2.9647E+01   energy=   3.6590E-02   setid =     824 xmoment=   0.0000E+00 ymoment=   0.0000E+00 zmoment=   0.0000E+00
 nd#     850  xforce=   0.0000E+00   yforce=   0.0000E+00  zforce=   5.3625E+01   energy=  -3.0703E-02   setid =     850 xmoment=   0.0000E+00 ymoment=   0.0000E+00 zmoment=   0.0000E+00
 nd#     852  xforce=   0.0000E+00   yforce=   0.0000E+00  zforce=   6.5322E+01   energy=  -4.1062E-02   setid =     852 xmoment=   0.0000E+00 ymoment=   0.0000E+00 zmoment=   0.0000E+00
 nd#     854  xforce=   0.0000E+00   yforce=   0.0000E+00  zforce=   9.7098E+01   energy=  -6.8139E-02   setid =     854 xmoment=   0.0000E+00 ymoment=   0.0000E+00 zmoment=   0.0000E+00
 nd#     856  xforce=   0.0000E+00   yforce=   0.0000E+00  zforce=   6.4182E+01   energy=  -4.7716E-02   setid =     856 xmoment=   0.0000E+00 ymoment=   0.0000E+00 zmoment=   0.0000E+00
              xtotal=   0.0000E+00   ytotal=   0.0000E+00  ztotal=  -1.9675E+03   etotal=   2.4888E+00
