 LS-DYNA keyword deck by LS-PrePost                                      
                    ls-dyna smp d R14 R14.1.1s_1_ef50e1 date 06/16/2024



 n o d a l  s t r e s s  c a l c u l a t i o n s   f o r   t i m e  s t e p        1   ( at time 0.00000E+00 )

 node (global)
          stress       sig-xx      sig-yy      sig-zz      sig-xy      sig-yz      sig-zx       plastic
                                                                                                 strain 
       1-
 mid.  surface     5.3602E-05  5.3602E-05  5.3602E-05  0.0000E+00  0.0000E+00  0.0000E+00  0.0000E+00
       2-
 mid.  surface     9.5276E-05  9.5276E-05  9.5276E-05  0.0000E+00  0.0000E+00  0.0000E+00  0.0000E+00
       8-
 mid.  surface     3.1932E-05  3.1932E-05  3.1932E-05  0.0000E+00  0.0000E+00  0.0000E+00  0.0000E+00
       9-
 mid.  surface    -2.9208E-05 -2.9208E-05 -2.9208E-05  0.0000E+00  0.0000E+00  0.0000E+00  0.0000E+00
      10-
 mid.  surface     4.4959E-05  4.4959E-05  4.4959E-05  0.0000E+00  0.0000E+00  0.0000E+00  0.0000E+00
      11-
 mid.  surface     2.9827E-05  2.9827E-05  2.9827E-05  0.0000E+00  0.0000E+00  0.0000E+00  0.0000E+00
      12-
 mid.  surface     5.5756E-05  5.5756E-05  5.5756E-05  0.0000E+00  0.0000E+00  0.0000E+00  0.0000E+00
      17-
 mid.  surface    -2.1580E-05 -2.1580E-05 -2.1580E-05  0.0000E+00  0.0000E+00  0.0000E+00  0.0000E+00
      18-
 mid.  surface     2.1147E-05  2.1147E-05  2.1147E-05  0.0000E+00  0.0000E+00  0.0000E+00  0.0000E+00
      19-
 mid.  surface     7.9568E-05  7.9568E-05  7.9568E-05  0.0000E+00  0.0000E+00  0.0000E+00  0.0000E+00
      20-
 mid.  surface    -1.1466E-04 -1.1466E-04 -1.1466E-04  0.0000E+00  0.0000E+00  0.0000E+00  0.0000E+00
      21-
 mid.  surface    -4.9213E-05 -4.9213E-05 -4.9213E-05  0.0000E+00  0.0000E+00  0.0000E+00  0.0000E+00
      22-
 mid.  surface    -9.0888E-05 -9.0888E-05 -9.0888E-05  0.0000E+00  0.0000E+00  0.0000E+00  0.0000E+00
      23-
 mid.  surface    -6.1100E-05 -6.1100E-05 -6.1100E-05  0.0000E+00  0.0000E+00  0.0000E+00  0.0000E+00
      52-
 mid.  surface     6.0667E-05  6.0667E-05  6.0667E-05  0.0000E+00  0.0000E+00  0.0000E+00  0.0000E+00
      53-
 mid.  surface     1.8992E-05  1.8992E-05  1.8992E-05  0.0000E+00  0.0000E+00  0.0000E+00  0.0000E+00
     124-
 mid.  surface    -3.8955E-05 -3.8955E-05 -3.8955E-05  0.0000E+00  0.0000E+00  0.0000E+00  0.0000E+00
     125-
 mid.  surface    -4.9213E-05 -4.9213E-05 -4.9213E-05  0.0000E+00  0.0000E+00  0.0000E+00  0.0000E+00
     148-
 mid.  surface     3.6241E-05  3.6241E-05  3.6241E-05  0.0000E+00  0.0000E+00  0.0000E+00  0.0000E+00
     164-
 mid.  surface    -6.0625E-05 -6.0625E-05 -6.0625E-05  0.0000E+00  0.0000E+00  0.0000E+00  0.0000E+00



 n o d a l  s t r a i n  c a l c u l a t i o n s   f o r   t i m e  s t e p        1   ( at time 0.00000E+00 )

 node (global)
          strain       eps-xx      eps-yy      eps-zz      eps-xy      eps-yz      eps-zx       
       1-
 mid.  surface     0.0000E+00  0.0000E+00  0.0000E+00  0.0000E+00  0.0000E+00  0.0000E+00
       2-
 mid.  surface     0.0000E+00  0.0000E+00  0.0000E+00  0.0000E+00  0.0000E+00  0.0000E+00
       8-
 mid.  surface     0.0000E+00  0.0000E+00  0.0000E+00  0.0000E+00  0.0000E+00  0.0000E+00
       9-
 mid.  surface     0.0000E+00  0.0000E+00  0.0000E+00  0.0000E+00  0.0000E+00  0.0000E+00
      10-
 mid.  surface     0.0000E+00  0.0000E+00  0.0000E+00  0.0000E+00  0.0000E+00  0.0000E+00
      11-
 mid.  surface     0.0000E+00  0.0000E+00  0.0000E+00  0.0000E+00  0.0000E+00  0.0000E+00
      12-
 mid.  surface     0.0000E+00  0.0000E+00  0.0000E+00  0.0000E+00  0.0000E+00  0.0000E+00
      17-
 mid.  surface     0.0000E+00  0.0000E+00  0.0000E+00  0.0000E+00  0.0000E+00  0.0000E+00
      18-
 mid.  surface     0.0000E+00  0.0000E+00  0.0000E+00  0.0000E+00  0.0000E+00  0.0000E+00
      19-
 mid.  surface     0.0000E+00  0.0000E+00  0.0000E+00  0.0000E+00  0.0000E+00  0.0000E+00
      20-
 mid.  surface     0.0000E+00  0.0000E+00  0.0000E+00  0.0000E+00  0.0000E+00  0.0000E+00
      21-
 mid.  surface     0.0000E+00  0.0000E+00  0.0000E+00  0.0000E+00  0.0000E+00  0.0000E+00
      22-
 mid.  surface     0.0000E+00  0.0000E+00  0.0000E+00  0.0000E+00  0.0000E+00  0.0000E+00
      23-
 mid.  surface     0.0000E+00  0.0000E+00  0.0000E+00  0.0000E+00  0.0000E+00  0.0000E+00
      52-
 mid.  surface     0.0000E+00  0.0000E+00  0.0000E+00  0.0000E+00  0.0000E+00  0.0000E+00
      53-
 mid.  surface     0.0000E+00  0.0000E+00  0.0000E+00  0.0000E+00  0.0000E+00  0.0000E+00
     124-
 mid.  surface     0.0000E+00  0.0000E+00  0.0000E+00  0.0000E+00  0.0000E+00  0.0000E+00
     125-
 mid.  surface     0.0000E+00  0.0000E+00  0.0000E+00  0.0000E+00  0.0000E+00  0.0000E+00
     148-
 mid.  surface     0.0000E+00  0.0000E+00  0.0000E+00  0.0000E+00  0.0000E+00  0.0000E+00
     164-
 mid.  surface     0.0000E+00  0.0000E+00  0.0000E+00  0.0000E+00  0.0000E+00  0.0000E+00



 n o d a l  s t r e s s  c a l c u l a t i o n s   f o r   t i m e  s t e p       10   ( at time 1.29245E+00 )

 node (global)
          stress       sig-xx      sig-yy      sig-zz      sig-xy      sig-yz      sig-zx       plastic
                                                                                                 strain 
       1-
 mid.  surface    -1.0682E+07 -1.8692E+07 -1.2563E+08  2.0728E+07 -5.5634E+06 -1.8454E+07  0.0000E+00
       2-
 mid.  surface    -2.2604E+07 -6.9871E+06 -1.8337E+08  1.3464E+07 -1.5468E+06 -8.6223E+06  0.0000E+00
       8-
 mid.  surface    -1.2824E+07  1.8359E+07 -1.0195E+08 -5.4142E+06 -1.1557E+06  1.4784E+06  0.0000E+00
       9-
 mid.  surface    -1.0446E+07 -9.6817E+05 -1.6429E+08 -9.8538E+06 -5.5360E+06  2.9594E+06  0.0000E+00
      10-
 mid.  surface    -9.9539E+06  3.1970E+06 -1.6699E+08  3.2544E+06 -5.2947E+06  8.9005E+06  0.0000E+00
      11-
 mid.  surface    -6.7343E+05 -2.8391E+06 -1.4426E+08  8.1010E+06 -3.5370E+07 -5.4655E+06  0.0000E+00
      12-
 mid.  surface    -1.3505E+07 -1.3389E+07 -1.2918E+08  4.8245E+06 -3.3034E+07 -1.5857E+07  0.0000E+00
      17-
 mid.  surface     9.4227E+06 -3.6153E+06 -1.2137E+08  9.3937E+06 -1.1570E+07 -1.6057E+07  0.0000E+00
      18-
 mid.  surface    -7.7211E+06  1.2148E+07 -1.1239E+08  1.1353E+07  1.9442E+06 -4.4288E+06  0.0000E+00
      19-
 mid.  surface    -1.0581E+07 -5.7074E+06 -1.5499E+08 -3.4448E+06 -6.6047E+06 -1.2483E+07  0.0000E+00
      20-
 mid.  surface    -2.5943E+06 -1.7955E+07 -1.3528E+08  7.2343E+06  5.1836E+06  1.2911E+07  0.0000E+00
      21-
 mid.  surface    -2.0636E+07 -1.6070E+07 -1.6650E+08 -5.8487E+06  2.8850E+06  8.4273E+06  0.0000E+00
      22-
 mid.  surface    -2.5996E+07 -2.8473E+07 -1.4414E+08  2.6475E+06  1.2108E+07 -8.1165E+06  0.0000E+00
      23-
 mid.  surface    -1.3576E+07 -1.8310E+07 -1.6074E+08  6.3705E+06  1.4990E+07 -7.3769E+06  0.0000E+00
      52-
 mid.  surface    -1.3959E+07 -1.8467E+06 -1.6960E+08  2.8404E+06 -6.8079E+06 -1.2384E+07  0.0000E+00
      53-
 mid.  surface    -1.3059E+07  5.8719E+06 -1.1565E+08  1.1453E+07 -1.0854E+07  2.2406E+05  0.0000E+00
     124-
 mid.  surface    -3.0777E+07 -1.4441E+07 -1.9214E+08  1.1305E+07  5.4970E+06 -1.5060E+06  0.0000E+00
     125-
 mid.  surface    -2.2283E+07 -3.3550E+07 -1.3709E+08  1.8376E+07  2.8042E+07 -1.3366E+07  0.0000E+00
     148-
 mid.  surface    -1.7477E+07  1.4053E+07 -1.0486E+08 -4.7644E+06 -4.8326E+06  2.1016E+06  0.0000E+00
     164-
 mid.  surface    -1.3871E+07 -5.8678E+06 -1.6751E+08 -9.8527E+06 -8.5473E+06 -1.2186E+07  0.0000E+00



 n o d a l  s t r a i n  c a l c u l a t i o n s   f o r   t i m e  s t e p       10   ( at time 1.29245E+00 )

 node (global)
          strain       eps-xx      eps-yy      eps-zz      eps-xy      eps-yz      eps-zx       
       1-
 mid.  surface     5.3708E-04  3.8422E-04 -1.6565E-03  3.9557E-04 -1.0622E-04 -3.5226E-04
       2-
 mid.  surface     5.8645E-04  8.8444E-04 -2.4815E-03  2.5694E-04 -2.9464E-05 -1.6450E-04
       8-
 mid.  surface     2.1606E-04  8.1114E-04 -1.4849E-03 -1.0331E-04 -2.1996E-05  2.8264E-05
       9-
 mid.  surface     6.4014E-04  8.2102E-04 -2.2958E-03 -1.8807E-04 -1.0572E-04  5.6429E-05
      10-
 mid.  surface     6.4014E-04  8.9113E-04 -2.3566E-03  6.2067E-05 -1.0112E-04  1.6978E-04
      11-
 mid.  surface     6.9311E-04  6.5190E-04 -2.0473E-03  1.5464E-04 -6.7482E-04 -1.0411E-04
      12-
 mid.  surface     4.8811E-04  4.9038E-04 -1.7194E-03  9.2049E-05 -6.3048E-04 -3.0269E-04
      17-
 mid.  surface     7.3209E-04  4.8318E-04 -1.7641E-03  1.7933E-04 -2.2052E-04 -3.0614E-04
      18-
 mid.  surface     3.6866E-04  7.4773E-04 -1.6288E-03  2.1666E-04  3.7243E-05 -8.4391E-05
      19-
 mid.  surface     6.1661E-04  7.0954E-04 -2.1393E-03 -6.5749E-05 -1.2591E-04 -2.3807E-04
      20-
 mid.  surface     6.9522E-04  4.0200E-04 -1.8370E-03  1.3811E-04  9.9101E-05  2.4659E-04
      21-
 mid.  surface     5.7727E-04  6.6433E-04 -2.2063E-03 -1.1164E-04  5.4983E-05  1.6074E-04
      22-
 mid.  surface     4.5307E-04  4.0585E-04 -1.8015E-03  5.0480E-05  2.3077E-04 -1.5521E-04
      23-
 mid.  surface     6.6140E-04  5.7118E-04 -2.1471E-03  1.2156E-04  2.8587E-04 -1.4098E-04
      52-
 mid.  surface     6.1947E-04  8.5065E-04 -2.3507E-03  5.4142E-05 -1.3021E-04 -2.3663E-04
      53-
 mid.  surface     3.3788E-04  6.9906E-04 -1.6199E-03  2.1856E-04 -2.0720E-04  4.1950E-06
     124-
 mid.  surface     5.4696E-04  8.5865E-04 -2.5323E-03  2.1574E-04  1.0485E-04 -2.8791E-05
     125-
 mid.  surface     4.9687E-04  2.8181E-04 -1.6941E-03  3.5068E-04  5.3502E-04 -2.5523E-04
     148-
 mid.  surface     1.8400E-04  7.8569E-04 -1.4837E-03 -9.0921E-05 -9.2283E-05  4.0049E-05
     164-
 mid.  surface     6.3001E-04  7.8277E-04 -2.3020E-03 -1.8804E-04 -1.6330E-04 -2.3271E-04



 n o d a l  s t r e s s  c a l c u l a t i o n s   f o r   t i m e  s t e p       14   ( at time 2.54839E+00 )

 node (global)
          stress       sig-xx      sig-yy      sig-zz      sig-xy      sig-yz      sig-zx       plastic
                                                                                                 strain 
       1-
 mid.  surface    -1.7990E+06 -1.7123E+07 -2.8256E+08  4.7326E+07 -1.5032E+07 -3.6171E+07 -2.5635E-04
       2-
 mid.  surface    -9.6234E+07 -5.5786E+07 -2.9221E+08  2.5329E+07 -6.0933E+06  7.9668E+05  6.3661E-04
       8-
 mid.  surface    -1.8175E+07  4.6527E+07 -2.0260E+08 -1.1576E+07 -4.9312E+06  3.5350E+06 -8.2660E-05
       9-
 mid.  surface    -3.1688E+07 -1.1703E+07 -3.0276E+08 -2.2800E+07 -8.0356E+06  8.0271E+06  1.9288E-04
      10-
 mid.  surface    -3.9111E+07 -1.1804E+07 -2.9430E+08  5.6327E+06 -8.8545E+06  2.4606E+07  3.2521E-04
      11-
 mid.  surface    -2.2432E+06 -1.4351E+06 -2.7159E+08  1.9677E+07 -8.3943E+07 -7.2669E+06  8.7297E-05
      12-
 mid.  surface    -1.5153E+07 -1.1611E+07 -2.6644E+08  1.2585E+07 -8.2590E+07 -3.2645E+07 -1.0769E-04
      17-
 mid.  surface     1.8772E+07 -1.2546E+07 -2.1260E+08  1.9883E+07 -3.8001E+07 -2.9720E+07  1.3799E-04
      18-
 mid.  surface    -1.8440E+07  2.1657E+07 -2.0431E+08  2.3925E+07  3.6779E+06 -5.5140E+06  9.9000E-05
      19-
 mid.  surface    -5.1162E+07 -4.3433E+07 -2.4579E+08 -1.0983E+07 -2.8514E+07 -1.7044E+07  4.8272E-04
      20-
 mid.  surface    -5.0190E+06 -4.1956E+07 -2.5617E+08  1.4389E+07  2.3733E+07  2.6811E+07  7.7664E-05
      21-
 mid.  surface    -6.9949E+07 -6.5334E+07 -2.8130E+08 -1.7143E+07  2.1651E+07  2.0957E+07  4.1705E-04
      22-
 mid.  surface    -3.6343E+07 -4.0721E+07 -3.1818E+08  8.1392E+06  3.2889E+07 -2.2759E+07 -2.3185E-04
      23-
 mid.  surface    -2.4804E+07 -2.8916E+07 -3.3042E+08  1.6357E+07  3.3939E+07 -1.8071E+07 -5.4727E-05
      52-
 mid.  surface    -4.6490E+07 -2.0994E+07 -3.0818E+08  4.2978E+06 -6.2678E+06 -2.5336E+07  2.8780E-04
      53-
 mid.  surface    -2.8205E+07  9.4629E+06 -2.1815E+08  2.3383E+07 -1.5642E+07 -1.6920E+06  6.4146E-05
     124-
 mid.  surface    -1.1021E+08 -7.0569E+07 -3.1928E+08  2.0369E+07  3.1882E+07 -9.5449E+06  5.5580E-04
     125-
 mid.  surface    -2.6186E+07 -5.0240E+07 -3.1077E+08  4.2498E+07  7.4092E+07 -3.8799E+07 -2.8762E-04
     148-
 mid.  surface    -2.6893E+07  3.7378E+07 -2.1410E+08 -1.0492E+07 -1.0129E+07 -3.4139E+05 -1.0681E-04
     164-
 mid.  surface    -3.7666E+07 -2.0963E+07 -3.1767E+08 -2.2907E+07 -1.5493E+07 -2.9235E+07  1.5018E-04



 n o d a l  s t r a i n  c a l c u l a t i o n s   f o r   t i m e  s t e p       14   ( at time 2.54839E+00 )

 node (global)
          strain       eps-xx      eps-yy      eps-zz      eps-xy      eps-yz      eps-zx       
       1-
 mid.  surface     1.0618E-03  7.6512E-04 -3.2563E-03  8.6923E-04 -2.4084E-04 -6.5079E-04
       2-
 mid.  surface     1.1681E-03  1.8328E-03 -5.1087E-03  5.6399E-04 -7.2013E-05 -2.6980E-04
       8-
 mid.  surface     3.5825E-04  1.6616E-03 -2.8473E-03 -2.4523E-04 -2.9027E-05  7.0423E-05
       9-
 mid.  surface     1.3092E-03  1.6778E-03 -4.6323E-03 -4.1713E-04 -2.0747E-04  1.3348E-04
      10-
 mid.  surface     1.3135E-03  1.8499E-03 -4.8044E-03  1.4164E-04 -1.8833E-04  3.9962E-04
      11-
 mid.  surface     1.4449E-03  1.3571E-03 -4.1118E-03  3.6235E-04 -1.5041E-03 -2.1899E-04
      12-
 mid.  surface     9.7123E-04  9.9817E-04 -3.3618E-03  2.0831E-04 -1.4387E-03 -6.6020E-04
      17-
 mid.  surface     1.5202E-03  9.7736E-04 -3.4787E-03  4.2351E-04 -5.2673E-04 -6.7720E-04
      18-
 mid.  surface     6.9420E-04  1.5487E-03 -3.1976E-03  4.7194E-04  8.9219E-05 -1.6909E-04
      19-
 mid.  surface     1.2526E-03  1.4426E-03 -4.3117E-03 -1.3193E-04 -3.2969E-04 -5.3463E-04
      20-
 mid.  surface     1.4199E-03  7.8342E-04 -3.6430E-03  3.1178E-04  2.5989E-04  5.5157E-04
      21-
 mid.  surface     1.1548E-03  1.3330E-03 -4.4660E-03 -2.4852E-04  1.5991E-04  3.8246E-04
      22-
 mid.  surface     8.7871E-04  7.9673E-04 -3.5514E-03  1.0751E-04  5.4562E-04 -2.9695E-04
      23-
 mid.  surface     1.3514E-03  1.1602E-03 -4.3360E-03  2.7135E-04  6.8088E-04 -2.8208E-04
      52-
 mid.  surface     1.2579E-03  1.7417E-03 -4.7845E-03  1.1670E-04 -2.6872E-04 -5.2764E-04
      53-
 mid.  surface     6.2351E-04  1.4241E-03 -3.1719E-03  4.6642E-04 -4.6477E-04 -5.1183E-06
     124-
 mid.  surface     1.0634E-03  1.7697E-03 -5.2068E-03  4.7418E-04  2.6079E-04 -1.7227E-04
     125-
 mid.  surface     9.5764E-04  5.2459E-04 -3.3192E-03  7.7837E-04  1.2305E-03 -6.3557E-04
     148-
 mid.  surface     2.9164E-04  1.5815E-03 -2.8397E-03 -2.1964E-04 -2.0400E-04  7.0301E-05
     164-
 mid.  surface     1.2830E-03  1.5690E-03 -4.6397E-03 -4.1628E-04 -3.5661E-04 -5.3655E-04



 n o d a l  s t r e s s  c a l c u l a t i o n s   f o r   t i m e  s t e p      265   ( at time 3.47231E+00 )

 node (global)
          stress       sig-xx      sig-yy      sig-zz      sig-xy      sig-yz      sig-zx       plastic
                                                                                                 strain 
       1-
 mid.  surface     3.5205E+07  2.2815E+07 -2.6238E+08  4.3716E+07 -1.6369E+07 -1.3258E+07  2.3457E-03
       2-
 mid.  surface    -1.8014E+08 -1.2638E+08 -4.1467E+08  2.9750E+07 -9.7374E+06  6.0413E+06  5.3262E-03
       8-
 mid.  surface     2.9537E+05  4.7963E+07 -2.2025E+08 -1.9658E+07 -3.3259E+06  6.6995E+06 -5.5768E-03
       9-
 mid.  surface    -2.3332E+07 -2.7847E+07 -2.9415E+08 -2.0424E+07 -8.8711E+06  1.2313E+07  4.3307E-03
      10-
 mid.  surface    -3.2920E+07 -7.4652E+06 -2.8626E+08  5.3855E+06 -1.8620E+06  2.7073E+07  9.8269E-03
      11-
 mid.  surface     6.1862E+07  5.3140E+07 -2.2263E+08  1.8362E+07 -9.4081E+07 -1.2270E+07  5.6284E-03
      12-
 mid.  surface     3.2758E+07  3.7011E+07 -2.0837E+08  9.1109E+06 -9.2415E+07 -2.8087E+07  6.0983E-03
      17-
 mid.  surface     5.5845E+07  2.9845E+07 -1.8029E+08  2.3179E+07 -4.3093E+07 -4.2391E+07 -4.7551E-03
      18-
 mid.  surface    -7.2268E+06  4.0432E+07 -2.0672E+08  1.9691E+07  4.6274E+06 -8.9996E+06 -1.4786E-03
      19-
 mid.  surface    -9.6459E+07 -7.3494E+07 -2.8152E+08 -7.1113E+06 -3.3207E+07 -2.3175E+07  3.3733E-03
      20-
 mid.  surface    -2.9879E+07 -6.3735E+07 -2.9298E+08  1.9542E+07  1.8677E+07  2.4194E+07 -3.3954E-03
      21-
 mid.  surface    -1.7540E+08 -1.6582E+08 -3.8289E+08 -1.3562E+07  2.0715E+07  1.3691E+07  1.2851E-03
      22-
 mid.  surface    -5.9787E+07 -7.0557E+07 -3.3445E+08  5.7511E+06  3.6132E+07 -2.0419E+07  4.7880E-03
      23-
 mid.  surface    -2.6859E+07 -4.0881E+07 -3.5625E+08  1.6151E+07  3.3917E+07 -1.2097E+07  6.5973E-03
      52-
 mid.  surface    -6.1954E+07 -3.4879E+07 -3.1901E+08  6.5163E+06 -8.4846E+06 -2.6441E+07  1.2197E-02
      53-
 mid.  surface    -5.2515E+07  5.7664E+05 -2.4873E+08  2.1985E+07 -2.6747E+07 -5.9056E+06 -1.1732E-03
     124-
 mid.  surface    -2.5141E+08 -2.0810E+08 -4.7983E+08  2.5102E+07  3.1001E+07 -4.1896E+07  2.5898E-03
     125-
 mid.  surface    -5.0360E+07 -8.2757E+07 -3.3539E+08  4.1256E+07  8.3220E+07 -5.9282E+07 -1.1429E-03
     148-
 mid.  surface    -4.1991E+07  1.9804E+07 -2.5705E+08 -1.7367E+07 -2.0539E+07 -1.1922E+06 -3.0091E-03
     164-
 mid.  surface    -4.5111E+07 -4.5096E+07 -3.1925E+08 -1.8375E+07 -2.5870E+07 -3.1522E+07  7.1072E-03



 n o d a l  s t r a i n  c a l c u l a t i o n s   f o r   t i m e  s t e p      265   ( at time 3.47231E+00 )

 node (global)
          strain       eps-xx      eps-yy      eps-zz      eps-xy      eps-yz      eps-zx       
       1-
 mid.  surface     2.6843E-03  2.3851E-03 -6.0485E-03  1.6852E-03 -5.5250E-04 -5.9991E-04
       2-
 mid.  surface     2.8047E-03  4.4258E-03 -1.0663E-02  1.1739E-03 -2.1570E-04 -2.5488E-04
       8-
 mid.  surface     1.4254E-03  3.2301E-03 -5.4753E-03 -7.7412E-04 -1.2733E-05  3.0093E-04
       9-
 mid.  surface     3.2357E-03  3.1168E-03 -8.0001E-03 -7.5734E-04 -4.0383E-04  4.2465E-04
      10-
 mid.  surface     3.2317E-03  4.3124E-03 -9.1100E-03  2.6471E-04 -1.9051E-04  9.2013E-04
      11-
 mid.  surface     3.6030E-03  3.2929E-03 -7.4198E-03  7.1184E-04 -3.3731E-03 -4.6202E-04
      12-
 mid.  surface     2.4880E-03  2.7701E-03 -5.9275E-03  3.8436E-04 -3.4006E-03 -1.2959E-03
      17-
 mid.  surface     3.5669E-03  2.5607E-03 -6.5860E-03  9.4512E-04 -1.5309E-03 -1.6845E-03
      18-
 mid.  surface     1.9031E-03  3.8102E-03 -6.5451E-03  7.8998E-04  4.1850E-05 -3.6378E-04
      19-
 mid.  surface     2.9581E-03  3.6226E-03 -8.7368E-03 -1.7095E-04 -1.1485E-03 -1.3717E-03
      20-
 mid.  surface     3.2029E-03  1.8784E-03 -6.9230E-03  7.5922E-04  5.7444E-04  1.0403E-03
      21-
 mid.  surface     2.6662E-03  2.9177E-03 -9.0297E-03 -4.5014E-04  3.7107E-04  5.2429E-04
      22-
 mid.  surface     2.1465E-03  1.9461E-03 -6.3031E-03  2.1249E-04  1.2801E-03 -5.4882E-04
      23-
 mid.  surface     3.2158E-03  2.6562E-03 -7.8936E-03  5.5319E-04  1.5831E-03 -3.7765E-04
      52-
 mid.  surface     2.9678E-03  4.0531E-03 -9.0094E-03  3.0032E-04 -5.7131E-04 -1.1910E-03
      53-
 mid.  surface     1.4645E-03  3.5382E-03 -6.4373E-03  8.7765E-04 -1.3134E-03 -2.6017E-04
     124-
 mid.  surface     2.4605E-03  3.7867E-03 -1.0713E-02  1.0043E-03  6.7803E-04 -1.5191E-03
     125-
 mid.  surface     2.3815E-03  1.3777E-03 -5.9831E-03  1.5990E-03  2.8877E-03 -1.9695E-03
     148-
 mid.  surface     8.9296E-04  3.1911E-03 -5.4117E-03 -6.8649E-04 -6.9376E-04  3.5150E-06
     164-
 mid.  surface     3.0018E-03  2.9988E-03 -7.9549E-03 -6.7974E-04 -1.0310E-03 -1.2495E-03



 n o d a l  s t r e s s  c a l c u l a t i o n s   f o r   t i m e  s t e p      271   ( at time 4.93664E+00 )

 node (global)
          stress       sig-xx      sig-yy      sig-zz      sig-xy      sig-yz      sig-zx       plastic
                                                                                                 strain 
       1-
 mid.  surface     4.2220E+07  6.5910E+07 -2.5348E+08  3.6419E+07 -1.3971E+07  6.7247E+06  6.0101E-03
       2-
 mid.  surface    -3.3424E+08 -2.4588E+08 -5.6764E+08  2.5932E+07 -1.0636E+07  2.2218E+07  1.2851E-02
       8-
 mid.  surface     6.1344E+07  8.0324E+07 -1.9380E+08 -1.9053E+07  7.1826E+06  3.5867E+06 -1.2800E-03
       9-
 mid.  surface    -1.2237E+07 -3.2359E+07 -2.9993E+08 -1.8300E+07  5.3517E+06  8.7427E+06  1.0417E-02
      10-
 mid.  surface    -2.3179E+07 -1.7586E+07 -2.7836E+08  2.2587E+05 -2.1353E+06  1.8650E+07  1.7328E-02
      11-
 mid.  surface     1.4078E+08  1.2675E+08 -1.5083E+08  7.9513E+06 -1.0012E+08 -2.6953E+07  1.1110E-02
      12-
 mid.  surface     1.2019E+08  1.3572E+08 -1.0628E+08  2.0317E+06 -1.0166E+08 -3.7568E+07  1.1959E-02
      17-
 mid.  surface     1.4199E+08  1.2272E+08 -1.1331E+08  1.1966E+07 -5.4844E+07 -5.2723E+07  4.2925E-04
      18-
 mid.  surface     5.4762E+07  7.9600E+07 -1.6558E+08  9.3387E+06  2.7429E+06 -1.3936E+07  4.3129E-03
      19-
 mid.  surface    -1.2401E+08 -8.1385E+07 -2.9885E+08 -8.4649E+06 -4.9113E+07 -3.3456E+07  1.1835E-02
      20-
 mid.  surface    -1.8031E+07 -4.4863E+07 -3.0510E+08  1.0284E+07  2.6848E+07  3.0715E+07  1.2947E-03
      21-
 mid.  surface    -2.5729E+08 -2.4314E+08 -4.6992E+08 -1.3481E+07  2.8893E+07  2.5598E+07  9.0308E-03
      22-
 mid.  surface    -3.8275E+07 -4.6230E+07 -3.0980E+08  1.6693E+06  4.3869E+07 -4.7062E+06  9.8696E-03
      23-
 mid.  surface    -2.7663E+07 -4.3930E+07 -3.6703E+08  6.7893E+06  4.1590E+07  1.6702E+06  1.1282E-02
      52-
 mid.  surface    -8.6458E+07 -7.9332E+07 -3.4292E+08  1.7127E+06 -8.1611E+06 -1.8727E+07  1.9680E-02
      53-
 mid.  surface    -3.7995E+07 -7.1378E+06 -2.5530E+08  1.2311E+07 -2.5882E+07 -2.0218E+06  4.3871E-03
     124-
 mid.  surface    -4.2871E+08 -3.7597E+08 -6.6088E+08  2.2387E+07  4.3367E+07 -6.3550E+07  1.0140E-02
     125-
 mid.  surface    -6.3150E+07 -8.0161E+07 -3.4957E+08  3.7579E+07  9.5638E+07 -7.6438E+07  2.6249E-03
     148-
 mid.  surface    -3.2477E+07 -2.4758E+06 -2.7628E+08 -1.7439E+07 -3.5735E+07  3.5670E+05  1.2975E-03
     164-
 mid.  surface    -6.9594E+07 -8.7860E+07 -3.4831E+08 -1.6940E+07 -3.6978E+07 -2.5254E+07  1.3390E-02



 n o d a l  s t r a i n  c a l c u l a t i o n s   f o r   t i m e  s t e p      271   ( at time 4.93664E+00 )

 node (global)
          strain       eps-xx      eps-yy      eps-zz      eps-xy      eps-yz      eps-zx       
       1-
 mid.  surface     4.3556E-03  5.5847E-03 -1.0651E-02  2.7215E-03 -8.9143E-04 -2.5532E-04
       2-
 mid.  surface     4.4865E-03  9.1177E-03 -1.9082E-02  1.7460E-03 -2.9248E-04  2.2275E-04
       8-
 mid.  surface     4.0949E-03  5.9502E-03 -1.0314E-02 -1.3520E-03  4.6438E-04  3.9123E-04
       9-
 mid.  surface     6.8069E-03  5.7774E-03 -1.4254E-02 -1.2904E-03 -3.4337E-05  5.8660E-04
      10-
 mid.  surface     6.6814E-03  7.5405E-03 -1.5784E-02  1.7173E-04 -3.5038E-04  1.2562E-03
      11-
 mid.  surface     7.0309E-03  6.2618E-03 -1.2780E-02  8.0334E-04 -6.2978E-03 -1.4255E-03
      12-
 mid.  surface     4.8722E-03  5.9615E-03 -1.0162E-02  4.2684E-04 -6.5132E-03 -2.9461E-03
      17-
 mid.  surface     6.9349E-03  5.4616E-03 -1.1710E-02  1.1099E-03 -3.3775E-03 -3.4505E-03
      18-
 mid.  surface     4.6676E-03  6.9152E-03 -1.1760E-02  8.8858E-04 -3.3387E-05 -8.5529E-04
      19-
 mid.  surface     5.5142E-03  7.6467E-03 -1.5601E-02 -4.7628E-04 -2.7614E-03 -3.1043E-03
      20-
 mid.  surface     6.3464E-03  4.3057E-03 -1.2428E-02  8.8368E-04  1.6203E-03  2.1896E-03
      21-
 mid.  surface     5.4798E-03  6.1566E-03 -1.6284E-02 -9.1989E-04  1.1201E-03  1.5618E-03
      22-
 mid.  surface     4.6461E-03  4.4899E-03 -1.1036E-02  2.7177E-04  2.5662E-03 -1.9334E-04
      23-
 mid.  surface     6.3459E-03  5.2912E-03 -1.3756E-02  5.9044E-04  3.2362E-03 -6.6188E-05
      52-
 mid.  surface     6.1337E-03  7.0229E-03 -1.5617E-02  2.4779E-04 -1.0435E-03 -1.8545E-03
      53-
 mid.  surface     3.7586E-03  6.3649E-03 -1.1575E-02  1.0729E-03 -2.3199E-03 -3.7066E-04
     124-
 mid.  surface     4.5577E-03  7.5701E-03 -1.9116E-02  1.4842E-03  1.6310E-03 -3.6081E-03
     125-
 mid.  surface     4.4957E-03  3.5783E-03 -1.0424E-02  2.7384E-03  5.4912E-03 -4.2197E-03
     148-
 mid.  surface     2.9842E-03  5.6082E-03 -1.0087E-02 -1.2258E-03 -2.0143E-03  1.6676E-05
     164-
 mid.  surface     6.2528E-03  5.3288E-03 -1.4020E-02 -1.1822E-03 -2.4193E-03 -2.0068E-03



 n o d a l  s t r e s s  c a l c u l a t i o n s   f o r   t i m e  s t e p      277   ( at time 7.25743E+00 )

 node (global)
          stress       sig-xx      sig-yy      sig-zz      sig-xy      sig-yz      sig-zx       plastic
                                                                                                 strain 
       1-
 mid.  surface     4.6814E+07  8.1410E+07 -2.4450E+08  2.4578E+07 -1.1673E+07  2.9383E+07  1.4213E-02
       2-
 mid.  surface    -5.3252E+08 -4.5731E+08 -7.8761E+08  2.0974E+07 -1.0983E+07  3.4095E+07  2.4966E-02
       8-
 mid.  surface     1.0406E+08  1.0994E+08 -1.6672E+08 -1.8531E+07  7.4838E+06  3.3026E+06  6.9870E-03
       9-
 mid.  surface    -3.6691E+07 -6.2525E+07 -3.3221E+08 -1.3988E+07  4.9201E+06  7.3690E+06  2.0663E-02
      10-
 mid.  surface    -2.0535E+07 -2.2583E+07 -2.7993E+08  1.6216E+06 -1.5012E+07  9.9715E+06  2.9546E-02
      11-
 mid.  surface     2.4554E+08  2.2696E+08 -5.0880E+07  6.9348E+06 -9.7041E+07 -3.0753E+07  2.0846E-02
      12-
 mid.  surface     2.5598E+08  2.7539E+08  2.5729E+07  2.0667E+06 -9.7774E+07 -3.9779E+07  2.2109E-02
      17-
 mid.  surface     2.5580E+08  2.4695E+08 -6.5254E+06  1.0947E+07 -6.3673E+07 -5.3450E+07  1.0348E-02
      18-
 mid.  surface     1.3021E+08  1.5156E+08 -1.0026E+08  5.4313E+06 -9.5691E+06 -1.5843E+07  1.4655E-02
      19-
 mid.  surface    -1.4750E+08 -1.0519E+08 -3.4129E+08 -1.3635E+06 -5.9918E+07 -4.0912E+07  2.5236E-02
      20-
 mid.  surface    -2.4606E+07 -4.2902E+07 -3.2454E+08  7.0255E+06  3.1688E+07  3.0009E+07  1.0017E-02
      21-
 mid.  surface    -3.8885E+08 -3.8099E+08 -6.2500E+08 -7.7425E+06  3.2851E+07  2.4543E+07  2.1364E-02
      22-
 mid.  surface    -3.0590E+07 -3.5319E+07 -3.0331E+08  2.6406E+06  4.6429E+07  5.1919E+06  1.8948E-02
      23-
 mid.  surface    -6.0795E+07 -7.8400E+07 -4.0030E+08  3.6976E+06  4.5309E+07  1.0590E+07  1.9686E-02
      52-
 mid.  surface    -1.5325E+08 -1.5538E+08 -4.2117E+08 -2.2886E+05  9.9787E+05 -1.3061E+07  3.1413E-02
      53-
 mid.  surface    -4.4353E+07 -1.9732E+07 -2.7864E+08  4.9205E+06 -1.2148E+07  1.1243E+06  1.4152E-02
     124-
 mid.  surface    -6.9933E+08 -6.6620E+08 -9.4749E+08  1.6955E+07  4.9973E+07 -7.9958E+07  2.2618E-02
     125-
 mid.  surface    -1.2244E+08 -1.3441E+08 -4.0500E+08  2.8307E+07  9.5122E+07 -7.8434E+07  1.1090E-02
     148-
 mid.  surface    -5.5782E+07 -3.9364E+07 -3.1621E+08 -1.7320E+07 -3.3105E+07  2.6694E+06  9.3488E-03
     164-
 mid.  surface    -1.3695E+08 -1.6054E+08 -4.2467E+08 -1.3092E+07 -3.5520E+07 -1.8397E+07  2.3559E-02



 n o d a l  s t r a i n  c a l c u l a t i o n s   f o r   t i m e  s t e p      277   ( at time 7.25743E+00 )

 node (global)
          strain       eps-xx      eps-yy      eps-zz      eps-xy      eps-yz      eps-zx       
       1-
 mid.  surface     8.0165E-03  1.1239E-02 -1.9867E-02  3.7763E-03 -1.3602E-03  9.7061E-04
       2-
 mid.  surface     8.0445E-03  1.5932E-02 -3.2494E-02  2.5366E-03 -3.8067E-04  1.3488E-03
       8-
 mid.  surface     8.4426E-03  1.0398E-02 -1.8689E-02 -2.2712E-03  9.3131E-04  6.0378E-04
       9-
 mid.  surface     1.2508E-02  1.0039E-02 -2.4703E-02 -1.9225E-03  1.1860E-04  8.5998E-04
      10-
 mid.  surface     1.2326E-02  1.2905E-02 -2.6900E-02  2.7344E-04 -1.4711E-03  1.4466E-03
      11-
 mid.  surface     1.2937E-02  1.1215E-02 -2.2271E-02  1.2139E-03 -1.0831E-02 -2.9292E-03
      12-
 mid.  surface     9.2097E-03  1.1433E-02 -1.8103E-02  6.8334E-04 -1.1219E-02 -5.5604E-03
      17-
 mid.  surface     1.2372E-02  1.0684E-02 -2.0807E-02  1.6876E-03 -6.5531E-03 -6.0454E-03
      18-
 mid.  surface     9.0678E-03  1.2393E-02 -2.0691E-02  1.1209E-03 -8.2365E-04 -1.6365E-03
      19-
 mid.  surface     9.8857E-03  1.3979E-02 -2.6820E-02 -3.9851E-04 -5.6053E-03 -5.8666E-03
      20-
 mid.  surface     1.1465E-02  8.6542E-03 -2.2083E-02  1.1624E-03  3.4585E-03  3.8687E-03
      21-
 mid.  surface     1.0211E-02  1.1127E-02 -2.8095E-02 -1.2676E-03  2.4412E-03  3.0548E-03
      22-
 mid.  surface     9.0015E-03  8.8846E-03 -1.9742E-02  5.2095E-04  4.4996E-03  5.3450E-04
      23-
 mid.  surface     1.1614E-02  9.6679E-03 -2.3956E-02  7.0321E-04  5.7822E-03  6.0476E-04
      52-
 mid.  surface     1.1335E-02  1.1871E-02 -2.6799E-02  1.5919E-04 -1.2473E-03 -2.7808E-03
      53-
 mid.  surface     7.5091E-03  1.1292E-02 -2.0508E-02  1.1783E-03 -3.0045E-03 -4.0955E-04
     124-
 mid.  surface     8.5155E-03  1.2873E-02 -3.2481E-02  2.0614E-03  3.3857E-03 -7.6130E-03
     125-
 mid.  surface     8.6609E-03  7.4890E-03 -1.9348E-02  4.0409E-03  9.4563E-03 -8.0064E-03
     148-
 mid.  surface     6.5228E-03  9.7672E-03 -1.8304E-02 -2.0984E-03 -3.6154E-03  1.6971E-04
     164-
 mid.  surface     1.1504E-02  9.2382E-03 -2.4283E-02 -1.7838E-03 -4.3497E-03 -2.9753E-03



 n o d a l  s t r e s s  c a l c u l a t i o n s   f o r   t i m e  s t e p      288   ( at time 1.09356E+01 )

 node (global)
          stress       sig-xx      sig-yy      sig-zz      sig-xy      sig-yz      sig-zx       plastic
                                                                                                 strain 
       1-
 mid.  surface    -8.8219E+07 -2.0194E+07 -3.5518E+08  3.9556E+07 -3.3478E+07  1.4951E+08  2.5096E-02
       2-
 mid.  surface    -1.1064E+09 -1.0352E+09 -1.3856E+09  3.8111E+07 -3.9133E+07  1.6802E+08  3.9791E-02
       8-
 mid.  surface     4.2532E+07  7.3787E+07 -1.5717E+08 -1.1242E+07 -1.5604E+07 -7.4930E+06  2.3146E-02
       9-
 mid.  surface    -2.0112E+08 -2.0975E+08 -4.2904E+08 -1.6751E+07  2.2663E+06 -3.1727E+06  4.0520E-02
      10-
 mid.  surface    -9.8546E+07 -1.4285E+08 -3.1553E+08  9.6367E+06 -8.1703E+07 -1.4045E+07  4.8517E-02
      11-
 mid.  surface     4.0651E+08  3.8959E+08  1.2076E+08  2.1768E+07 -1.5831E+08 -5.1914E+07  3.3833E-02
      12-
 mid.  surface     4.8377E+08  5.1696E+08  3.5218E+08  8.6033E+05 -1.5987E+08 -4.4779E+07  4.0670E-02
      17-
 mid.  surface     3.8136E+08  3.8344E+08  1.3217E+08  2.4508E+07 -1.6367E+08 -7.0215E+07  2.4799E-02
      18-
 mid.  surface     1.3652E+08  1.4079E+08 -4.8486E+07  8.7089E+06 -8.1303E+07 -3.1065E+07  3.1464E-02
      19-
 mid.  surface    -3.0815E+08 -2.8102E+08 -4.5073E+08  7.6046E+06 -1.5055E+08 -4.5399E+07  4.6527E-02
      20-
 mid.  surface     1.8620E+07  9.5472E+06 -3.1568E+08  2.5835E+07  8.8354E+07  7.1966E+07  2.0923E-02
      21-
 mid.  surface    -6.3681E+08 -6.5177E+08 -8.3205E+08  4.6123E+06  1.1343E+08  4.8379E+07  4.2109E-02
      22-
 mid.  surface     9.8852E+07  1.0125E+08 -9.9686E+07  1.9190E+06  1.2869E+08  2.9801E+07  3.6156E-02
      23-
 mid.  surface    -2.5698E+07 -4.2548E+07 -3.8086E+08  2.1409E+07  1.1348E+08  6.6480E+07  3.0993E-02
      52-
 mid.  surface    -3.4309E+08 -3.7971E+08 -5.8851E+08 -9.6759E+05  6.8316E+07  1.5249E+07  4.9336E-02
      53-
 mid.  surface    -1.1123E+08 -9.9502E+07 -3.1561E+08 -3.3628E+06  6.1951E+07  2.7923E+07  3.0180E-02
     124-
 mid.  surface    -1.3335E+09 -1.3070E+09 -1.5665E+09  1.3169E+07  1.6613E+08 -1.8573E+08  3.9713E-02
     125-
 mid.  surface    -2.9102E+08 -2.7778E+08 -5.1249E+08  1.8636E+07  2.1109E+08 -1.7912E+08  2.4003E-02
     148-
 mid.  surface    -1.3596E+08 -1.0056E+08 -3.3536E+08 -8.4740E+06 -1.0679E+07  1.5969E+07  2.5372E-02
     164-
 mid.  surface    -3.2519E+08 -3.3031E+08 -5.5141E+08 -1.2688E+07  7.9926E+06  3.3775E+06  4.3451E-02



 n o d a l  s t r a i n  c a l c u l a t i o n s   f o r   t i m e  s t e p      288   ( at time 1.09356E+01 )

 node (global)
          strain       eps-xx      eps-yy      eps-zz      eps-xy      eps-yz      eps-zx       
       1-
 mid.  surface     1.1365E-02  1.8885E-02 -3.2317E-02  6.1577E-03 -2.7037E-03  8.6745E-03
       2-
 mid.  surface     1.1394E-02  2.2753E-02 -5.0710E-02  3.9517E-03 -5.8589E-04  1.0158E-02
       8-
 mid.  surface     1.3158E-02  1.7595E-02 -3.1127E-02 -2.7858E-03  3.8109E-04  1.2142E-05
       9-
 mid.  surface     1.9772E-02  1.7265E-02 -4.1303E-02 -3.1593E-03  5.6488E-04  3.8506E-04
      10-
 mid.  surface     2.0053E-02  1.6769E-02 -3.9737E-02  1.2394E-03 -7.2925E-03  1.2271E-04
      11-
 mid.  surface     2.0619E-02  1.8081E-02 -3.4685E-02  3.1963E-03 -2.0950E-02 -6.6180E-03
      12-
 mid.  surface     1.4276E-02  1.8488E-02 -2.6539E-02  1.5071E-03 -2.0303E-02 -1.0895E-02
      17-
 mid.  surface     1.9285E-02  1.8151E-02 -3.3494E-02  3.4641E-03 -1.6408E-02 -1.0623E-02
      18-
 mid.  surface     1.4499E-02  1.7661E-02 -3.1259E-02  2.0526E-03 -5.5242E-03 -3.3913E-03
      19-
 mid.  surface     1.5142E-02  1.9848E-02 -4.0111E-02  2.7174E-04 -1.2356E-02 -1.0365E-02
      20-
 mid.  surface     1.9041E-02  1.5807E-02 -3.6477E-02  2.8926E-03  1.1928E-02  9.3650E-03
      21-
 mid.  surface     1.6767E-02  1.6088E-02 -4.3237E-02 -6.2313E-04  8.5295E-03  8.7980E-03
      22-
 mid.  surface     1.5138E-02  1.5499E-02 -3.0437E-02  1.5209E-03  9.8295E-03  4.5205E-03
      23-
 mid.  surface     1.9608E-02  1.6522E-02 -3.8589E-02  2.3092E-03  1.4934E-02  5.5296E-03
      52-
 mid.  surface     1.8573E-02  1.5605E-02 -4.0614E-02  3.7515E-05  2.7376E-03 -2.2473E-03
      53-
 mid.  surface     1.2561E-02  1.6453E-02 -3.1664E-02  9.0053E-04  1.6079E-03  1.3503E-03
     124-
 mid.  surface     1.2055E-02  1.8507E-02 -5.0682E-02  2.0837E-03  8.8696E-03 -1.7194E-02
     125-
 mid.  surface     1.2493E-02  1.3190E-02 -3.0938E-02  5.0779E-03  1.7450E-02 -1.8234E-02
     148-
 mid.  surface     1.1074E-02  1.6680E-02 -3.0598E-02 -2.3906E-03 -4.9245E-03  1.3710E-03
     164-
 mid.  surface     1.8567E-02  1.6265E-02 -4.0825E-02 -2.6903E-03 -4.2675E-03 -2.6256E-03



 n o d a l  s t r e s s  c a l c u l a t i o n s   f o r   t i m e  s t e p      294   ( at time 1.46139E+01 )

 node (global)
          stress       sig-xx      sig-yy      sig-zz      sig-xy      sig-yz      sig-zx       plastic
                                                                                                 strain 
       1-
 mid.  surface    -4.3341E+07  1.5306E+07 -3.0649E+08  1.2255E+07 -2.3782E+07  9.7210E+07  3.6932E-02
       2-
 mid.  surface    -1.5104E+09 -1.4427E+09 -1.7825E+09  2.3515E+07 -3.3899E+07  1.0850E+08  5.4779E-02
       8-
 mid.  surface     1.1615E+08  1.3886E+08 -1.0285E+08 -6.5203E+06 -2.4705E+07 -6.3116E+06  4.1281E-02
       9-
 mid.  surface    -2.9840E+08 -3.0341E+08 -5.4355E+08 -1.2185E+07 -9.3944E+06 -2.6916E+06  6.1264E-02
      10-
 mid.  surface    -9.0241E+07 -1.3208E+08 -3.5581E+08  5.0277E+06 -8.7059E+07 -9.1236E+06  6.4709E-02
      11-
 mid.  surface     5.0681E+08  4.8995E+08  2.2020E+08  1.3607E+07 -1.2155E+08 -3.4933E+07  4.8506E-02
      12-
 mid.  surface     6.9675E+08  7.2013E+08  4.8981E+08 -2.5151E+06 -1.3086E+08 -2.9106E+07  5.5293E-02
      17-
 mid.  surface     4.4515E+08  4.5610E+08  2.0759E+08  1.6177E+07 -1.4240E+08 -5.3652E+07  4.1485E-02
      18-
 mid.  surface     2.2894E+08  2.2638E+08 -4.8379E+06  1.4964E+06 -8.9802E+07 -2.0759E+07  4.6729E-02
      19-
 mid.  surface    -4.2893E+08 -3.9622E+08 -6.3276E+08  1.3631E+07 -1.3823E+08 -3.6298E+07  6.3444E-02
      20-
 mid.  surface     2.5706E+07  3.9122E+07 -2.8276E+08  2.1532E+07  7.4311E+07  3.7109E+07  3.4710E-02
      21-
 mid.  surface    -8.0189E+08 -8.1848E+08 -1.0643E+09  9.4986E+06  8.5060E+07  2.9915E+07  5.8185E-02
      22-
 mid.  surface     2.6474E+08  2.5546E+08  4.9934E+06 -9.3034E+05  1.0752E+08  2.5790E+07  5.0466E-02
      23-
 mid.  surface    -2.3292E+07 -3.5766E+07 -3.5416E+08  1.7163E+07  1.1206E+08  3.8722E+07  4.5177E-02
      52-
 mid.  surface    -4.8327E+08 -5.2161E+08 -7.7608E+08  8.6789E+05  5.7010E+07  8.0838E+06  6.4532E-02
      53-
 mid.  surface    -1.5932E+08 -1.5195E+08 -4.0656E+08 -5.6844E+06  4.8941E+07  1.7441E+07  4.4687E-02
     124-
 mid.  surface    -1.7960E+09 -1.7900E+09 -2.0433E+09  3.8402E+06  1.5020E+08 -1.2894E+08  5.6673E-02
     125-
 mid.  surface    -2.6650E+08 -2.6781E+08 -4.9165E+08  2.5926E+06  1.8364E+08 -1.2490E+08  3.8524E-02
     148-
 mid.  surface    -1.8577E+08 -1.5791E+08 -4.0466E+08 -3.4267E+06 -1.3442E+06  1.0593E+07  4.2987E-02
     164-
 mid.  surface    -5.4625E+08 -5.4724E+08 -7.8824E+08 -7.4486E+06  1.5097E+07  2.6698E+06  6.4069E-02



 n o d a l  s t r a i n  c a l c u l a t i o n s   f o r   t i m e  s t e p      294   ( at time 1.46139E+01 )

 node (global)
          strain       eps-xx      eps-yy      eps-zz      eps-xy      eps-yz      eps-zx       
       1-
 mid.  surface     1.5605E-02  2.6813E-02 -4.3739E-02  6.8785E-03 -3.0193E-03  1.1943E-02
       2-
 mid.  surface     1.5072E-02  3.0084E-02 -6.7315E-02  4.6949E-03  4.2692E-05  1.4041E-02
       8-
 mid.  surface     2.0164E-02  2.6450E-02 -4.6235E-02 -3.1543E-03 -1.5585E-03 -4.8978E-04
       9-
 mid.  surface     2.8265E-02  2.5629E-02 -5.9831E-02 -4.0340E-03 -1.0971E-03 -4.7944E-05
      10-
 mid.  surface     2.8333E-02  2.2414E-02 -5.3903E-02  1.7965E-03 -1.3372E-02 -6.6630E-04
      11-
 mid.  surface     2.8496E-02  2.4937E-02 -4.8154E-02  4.2879E-03 -2.7612E-02 -8.4469E-03
      12-
 mid.  surface     2.0318E-02  2.5684E-02 -3.7227E-02  1.9256E-03 -2.6633E-02 -1.3405E-02
      17-
 mid.  surface     2.6375E-02  2.6138E-02 -4.7761E-02  4.4677E-03 -2.3147E-02 -1.3072E-02
      18-
 mid.  surface     2.1443E-02  2.4743E-02 -4.4355E-02  2.4747E-03 -1.0595E-02 -4.4603E-03
      19-
 mid.  surface     2.0645E-02  2.6785E-02 -5.4625E-02  1.2136E-03 -1.7318E-02 -1.2663E-02
      20-
 mid.  surface     2.6013E-02  2.3932E-02 -5.1435E-02  4.0436E-03  1.7493E-02  1.1427E-02
      21-
 mid.  surface     2.3864E-02  2.1922E-02 -5.9055E-02 -3.1222E-04  1.1663E-02  1.0904E-02
      22-
 mid.  surface     2.2398E-02  2.2312E-02 -4.2684E-02  1.7087E-03  1.2289E-02  5.9525E-03
      23-
 mid.  surface     2.7385E-02  2.3173E-02 -5.3047E-02  3.2408E-03  2.1253E-02  7.0757E-03
      52-
 mid.  surface     2.6226E-02  2.0395E-02 -5.5410E-02  1.5341E-04  5.3607E-03 -2.2466E-03
      53-
 mid.  surface     1.8458E-02  2.2941E-02 -4.5082E-02  6.4226E-04  5.1335E-03  2.3496E-03
     124-
 mid.  surface     1.7116E-02  2.4326E-02 -6.8422E-02  1.6801E-03  1.4257E-02 -2.2769E-02
     125-
 mid.  surface     1.8132E-02  1.9713E-02 -4.2957E-02  5.3578E-03  2.3839E-02 -2.4201E-02
     148-
 mid.  surface     1.7089E-02  2.4707E-02 -4.5606E-02 -2.5520E-03 -5.8652E-03  1.9896E-03
     164-
 mid.  surface     2.6184E-02  2.3851E-02 -5.9430E-02 -3.2331E-03 -4.4373E-03 -2.7463E-03



 n o d a l  s t r e s s  c a l c u l a t i o n s   f o r   t i m e  s t e p      300   ( at time 1.96139E+01 )

 node (global)
          stress       sig-xx      sig-yy      sig-zz      sig-xy      sig-yz      sig-zx       plastic
                                                                                                 strain 
       1-
 mid.  surface    -2.6156E+09 -2.5782E+09 -1.5850E+09 -1.0753E+07  1.5333E+08  3.6745E+07 -2.4098E-02
       2-
 mid.  surface    -4.7553E+09 -4.7324E+09 -3.7364E+09 -6.1772E+06  1.5969E+08  1.0802E+08 -1.6888E-03
       8-
 mid.  surface     2.1615E+08  2.4281E+08 -5.9347E+06 -2.7136E+06 -2.8030E+07 -7.9041E+06  6.6423E-02
       9-
 mid.  surface    -4.2588E+08 -4.2061E+08 -6.7152E+08 -9.3997E+06 -1.6808E+07 -5.5847E+06  8.9675E-02
      10-
 mid.  surface    -4.0497E+07 -8.2853E+07 -3.3508E+08  4.7938E+06 -9.7520E+07 -1.3682E+07  8.5050E-02
      11-
 mid.  surface     4.7328E+08  4.6820E+08  1.7145E+08 -5.5623E+05 -8.6839E+07 -1.0003E+07  6.7335E-02
      12-
 mid.  surface    -5.6736E+08 -5.4202E+08 -1.4165E+08 -1.6605E+07 -1.6859E+07 -3.4889E+07  3.7077E-02
      17-
 mid.  surface     3.8350E+08  4.1231E+08  1.3722E+08 -5.0615E+05 -1.3140E+08 -5.0112E+07  6.3581E-02
      18-
 mid.  surface     3.4925E+08  3.4645E+08  8.3869E+07 -3.5007E+05 -1.0027E+08 -2.0829E+07  6.5973E-02
      19-
 mid.  surface    -2.1121E+09 -2.0900E+09 -1.6924E+09 -5.1417E+06 -3.0989E+07 -3.9746E+07  4.7776E-02
      20-
 mid.  surface     2.4950E+08  2.5884E+08 -5.4942E+07  3.0275E+07  6.5186E+07  1.8485E+07  5.6452E-02
      21-
 mid.  surface     7.0228E+08  6.8589E+08 -2.9488E+08  3.9273E+07 -4.4189E+07  2.2979E+07  1.2558E-01
      22-
 mid.  surface     2.2022E+09  2.1867E+09  1.2040E+09  2.1702E+07 -2.1987E+07  1.9885E+07  1.1532E-01
      23-
 mid.  surface     1.7879E+08  1.5102E+08 -1.4248E+08  2.3885E+07  1.2366E+08  4.3224E+07  6.8289E-02
      52-
 mid.  surface    -6.2773E+08 -6.7104E+08 -9.5121E+08 -1.6832E+06  5.8528E+07  3.9850E+06  8.3674E-02
      53-
 mid.  surface    -2.1513E+08 -2.1669E+08 -4.9630E+08 -8.3212E+06  5.0653E+07  1.5667E+07  6.3151E-02
     124-
 mid.  surface     7.4257E+08  7.4823E+08 -9.6265E+08  1.5694E+07 -7.4537E+07 -5.0715E+07  1.6529E-01
     125-
 mid.  surface     2.9003E+09  2.9100E+09  1.2300E+09  9.6377E+06 -6.5438E+07 -1.1045E+08  1.4447E-01
     148-
 mid.  surface    -2.4656E+08 -2.2140E+08 -4.7432E+08 -2.5502E+06  8.4409E+06  1.1513E+07  6.7258E-02
     164-
 mid.  surface    -8.5925E+08 -8.5413E+08 -1.1048E+09 -9.1177E+06  2.1470E+07  3.9298E+06  9.2187E-02



 n o d a l  s t r a i n  c a l c u l a t i o n s   f o r   t i m e  s t e p      300   ( at time 1.96139E+01 )

 node (global)
          strain       eps-xx      eps-yy      eps-zz      eps-xy      eps-yz      eps-zx       
       1-
 mid.  surface     2.7584E-02  3.8572E-02 -5.9858E-02  9.2732E-03 -4.8431E-03  1.3285E-02
       2-
 mid.  surface     2.6693E-02  3.9609E-02 -9.0590E-02  6.3170E-03  7.1104E-04  2.1093E-02
       8-
 mid.  surface     2.9454E-02  3.9310E-02 -6.7257E-02 -3.2943E-03 -3.4982E-03 -1.3155E-03
       9-
 mid.  surface     3.9165E-02  3.7697E-02 -8.4979E-02 -4.9125E-03 -3.4160E-03 -9.9099E-04
      10-
 mid.  surface     3.9411E-02  3.0161E-02 -7.2418E-02  2.7224E-03 -2.1450E-02 -1.9650E-03
      11-
 mid.  surface     3.7645E-02  3.4215E-02 -6.7346E-02  4.2846E-03 -3.4610E-02 -8.7030E-03
      12-
 mid.  surface     3.0684E-02  3.5880E-02 -5.3930E-02  2.4013E-03 -3.4028E-02 -1.6346E-02
      17-
 mid.  surface     3.4397E-02  3.7489E-02 -6.8316E-02  4.0953E-03 -3.1791E-02 -1.5916E-02
      18-
 mid.  surface     3.0626E-02  3.4591E-02 -6.2041E-02  3.1302E-03 -1.6772E-02 -5.7386E-03
      19-
 mid.  surface     3.0678E-02  3.6057E-02 -7.6234E-02  1.7390E-03 -2.3105E-02 -1.5372E-02
      20-
 mid.  surface     3.7660E-02  3.6314E-02 -7.2654E-02  6.8527E-03  2.3417E-02  1.2825E-02
      21-
 mid.  surface     3.3889E-02  3.2145E-02 -8.2547E-02  1.7755E-03  1.4997E-02  1.2885E-02
      22-
 mid.  surface     3.3261E-02  3.3181E-02 -6.1452E-02  2.9448E-03  1.4523E-02  7.3847E-03
      23-
 mid.  surface     4.0668E-02  3.2992E-02 -7.3696E-02  5.4763E-03  2.9602E-02  9.7049E-03
      52-
 mid.  surface     3.6764E-02  2.6550E-02 -7.4555E-02 -2.4510E-05  8.4277E-03 -2.5648E-03
      53-
 mid.  surface     2.6873E-02  3.1254E-02 -6.3042E-02  1.0325E-04  1.0479E-02  3.7317E-03
     124-
 mid.  surface     2.0354E-02  3.4024E-02 -9.3813E-02 -3.6021E-04  2.0897E-02 -2.6948E-02
     125-
 mid.  surface     2.2181E-02  3.0217E-02 -6.0807E-02  3.6893E-03  3.0259E-02 -3.3879E-02
     148-
 mid.  surface     2.5511E-02  3.5899E-02 -6.6373E-02 -2.7590E-03 -6.8654E-03  2.9980E-03
     164-
 mid.  surface     3.6089E-02  3.4367E-02 -8.4664E-02 -4.2214E-03 -4.8991E-03 -2.8641E-03



 n o d a l  s t r e s s  c a l c u l a t i o n s   f o r   t i m e  s t e p      314   ( at time 2.46139E+01 )

 node (global)
          stress       sig-xx      sig-yy      sig-zz      sig-xy      sig-yz      sig-zx       plastic
                                                                                                 strain 
       1-
 mid.  surface    -2.3207E+09 -2.4092E+09 -1.6931E+09  8.2361E+06  8.1456E+07  6.2156E+07 -6.2630E-02
       2-
 mid.  surface    -3.8896E+09 -3.9789E+09 -3.5071E+09  5.5225E+07  7.3608E+07  5.4273E+07 -3.2098E-02
       8-
 mid.  surface     9.6918E+07  8.1430E+07 -1.2965E+08 -2.9823E+06 -8.0779E+07  5.9431E+06  9.5468E-02
       9-
 mid.  surface    -2.1889E+08 -2.1609E+08 -4.7673E+08  1.2765E+07 -1.1899E+08 -1.3199E+07  1.1156E-01
      10-
 mid.  surface     2.5702E+07 -4.9265E+06 -3.0497E+08 -2.3218E+07 -1.0607E+08 -1.3118E+07  1.0176E-01
      11-
 mid.  surface     4.2090E+08  3.5531E+08  1.1267E+08 -2.0520E+07 -5.7511E+07 -7.5668E+06  9.1347E-02
      12-
 mid.  surface    -1.1849E+09 -1.1682E+09 -5.5764E+08  4.3011E+06  4.0092E+06 -2.0222E+07 -1.2151E-02
      17-
 mid.  surface     1.2645E+08  1.1390E+08 -1.3204E+08 -2.0129E+07 -1.1047E+08 -4.0911E+07  9.2791E-02
      18-
 mid.  surface     2.9203E+08  2.9166E+08  5.4314E+06 -2.9510E+07 -1.2733E+08 -5.9963E+06  8.6538E-02
      19-
 mid.  surface    -2.2523E+09 -2.2179E+09 -2.0409E+09  3.2060E+07 -3.3873E+07 -1.4413E+07  3.4932E-02
      20-
 mid.  surface     2.8791E+08  3.2471E+08  6.5388E+06  1.5511E+07  3.5448E+07 -3.1149E+06  8.4889E-02
      21-
 mid.  surface     4.2527E+08  5.0219E+08 -3.7993E+08 -1.5521E+07 -1.3764E+07 -6.3538E+06  1.8618E-01
      22-
 mid.  surface     1.4779E+09  1.5526E+09  1.0746E+09 -3.0150E+07  1.0199E+07 -2.8724E+06  1.4579E-01
      23-
 mid.  surface     3.8090E+08  3.6853E+08  8.6623E+07  9.6240E+06  9.2256E+07  3.0155E+07  9.5739E-02
      52-
 mid.  surface    -4.2180E+08 -4.3272E+08 -7.5757E+08 -1.3799E+07  1.0892E+08  5.0986E+06  1.0361E-01
      53-
 mid.  surface    -1.5893E+08 -1.5819E+08 -4.6173E+08 -5.6965E+06  7.4883E+07  1.8358E+07  8.5269E-02
     124-
 mid.  surface     2.0308E+09  2.0851E+09 -1.5367E+08 -4.8033E+07 -3.7157E+07 -4.9873E+07  3.3423E-01
     125-
 mid.  surface     2.6808E+09  2.7663E+09  1.3774E+09 -8.0854E+07 -3.9461E+07 -6.1464E+07  2.5231E-01
     148-
 mid.  surface    -5.5171E+08 -6.1828E+08 -8.1163E+08 -8.8599E+06  9.8170E+07  2.3154E+07  9.6785E-02
     164-
 mid.  surface    -9.5808E+08 -9.8699E+08 -1.2436E+09 -1.3378E+07  8.2396E+07  6.6393E+05  1.1438E-01



 n o d a l  s t r a i n  c a l c u l a t i o n s   f o r   t i m e  s t e p      314   ( at time 2.46139E+01 )

 node (global)
          strain       eps-xx      eps-yy      eps-zz      eps-xy      eps-yz      eps-zx       
       1-
 mid.  surface     4.3128E-02  5.2862E-02 -8.9600E-02  3.5397E-03 -4.7886E-03  2.0161E-02
       2-
 mid.  surface     4.1021E-02  5.1706E-02 -1.1453E-01  5.1826E-03  8.9678E-04  2.5541E-02
       8-
 mid.  surface     4.0563E-02  5.1260E-02 -9.2417E-02 -3.5863E-03 -8.1936E-03 -1.2623E-03
       9-
 mid.  surface     4.8274E-02  4.7776E-02 -1.0154E-01 -2.7385E-03 -1.3701E-02 -2.4284E-03
      10-
 mid.  surface     4.9856E-02  3.7464E-02 -8.9595E-02  3.5252E-04 -3.0364E-02 -1.9635E-03
      11-
 mid.  surface     5.1679E-02  4.0809E-02 -8.9381E-02  2.3787E-03 -3.8057E-02 -8.9731E-03
      12-
 mid.  surface     3.7847E-02  5.0108E-02 -7.3721E-02  1.4623E-03 -3.6505E-02 -1.5935E-02
      17-
 mid.  surface     4.6714E-02  4.7443E-02 -9.5014E-02  1.4675E-03 -3.7305E-02 -1.7686E-02
      18-
 mid.  surface     4.0047E-02  4.5219E-02 -8.3210E-02 -3.8754E-04 -2.5430E-02 -4.9357E-03
      19-
 mid.  surface     3.6344E-02  5.0656E-02 -1.0009E-01  2.2398E-03 -2.7770E-02 -1.4763E-02
      20-
 mid.  surface     4.9208E-02  5.1695E-02 -9.9365E-02  7.5973E-03  2.7424E-02  1.1958E-02
      21-
 mid.  surface     4.2393E-02  4.4928E-02 -1.0628E-01  2.3744E-03  1.6684E-02  1.1853E-02
      22-
 mid.  surface     4.2229E-02  4.6857E-02 -8.1974E-02  3.6658E-03  1.6977E-02  7.4349E-03
      23-
 mid.  surface     5.4045E-02  4.5047E-02 -9.6569E-02  5.7977E-03  3.5033E-02  1.2037E-02
      52-
 mid.  surface     4.8418E-02  3.6342E-02 -9.3374E-02 -1.5104E-03  1.4788E-02 -3.5953E-03
      53-
 mid.  surface     3.7783E-02  4.2672E-02 -8.5088E-02 -6.1727E-04  1.8698E-02  5.2943E-03
     124-
 mid.  surface     3.2315E-02  4.2321E-02 -1.1748E-01 -6.2553E-04  2.6752E-02 -3.8329E-02
     125-
 mid.  surface     3.6508E-02  4.4555E-02 -9.0229E-02  1.6076E-03  3.3464E-02 -4.0112E-02
     148-
 mid.  surface     3.9130E-02  4.2870E-02 -9.2292E-02 -4.0846E-03  2.4837E-03  4.4784E-03
     164-
 mid.  surface     4.6360E-02  3.9971E-02 -1.0270E-01 -5.5506E-03 -2.2596E-03 -3.3567E-03



 n o d a l  s t r e s s  c a l c u l a t i o n s   f o r   t i m e  s t e p      329   ( at time 2.96139E+01 )

 node (global)
          stress       sig-xx      sig-yy      sig-zz      sig-xy      sig-yz      sig-zx       plastic
                                                                                                 strain 
       1-
 mid.  surface    -2.4254E+09 -2.5802E+09 -1.8348E+09  3.2315E+07  3.8490E+07 -1.9530E+07 -1.0322E-01
       2-
 mid.  surface    -4.4550E+09 -4.5693E+09 -4.0628E+09  3.5503E+07  4.4630E+07  4.7644E+07 -4.9874E-02
       8-
 mid.  surface    -1.2932E+08 -2.0500E+08 -4.1369E+08 -1.0745E+06 -1.0782E+08  2.8543E+06  1.2428E-01
       9-
 mid.  surface    -3.6818E+08 -4.3315E+08 -6.6735E+08  3.4524E+06 -6.8944E+07  6.6032E+06  1.3552E-01
      10-
 mid.  surface     3.5360E+07 -2.2566E+07 -3.1235E+08 -1.9705E+07 -8.0422E+07 -8.4308E+06  1.2128E-01
      11-
 mid.  surface     3.5571E+08  3.5002E+08  6.8844E+07 -3.3047E+07 -5.3431E+07  2.3664E+07  1.1449E-01
      12-
 mid.  surface    -1.2937E+09 -1.3357E+09 -6.8919E+08 -7.9080E+06  1.0780E+07 -6.0304E+07 -5.5800E-02
      17-
 mid.  surface    -8.5694E+07 -8.6612E+07 -3.3271E+08 -3.3282E+07 -9.8826E+07 -1.7222E+07  1.1967E-01
      18-
 mid.  surface     1.5232E+08  1.0917E+08 -1.5058E+08 -2.3647E+07 -1.2196E+08 -8.7197E+06  1.0999E-01
      19-
 mid.  surface    -2.7218E+09 -2.7422E+09 -2.5260E+09 -1.0988E+07 -7.1619E+06 -3.4970E+07  2.8449E-02
      20-
 mid.  surface     3.1349E+08  2.9485E+08 -3.0063E+06  1.2329E+07  3.1421E+06 -8.2245E+06  1.0862E-01
      21-
 mid.  surface     4.1516E+08  5.2959E+08 -3.7781E+08 -1.8955E+07 -2.8841E+06 -7.4684E+06  2.4073E-01
      22-
 mid.  surface     1.9173E+09  1.9920E+09  1.4873E+09 -3.5443E+07  2.8721E+07 -3.1213E+07  1.6722E-01
      23-
 mid.  surface     5.1844E+08  4.9578E+08  1.9120E+08  7.3776E+06  7.3627E+07  3.0582E+07  1.1937E-01
      52-
 mid.  surface    -2.0368E+08 -1.9596E+08 -5.4407E+08 -1.1770E+07  1.1400E+08  1.4358E+07  1.2573E-01
      53-
 mid.  surface     6.2938E+06  1.8950E+07 -3.2298E+08 -1.8674E+07  6.3168E+07  1.2193E+07  1.0730E-01
     124-
 mid.  surface     1.8927E+09  2.1715E+09 -2.2749E+08 -6.6849E+07 -1.7235E+07  1.2031E+08  4.8536E-01
     125-
 mid.  surface     3.0347E+09  3.2415E+09  1.7512E+09 -7.8483E+07 -1.9395E+07 -1.3337E+07  3.3372E-01
     148-
 mid.  surface    -5.6085E+08 -5.7558E+08 -8.3118E+08 -7.5445E+06  5.4116E+07  1.7014E+07  1.2765E-01
     164-
 mid.  surface    -8.0543E+08 -8.1603E+08 -1.0814E+09  5.8390E+06  1.0221E+08  2.2080E+07  1.4303E-01



 n o d a l  s t r a i n  c a l c u l a t i o n s   f o r   t i m e  s t e p      329   ( at time 2.96139E+01 )

 node (global)
          strain       eps-xx      eps-yy      eps-zz      eps-xy      eps-yz      eps-zx       
       1-
 mid.  surface     5.4743E-02  6.1935E-02 -1.0569E-01  4.0626E-03 -5.2429E-03  2.0727E-02
       2-
 mid.  surface     5.1399E-02  6.3683E-02 -1.3878E-01  4.4856E-03  2.2147E-03  3.0361E-02
       8-
 mid.  surface     5.5775E-02  5.9532E-02 -1.2008E-01 -3.4044E-03 -1.4166E-02 -5.4307E-04
       9-
 mid.  surface     6.1253E-02  5.3338E-02 -1.2305E-01 -2.4022E-03 -2.1283E-02 -2.0315E-03
      10-
 mid.  surface     6.2464E-02  4.3965E-02 -1.0907E-01 -1.4555E-03 -3.6564E-02 -2.4478E-03
      11-
 mid.  surface     6.1323E-02  5.1950E-02 -1.1100E-01 -7.8908E-05 -3.9919E-02 -5.5990E-03
      12-
 mid.  surface     4.5486E-02  6.0535E-02 -9.0391E-02 -8.5934E-04 -3.6452E-02 -1.5899E-02
      17-
 mid.  surface     5.6539E-02  5.8172E-02 -1.1887E-01 -1.9342E-03 -4.0858E-02 -1.6155E-02
      18-
 mid.  surface     5.2328E-02  5.3101E-02 -1.0597E-01 -2.7012E-03 -3.1998E-02 -4.7571E-03
      19-
 mid.  surface     4.4148E-02  6.1517E-02 -1.2271E-01 -1.1738E-03 -2.7172E-02 -1.5079E-02
      20-
 mid.  surface     6.1935E-02  6.1808E-02 -1.2267E-01  8.0937E-03  2.7767E-02  1.1618E-02
      21-
 mid.  surface     4.9765E-02  5.7130E-02 -1.2978E-01  1.6410E-03  1.8020E-02  9.3620E-03
      22-
 mid.  surface     5.1134E-02  5.8087E-02 -9.9749E-02  1.6720E-03  1.7849E-02  6.1320E-03
      23-
 mid.  surface     6.6989E-02  5.5279E-02 -1.1836E-01  5.7854E-03  3.8243E-02  1.4774E-02
      52-
 mid.  surface     6.0450E-02  4.7856E-02 -1.1420E-01 -2.8428E-03  2.0311E-02 -3.5470E-03
      53-
 mid.  surface     4.9383E-02  5.5476E-02 -1.0768E-01 -2.9591E-03  2.5390E-02  6.2761E-03
     124-
 mid.  surface     3.4266E-02  5.7704E-02 -1.4332E-01 -2.4323E-03  3.0264E-02 -3.6910E-02
     125-
 mid.  surface     3.9415E-02  5.6977E-02 -1.0735E-01 -1.5658E-03  3.5988E-02 -4.4752E-02
     148-
 mid.  surface     5.2786E-02  5.6642E-02 -1.2021E-01 -4.7815E-03  6.8792E-03  6.5847E-03
     164-
 mid.  surface     5.9699E-02  5.1355E-02 -1.2563E-01 -4.5685E-03  2.9199E-04 -1.2397E-03



 n o d a l  s t r e s s  c a l c u l a t i o n s   f o r   t i m e  s t e p      337   ( at time 3.46139E+01 )

 node (global)
          stress       sig-xx      sig-yy      sig-zz      sig-xy      sig-yz      sig-zx       plastic
                                                                                                 strain 
       1-
 mid.  surface    -5.3345E+09 -5.3417E+09 -3.6270E+09  3.9323E+07 -1.4562E+07  3.0879E+07 -2.0601E-01
       2-
 mid.  surface    -3.1445E+09 -3.3554E+09 -3.8974E+09 -7.5591E+07  8.0896E+07  4.0090E+07 -4.6486E-03
       8-
 mid.  surface    -2.9090E+08 -3.5596E+08 -5.8326E+08 -8.4552E+06 -1.0341E+08  8.9330E+06  1.4699E-01
       9-
 mid.  surface    -5.3531E+08 -6.0740E+08 -8.4178E+08  1.1848E+07 -8.4059E+07  9.5374E+06  1.5509E-01
      10-
 mid.  surface     4.2595E+07  7.6246E+06 -2.9240E+08 -1.0124E+07 -8.4230E+07 -5.6636E+06  1.3989E-01
      11-
 mid.  surface     1.9557E+08  2.0665E+08 -9.7520E+07 -1.6352E+07 -4.5612E+07  3.2614E+07  1.3589E-01
      12-
 mid.  surface    -2.6573E+09 -2.5510E+09 -1.5561E+09  1.7709E+07 -4.5385E+07 -2.0960E+07 -1.2469E-01
      17-
 mid.  surface    -3.2125E+08 -2.9456E+08 -5.7657E+08 -3.0773E+07 -9.4151E+07 -2.2511E+07  1.4182E-01
      18-
 mid.  surface     4.2889E+07  4.1745E+07 -2.5051E+08 -2.1686E+07 -1.1846E+08 -4.5777E+06  1.3082E-01
      19-
 mid.  surface    -1.1738E+09 -1.1671E+09 -1.9573E+09 -4.7125E+07 -3.2354E+07 -4.5007E+07  7.6678E-02
      20-
 mid.  surface     4.2250E+08  4.0482E+08  1.0428E+08  2.4122E+07  2.6442E+06 -1.8882E+07  1.2990E-01
      21-
 mid.  surface     2.1080E+09  2.1153E+09  6.8640E+08 -8.3829E+06  2.3132E+07 -2.6509E+07  3.2967E-01
      22-
 mid.  surface     1.4539E+09  1.5593E+09  1.5337E+09  3.7600E+07 -1.6975E+07 -1.3862E+07  1.6244E-01
      23-
 mid.  surface     7.2468E+08  6.8472E+08  3.9101E+08  2.3974E+07  7.3992E+07  2.9555E+07  1.4340E-01
      52-
 mid.  surface    -1.4305E+08 -1.3664E+08 -4.8707E+08 -6.8871E+06  1.0449E+08  5.7796E+06  1.4537E-01
      53-
 mid.  surface     1.2397E+07  4.4223E+07 -3.1482E+08 -1.7435E+07  6.5174E+07  8.3407E+06  1.2660E-01
     124-
 mid.  surface     3.8105E+09  3.6699E+09  1.0799E+09 -6.6415E+07  1.0926E+08  4.7166E+06  6.6131E-01
     125-
 mid.  surface     9.0933E+07  1.3954E+08  5.6494E+08  2.8273E+07  5.3938E+07 -8.7564E+06  3.0945E-01
     148-
 mid.  surface    -5.9004E+08 -5.9770E+08 -8.7823E+08 -1.1529E+07  6.2227E+07  1.2671E+07  1.5108E-01
     164-
 mid.  surface    -8.3230E+08 -8.5045E+08 -1.1356E+09  7.5448E+06  8.4403E+07  1.3370E+07  1.6399E-01



 n o d a l  s t r a i n  c a l c u l a t i o n s   f o r   t i m e  s t e p      337   ( at time 3.46139E+01 )

 node (global)
          strain       eps-xx      eps-yy      eps-zz      eps-xy      eps-yz      eps-zx       
       1-
 mid.  surface     7.2781E-02  7.4197E-02 -1.2841E-01  6.4715E-03 -9.4497E-03  2.0445E-02
       2-
 mid.  surface     7.1379E-02  7.2767E-02 -1.6725E-01  6.3968E-03  5.7247E-04  3.4416E-02
       8-
 mid.  surface     6.7160E-02  6.8104E-02 -1.4252E-01 -4.0524E-03 -1.8788E-02  6.9634E-04
       9-
 mid.  surface     7.1532E-02  5.8366E-02 -1.4100E-01 -1.1650E-03 -2.9158E-02 -1.4551E-03
      10-
 mid.  surface     7.2589E-02  5.1930E-02 -1.2713E-01 -1.8245E-03 -4.1344E-02 -2.2910E-03
      11-
 mid.  surface     6.9566E-02  6.2486E-02 -1.3228E-01 -7.2945E-04 -4.0555E-02 -2.2851E-03
      12-
 mid.  surface     5.3973E-02  7.2171E-02 -1.0575E-01 -2.2588E-04 -4.0425E-02 -1.7124E-02
      17-
 mid.  surface     6.3449E-02  6.8732E-02 -1.3987E-01 -4.3693E-03 -4.3375E-02 -1.5319E-02
      18-
 mid.  surface     6.1082E-02  6.3262E-02 -1.2648E-01 -4.2639E-03 -3.6248E-02 -3.8579E-03
      19-
 mid.  surface     5.3816E-02  7.0748E-02 -1.4109E-01 -2.0066E-03 -2.7654E-02 -1.5261E-02
      20-
 mid.  surface     7.3290E-02  7.2507E-02 -1.4344E-01  1.0237E-02  2.7394E-02  9.6811E-03
      21-
 mid.  surface     5.6208E-02  6.7523E-02 -1.4989E-01  1.6837E-03  2.0608E-02  8.4546E-03
      22-
 mid.  surface     5.8290E-02  6.8779E-02 -1.1639E-01  4.6961E-04  1.7421E-02  3.4857E-03
      23-
 mid.  surface     8.0894E-02  6.5889E-02 -1.4041E-01  7.9595E-03  4.0883E-02  1.6178E-02
      52-
 mid.  surface     7.0475E-02  5.7229E-02 -1.3310E-01 -3.4877E-03  2.3346E-02 -4.3305E-03
      53-
 mid.  surface     5.7999E-02  6.6706E-02 -1.2767E-01 -4.5520E-03  2.9632E-02  6.7645E-03
     124-
 mid.  surface     4.1467E-02  7.1516E-02 -1.7389E-01 -2.1932E-03  3.4868E-02 -4.0880E-02
     125-
 mid.  surface     4.6919E-02  6.8898E-02 -1.3175E-01 -4.6110E-03  4.2157E-02 -4.7958E-02
     148-
 mid.  surface     6.3226E-02  6.7532E-02 -1.4234E-01 -5.7667E-03  1.0825E-02  7.5325E-03
     164-
 mid.  surface     6.9632E-02  5.9359E-02 -1.4440E-01 -3.9652E-03 -6.6182E-04 -9.8107E-04



 n o d a l  s t r e s s  c a l c u l a t i o n s   f o r   t i m e  s t e p      347   ( at time 3.96139E+01 )

 node (global)
          stress       sig-xx      sig-yy      sig-zz      sig-xy      sig-yz      sig-zx       plastic
                                                                                                 strain 
       1-
 mid.  surface    -3.2346E+09 -3.2540E+09 -3.7394E+09  1.2710E+07  1.1856E+08 -1.2373E+07 -1.6578E-01
       2-
 mid.  surface     4.1506E+08  2.0389E+08 -2.3627E+09 -7.6771E+07  2.4340E+08 -4.0554E+06  1.7593E-01
       8-
 mid.  surface    -4.2544E+08 -4.8592E+08 -7.1773E+08 -1.1186E+07 -9.9035E+07  9.7354E+06  1.7139E-01
       9-
 mid.  surface    -6.7927E+08 -7.4883E+08 -9.8652E+08  1.0892E+07 -8.9775E+07  1.0158E+07  1.7598E-01
      10-
 mid.  surface     6.3008E+07  4.4574E+07 -2.7621E+08 -1.3202E+07 -8.7467E+07 -2.1696E+06  1.5874E-01
      11-
 mid.  surface     1.9634E+08  2.0220E+08 -9.7917E+07  9.1047E+06 -5.1905E+07  1.7744E+07  1.6085E-01
      12-
 mid.  surface    -1.7163E+09 -1.6295E+09 -1.6138E+09  1.8776E+07 -1.5464E+07 -6.8793E+07 -1.2805E-01
      17-
 mid.  surface    -4.2807E+08 -4.3056E+08 -6.9905E+08 -1.1810E+07 -7.2642E+07 -1.6106E+07  1.6694E-01
      18-
 mid.  surface    -3.7819E+07 -2.6694E+07 -3.3766E+08 -2.6129E+07 -1.1708E+08 -5.6381E+06  1.5159E-01
      19-
 mid.  surface     1.3043E+08  1.1494E+08 -1.2312E+09 -3.6206E+07  2.6999E+07 -8.6104E+07  1.6345E-01
      20-
 mid.  surface     3.9244E+08  3.7986E+08  8.1775E+07  9.0811E+06  2.2068E+07 -1.0885E+07  1.5302E-01
      21-
 mid.  surface     7.8433E+08  7.9089E+08  6.9594E+08 -1.1746E+07 -2.9707E+07  2.9336E+06  3.2976E-01
      22-
 mid.  surface    -8.0883E+07  5.7551E+07  9.6981E+08  4.1785E+07 -9.6531E+07  2.1357E+06  9.2567E-02
      23-
 mid.  surface     7.5551E+08  7.4013E+08  4.2813E+08  2.0608E+07  6.9554E+07  1.1172E+07  1.6863E-01
      52-
 mid.  surface    -4.0515E+07 -2.5165E+07 -3.9230E+08 -1.2021E+06  1.0500E+08  1.8465E+06  1.6563E-01
      53-
 mid.  surface     4.5710E+07  9.2031E+07 -2.7967E+08 -1.3287E+07  6.6388E+07  6.1819E+06  1.4633E-01
     124-
 mid.  surface     2.2037E+09  2.0689E+09  1.3458E+09 -3.7692E+07  2.9235E+07  5.6594E+07  7.1254E-01
     125-
 mid.  surface    -2.3448E+09 -2.2735E+09 -8.2950E+08  4.3901E+07 -5.2064E+07  6.3475E+07  2.1840E-01
     148-
 mid.  surface    -6.5525E+08 -6.5801E+08 -9.4058E+08 -9.6673E+06  5.8720E+07  1.1068E+07  1.7631E-01
     164-
 mid.  surface    -8.7468E+08 -8.9122E+08 -1.1832E+09  1.0866E+07  7.2176E+07  9.8291E+06  1.8610E-01



 n o d a l  s t r a i n  c a l c u l a t i o n s   f o r   t i m e  s t e p      347   ( at time 3.96139E+01 )

 node (global)
          strain       eps-xx      eps-yy      eps-zz      eps-xy      eps-yz      eps-zx       
       1-
 mid.  surface     8.3770E-02  8.7369E-02 -1.4800E-01  7.2083E-03 -1.1044E-02  1.9460E-02
       2-
 mid.  surface     8.3953E-02  8.5244E-02 -1.9558E-01  7.1063E-03  1.4917E-03  3.6172E-02
       8-
 mid.  surface     7.9165E-02  7.8280E-02 -1.6679E-01 -4.9022E-03 -2.2822E-02  1.9913E-03
       9-
 mid.  surface     8.2173E-02  6.4402E-02 -1.5993E-01 -2.6387E-04 -3.7111E-02 -9.0576E-04
      10-
 mid.  surface     8.2459E-02  6.0805E-02 -1.4579E-01 -2.6851E-03 -4.5618E-02 -1.7301E-03
      11-
 mid.  surface     8.0493E-02  7.4745E-02 -1.5585E-01  1.0555E-03 -4.0952E-02 -4.7582E-05
      12-
 mid.  surface     6.1786E-02  8.4192E-02 -1.2105E-01  5.7091E-04 -4.4899E-02 -1.8889E-02
      17-
 mid.  surface     7.3739E-02  7.9920E-02 -1.6342E-01 -4.4031E-03 -4.3625E-02 -1.4159E-02
      18-
 mid.  surface     6.9905E-02  7.4161E-02 -1.4760E-01 -6.2599E-03 -3.9993E-02 -2.7779E-03
      19-
 mid.  surface     6.2703E-02  8.1043E-02 -1.6272E-01 -2.6245E-03 -2.8239E-02 -1.5971E-02
      20-
 mid.  surface     8.4200E-02  8.3980E-02 -1.6652E-01  1.0789E-02  2.8119E-02  8.1612E-03
      21-
 mid.  surface     6.6420E-02  7.7559E-02 -1.7341E-01 -3.3421E-04  2.2223E-02  1.0295E-02
      22-
 mid.  surface     6.7783E-02  8.0144E-02 -1.3346E-01 -9.3099E-05  1.4766E-02  1.6329E-03
      23-
 mid.  surface     9.3232E-02  7.7653E-02 -1.6435E-01  9.3499E-03  4.2903E-02  1.6330E-02
      52-
 mid.  surface     8.0752E-02  6.7638E-02 -1.5270E-01 -3.7068E-03  2.5822E-02 -5.6511E-03
      53-
 mid.  surface     6.6424E-02  7.8961E-02 -1.4814E-01 -5.7971E-03  3.3645E-02  7.4759E-03
     124-
 mid.  surface     5.3218E-02  8.4429E-02 -2.0515E-01 -2.0784E-03  4.0316E-02 -4.4299E-02
     125-
 mid.  surface     5.7100E-02  8.1041E-02 -1.5334E-01 -3.9814E-03  5.0016E-02 -5.3847E-02
     148-
 mid.  surface     7.3780E-02  7.9389E-02 -1.6600E-01 -6.5551E-03  1.4226E-02  8.3209E-03
     164-
 mid.  surface     7.9711E-02  6.7824E-02 -1.6389E-01 -3.1091E-03 -3.3867E-03 -1.2693E-03



 n o d a l  s t r e s s  c a l c u l a t i o n s   f o r   t i m e  s t e p      359   ( at time 4.46139E+01 )

 node (global)
          stress       sig-xx      sig-yy      sig-zz      sig-xy      sig-yz      sig-zx       plastic
                                                                                                 strain 
       1-
 mid.  surface    -6.9716E+08 -1.0147E+09 -2.9593E+09 -2.9183E+07  1.5327E+08 -6.1809E+07  2.7546E-02
       2-
 mid.  surface    -1.0646E+09 -1.2822E+09 -2.3934E+09 -1.0757E+07  2.0749E+08 -3.9848E+07  3.1587E-01
       8-
 mid.  surface    -5.7921E+08 -7.0383E+08 -8.8442E+08 -2.0528E+07 -1.6835E+08  2.5349E+07  1.9210E-01
       9-
 mid.  surface    -7.8703E+08 -9.0607E+08 -1.0909E+09  3.5493E+05 -1.2608E+08  4.3942E+07  1.9360E-01
      10-
 mid.  surface     6.8837E+07  1.4648E+08 -2.1127E+08  7.9139E+06 -1.0111E+08 -2.5548E+07  1.8377E-01
      11-
 mid.  surface     3.3437E+08  4.1227E+08  8.2207E+07 -1.5057E+07 -1.8200E+08 -3.3032E+06  1.7683E-01
      12-
 mid.  surface    -7.0745E+08 -4.8409E+08 -1.3206E+09  5.3223E+07 -3.9796E+07 -2.0016E+08 -8.5283E-02
      17-
 mid.  surface    -7.1065E+08 -8.5046E+08 -1.0134E+09 -9.9818E+07 -1.0708E+08 -7.2608E+06  1.8866E-01
      18-
 mid.  surface    -1.5134E+07 -2.0580E+07 -2.8058E+08  2.3279E+07 -1.3607E+08 -3.3830E+07  1.7763E-01
      19-
 mid.  surface    -1.3752E+09 -1.1686E+09 -1.8511E+09 -2.4722E+07 -3.5785E+06 -1.9960E+08  2.1013E-01
      20-
 mid.  surface     1.0842E+08 -9.5030E+07 -2.3757E+08 -6.9145E+07  9.9554E+07  8.6351E+07  1.7752E-01
      21-
 mid.  surface    -6.5017E+08 -5.4806E+08  9.8932E+07  5.5703E+06  3.9393E+07  3.6635E+07  2.6856E-01
      22-
 mid.  surface     1.2714E+09  1.4569E+09  1.5540E+09  9.7483E+07 -2.3858E+07  1.6690E+07  5.0525E-02
      23-
 mid.  surface     1.2131E+09  1.1911E+09  8.4989E+08 -4.8561E+06  8.0305E+07  7.0731E+07  1.8416E-01
      52-
 mid.  surface    -6.0093E+07  4.8330E+07 -3.6483E+08  1.1727E+07  1.3780E+08 -4.4205E+06  1.9175E-01
      53-
 mid.  surface     2.3450E+08  2.8863E+08 -7.4772E+07  6.3540E+06  8.7456E+07 -6.2664E+06  1.6837E-01
     124-
 mid.  surface     4.9084E+08  2.9890E+08  1.0453E+09  1.3529E+07 -2.9457E+07  1.7445E+08  6.8556E-01
     125-
 mid.  surface     2.1437E+07 -2.4210E+08 -2.5636E+08  1.8115E+07 -4.2107E+07  1.6436E+08  2.4412E-01
     148-
 mid.  surface    -6.8385E+08 -6.6937E+08 -9.2119E+08 -1.1024E+07  6.9859E+07  1.5280E+07  2.0120E-01
     164-
 mid.  surface    -7.2908E+08 -7.2888E+08 -1.0128E+09  3.5259E+07  1.1509E+08  3.3005E+07  2.0608E-01



 n o d a l  s t r a i n  c a l c u l a t i o n s   f o r   t i m e  s t e p      359   ( at time 4.46139E+01 )

 node (global)
          strain       eps-xx      eps-yy      eps-zz      eps-xy      eps-yz      eps-zx       
       1-
 mid.  surface     1.1165E-01  1.0657E-01 -1.8914E-01  8.4195E-03 -1.8283E-02  2.1847E-02
       2-
 mid.  surface     1.2234E-01  9.7950E-02 -2.3867E-01  8.6820E-03 -1.0773E-03  4.8544E-02
       8-
 mid.  surface     9.1406E-02  8.3770E-02 -1.8712E-01 -6.2128E-03 -2.8600E-02  5.4268E-03
       9-
 mid.  surface     9.2569E-02  6.5846E-02 -1.7369E-01 -3.7837E-04 -4.7778E-02  1.8312E-03
      10-
 mid.  surface     9.1453E-02  7.5684E-02 -1.6927E-01 -1.9419E-03 -4.7191E-02 -2.3176E-03
      11-
 mid.  surface     8.6119E-02  8.1457E-02 -1.6592E-01  4.0006E-04 -4.4455E-02  4.8313E-04
      12-
 mid.  surface     6.5034E-02  1.0418E-01 -1.3219E-01  4.8200E-03 -5.4600E-02 -2.2978E-02
      17-
 mid.  surface     8.4320E-02  8.4507E-02 -1.8331E-01 -8.8717E-03 -4.4834E-02 -1.3900E-02
      18-
 mid.  surface     8.1481E-02  8.7744E-02 -1.7258E-01 -3.4535E-03 -4.2123E-02 -3.7980E-03
      19-
 mid.  surface     7.1173E-02  9.8075E-02 -1.8783E-01 -3.3262E-03 -3.1367E-02 -1.6773E-02
      20-
 mid.  surface     9.6973E-02  8.7101E-02 -1.8771E-01  5.9983E-03  3.3559E-02  1.6497E-02
      21-
 mid.  surface     7.7533E-02  9.2033E-02 -2.0111E-01 -2.9099E-03  3.3057E-02  1.3405E-02
      22-
 mid.  surface     7.3594E-02  9.4662E-02 -1.4621E-01  3.7282E-03  2.0892E-02 -6.4036E-03
      23-
 mid.  surface     1.0438E-01  8.3831E-02 -1.7570E-01  7.2992E-03  3.8509E-02  2.0451E-02
      52-
 mid.  surface     8.9555E-02  8.2664E-02 -1.7672E-01 -3.4668E-03  2.9550E-02 -7.1651E-03
      53-
 mid.  surface     7.6022E-02  9.4948E-02 -1.7115E-01 -5.5058E-03  3.5992E-02  6.9383E-03
     124-
 mid.  surface     6.4980E-02  9.8960E-02 -2.4622E-01 -1.1202E-03  4.8846E-02 -5.6667E-02
     125-
 mid.  surface     6.3915E-02  9.6464E-02 -1.9315E-01 -1.0193E-03  6.0039E-02 -6.2835E-02
     148-
 mid.  surface     8.1712E-02  9.1281E-02 -1.8624E-01 -7.1174E-03  1.7905E-02  8.9808E-03
     164-
 mid.  surface     8.7949E-02  7.6400E-02 -1.7869E-01  4.2218E-04 -9.1755E-03 -1.3974E-03



 n o d a l  s t r e s s  c a l c u l a t i o n s   f o r   t i m e  s t e p      372   ( at time 4.96139E+01 )

 node (global)
          stress       sig-xx      sig-yy      sig-zz      sig-xy      sig-yz      sig-zx       plastic
                                                                                                 strain 
       1-
 mid.  surface    -1.4200E+09 -1.8710E+09 -2.8748E+09 -1.7664E+08  1.9758E+08 -1.1577E+07  1.1592E-01
       2-
 mid.  surface    -2.5810E+09 -2.7834E+09 -3.0911E+09 -1.0193E+08  1.7144E+08 -5.6312E+07  3.6086E-01
       8-
 mid.  surface    -2.3080E+09 -2.3892E+09 -1.3773E+09 -7.1885E+07  4.0781E+08  5.6711E+07  1.2197E-01
       9-
 mid.  surface    -2.2059E+09 -2.3038E+09 -1.2452E+09  5.2376E+07  3.6955E+08  4.7757E+07  1.1872E-01
      10-
 mid.  surface    -7.0420E+08 -4.3746E+08 -3.2271E+08  6.0388E+07  9.8028E+07  2.1259E+07  1.6712E-01
      11-
 mid.  surface     6.4175E+08  7.8591E+08  4.3554E+08 -1.1351E+08  1.7628E+08 -5.1237E+06  2.0173E-01
      12-
 mid.  surface     1.2307E+09  1.3000E+09  2.1929E+07  1.6522E+08  2.3420E+08 -1.0723E+08  1.8380E-02
      17-
 mid.  surface    -1.0021E+09 -1.1789E+09 -1.3385E+09 -1.6695E+08  1.6630E+08  5.3255E+07  2.1732E-01
      18-
 mid.  surface    -1.1909E+09 -1.1239E+09 -8.0975E+08  4.8065E+07  7.8966E+06  5.1517E+06  1.7368E-01
      19-
 mid.  surface    -9.5908E+08 -8.1425E+08 -1.6524E+09  1.0232E+08  2.3416E+08 -9.8758E+07  2.9051E-01
      20-
 mid.  surface    -2.4427E+08 -4.2960E+08 -6.2147E+08 -1.1394E+08 -1.7980E+08 -1.6244E+06  1.9916E-01
      21-
 mid.  surface    -4.1111E+08 -2.9013E+08 -1.1507E+08  8.9380E+07 -3.3159E+08 -6.3870E+07  2.6068E-01
      22-
 mid.  surface     1.9838E+09  2.0631E+09  2.1121E+09  1.2896E+08 -3.4563E+08 -6.9938E+07  4.0270E-02
      23-
 mid.  surface     1.8719E+09  2.0128E+09  1.5581E+09 -7.9207E+07 -1.6100E+08 -3.3290E+07  1.9595E-01
      52-
 mid.  surface     7.9044E+08  1.0093E+09 -1.1666E+08  7.6409E+07 -9.9128E+07  7.3757E+07  2.7055E-01
      53-
 mid.  surface     1.2045E+09  1.2003E+09  1.8134E+08  7.3775E+07 -1.9362E+08  2.5358E+07  2.4421E-01
     124-
 mid.  surface    -1.9511E+09 -2.0124E+09 -3.8347E+08 -1.5220E+08  8.5985E+07  1.5885E+08  5.5919E-01
     125-
 mid.  surface    -1.4882E+09 -1.6975E+09 -9.0807E+08 -1.6096E+08  1.0230E+08  1.7470E+08  1.8025E-01
     148-
 mid.  surface     1.0242E+09  6.9234E+08 -4.9813E+08 -6.7643E+07 -4.1077E+08 -6.7191E+07  3.2505E-01
     164-
 mid.  surface     1.5708E+09  1.2337E+09 -4.6848E+07  2.5058E+07 -4.4583E+08 -6.5138E+07  3.1261E-01



 n o d a l  s t r a i n  c a l c u l a t i o n s   f o r   t i m e  s t e p      372   ( at time 4.96139E+01 )

 node (global)
          strain       eps-xx      eps-yy      eps-zz      eps-xy      eps-yz      eps-zx       
       1-
 mid.  surface     1.2523E-01  1.2682E-01 -2.1837E-01  1.0014E-02 -2.0338E-02  2.5703E-02
       2-
 mid.  surface     1.4433E-01  1.0727E-01 -2.6372E-01  2.4295E-03  2.5215E-03  5.7546E-02
       8-
 mid.  surface     9.9169E-02  8.7466E-02 -1.9941E-01 -1.1071E-02 -3.4874E-02  1.4006E-02
       9-
 mid.  surface     9.8597E-02  5.8911E-02 -1.6999E-01  6.6404E-03 -6.8778E-02  8.6172E-03
      10-
 mid.  surface     9.8970E-02  9.4884E-02 -1.9468E-01  2.9610E-03 -5.1928E-02 -1.1446E-03
      11-
 mid.  surface     8.7419E-02  8.5701E-02 -1.6946E-01 -7.8762E-03 -4.6532E-02 -3.2810E-03
      12-
 mid.  surface     8.0735E-02  1.2536E-01 -1.6053E-01  1.5054E-02 -6.1020E-02 -2.3544E-02
      17-
 mid.  surface     9.2095E-02  8.6740E-02 -2.0047E-01 -1.7364E-02 -4.7829E-02 -1.6985E-02
      18-
 mid.  surface     9.5714E-02  1.0833E-01 -2.1223E-01 -3.9100E-04 -4.7588E-02 -3.5092E-03
      19-
 mid.  surface     9.1281E-02  1.1502E-01 -2.2338E-01  9.9241E-04 -3.4073E-02 -1.6792E-02
      20-
 mid.  surface     1.0467E-01  9.3008E-02 -2.0672E-01  6.0100E-04  4.5772E-02  2.5197E-02
      21-
 mid.  surface     9.6480E-02  1.0690E-01 -2.3963E-01 -2.8359E-03  3.8994E-02  1.2679E-02
      22-
 mid.  surface     8.8811E-02  1.1271E-01 -1.7645E-01  1.0540E-02  2.2965E-02 -1.3759E-02
      23-
 mid.  surface     1.0734E-01  9.6526E-02 -1.8105E-01  2.5040E-03  3.4031E-02  1.9010E-02
      52-
 mid.  surface     9.6647E-02  1.0413E-01 -2.0592E-01  1.3624E-03  3.9467E-02 -2.7719E-03
      53-
 mid.  surface     9.1440E-02  1.1769E-01 -2.0878E-01 -5.8468E-04  4.0714E-02  7.4065E-03
     124-
 mid.  surface     7.6023E-02  1.0893E-01 -2.7019E-01 -6.0706E-03  5.3409E-02 -6.1258E-02
     125-
 mid.  surface     6.5814E-02  1.1568E-01 -2.2220E-01  3.1808E-03  5.8877E-02 -7.7565E-02
     148-
 mid.  surface     9.4216E-02  9.1531E-02 -2.0173E-01 -1.2496E-02  3.6506E-02  2.5631E-03
     164-
 mid.  surface     9.8410E-02  7.1075E-02 -1.7787E-01  3.5477E-03 -2.6810E-02 -7.8626E-03



 n o d a l  s t r e s s  c a l c u l a t i o n s   f o r   t i m e  s t e p      381   ( at time 5.46139E+01 )

 node (global)
          stress       sig-xx      sig-yy      sig-zz      sig-xy      sig-yz      sig-zx       plastic
                                                                                                 strain 
       1-
 mid.  surface     4.4100E+08  2.4582E+08 -2.5639E+09 -7.4691E+06 -4.4160E+06 -5.3085E+07  2.7405E-01
       2-
 mid.  surface    -9.3860E+08 -1.0273E+09 -3.0757E+09 -3.2245E+07  2.0313E+07 -4.3195E+07  4.7927E-01
       8-
 mid.  surface    -3.3659E+09 -3.3586E+09 -2.3160E+09 -2.6568E+07  4.1618E+08  7.7907E+07  5.3670E-02
       9-
 mid.  surface    -3.7550E+09 -3.7870E+09 -2.6160E+09  1.5191E+07  2.2855E+08  3.7675E+07  6.0208E-02
      10-
 mid.  surface    -2.3936E+09 -2.3724E+09 -1.3263E+09  5.1182E+07  2.0463E+08  9.5461E+06  1.0231E-01
      11-
 mid.  surface    -2.8961E+08 -2.4816E+08 -1.6701E+08 -3.1604E+07  2.8521E+08  4.0614E+07  1.9149E-01
      12-
 mid.  surface     5.9002E+08  5.0706E+08  2.6082E+08  7.3552E+07  1.9546E+08 -6.8194E+07  4.0321E-02
      17-
 mid.  surface    -2.6901E+09 -2.6764E+09 -2.1356E+09 -4.0337E+07  2.9383E+08  3.5218E+07  1.8475E-01
      18-
 mid.  surface    -2.7402E+09 -2.7521E+09 -1.7417E+09  2.4716E+07  3.0155E+08  4.2171E+07  1.0671E-01
      19-
 mid.  surface    -2.2767E+09 -2.2830E+09 -1.6978E+09  5.7856E+07  1.8544E+08 -9.5948E+07  2.6689E-01
      20-
 mid.  surface     1.0129E+09  1.0468E+09 -2.8272E+08 -9.4365E+07 -3.2796E+08 -2.0479E+07  2.8400E-01
      21-
 mid.  surface    -1.4855E+09 -1.3867E+09 -2.3911E+08  3.4437E+07 -1.7958E+08 -5.1534E+07  2.0093E-01
      22-
 mid.  surface     1.5525E+09  1.5888E+09  2.2012E+09  3.7437E+07 -1.5941E+08 -1.7638E+07  9.4632E-03
      23-
 mid.  surface     3.6459E+09  3.7450E+09  2.2462E+09 -8.8140E+07 -3.4842E+08 -3.8574E+07  2.8275E-01
      52-
 mid.  surface     2.7848E+09  2.8410E+09  9.6380E+08  6.2088E+06 -3.8681E+08 -4.4284E+07  3.8623E-01
      53-
 mid.  surface     3.2012E+09  3.1877E+09  1.3498E+09  2.7287E+06 -2.8575E+08 -4.9716E+06  3.6378E-01
     124-
 mid.  surface    -4.2692E+08 -4.1596E+08 -4.2842E+08 -6.4903E+07 -6.0142E+06  9.5480E+07  5.5709E-01
     125-
 mid.  surface     9.2673E+07  4.6889E+07 -8.5952E+08 -2.9740E+07 -3.2128E+07  8.8695E+07  2.2765E-01
     148-
 mid.  surface     2.6200E+09  2.5418E+09  8.2262E+08  2.2875E+06 -2.5179E+08 -1.9288E+07  4.4282E-01
     164-
 mid.  surface     2.6301E+09  2.5505E+09  8.3724E+08  2.3338E+07 -4.6864E+08 -7.0350E+07  4.3196E-01



 n o d a l  s t r a i n  c a l c u l a t i o n s   f o r   t i m e  s t e p      381   ( at time 5.46139E+01 )

 node (global)
          strain       eps-xx      eps-yy      eps-zz      eps-xy      eps-yz      eps-zx       
       1-
 mid.  surface     1.3253E-01  1.3755E-01 -2.3382E-01  1.1336E-02 -2.0299E-02  2.5994E-02
       2-
 mid.  surface     1.5223E-01  1.1415E-01 -2.7963E-01 -5.1709E-04  5.0324E-03  5.8802E-02
       8-
 mid.  surface     1.0819E-01  1.1040E-01 -2.2318E-01 -7.7355E-03 -3.4301E-02  1.4764E-02
       9-
 mid.  surface     1.0891E-01  7.2527E-02 -1.9343E-01  1.0697E-02 -7.7516E-02  7.6527E-03
      10-
 mid.  surface     1.0904E-01  1.0328E-01 -2.1170E-01  4.6104E-03 -5.9416E-02 -2.2731E-03
      11-
 mid.  surface     9.1214E-02  9.3774E-02 -1.8300E-01 -1.2747E-02 -5.0649E-02 -3.1632E-03
      12-
 mid.  surface     9.6358E-02  1.3776E-01 -1.8497E-01  1.8138E-02 -6.2471E-02 -2.1699E-02
      17-
 mid.  surface     9.5963E-02  1.0190E-01 -2.2273E-01 -2.1185E-02 -5.1407E-02 -1.7851E-02
      18-
 mid.  surface     1.0775E-01  1.2614E-01 -2.3758E-01  5.7698E-04 -5.0385E-02 -3.2981E-03
      19-
 mid.  surface     1.0595E-01  1.2749E-01 -2.4977E-01  3.6756E-03 -3.4602E-02 -1.6366E-02
      20-
 mid.  surface     1.1322E-01  1.0627E-01 -2.3173E-01 -7.1872E-05  5.1738E-02  2.9192E-02
      21-
 mid.  surface     1.0875E-01  1.2027E-01 -2.6887E-01  4.4290E-04  3.9444E-02  6.6435E-03
      22-
 mid.  surface     1.0254E-01  1.2483E-01 -2.0370E-01  1.3373E-02  2.3077E-02 -1.5823E-02
      23-
 mid.  surface     1.1530E-01  1.0532E-01 -1.9698E-01  1.1449E-03  3.2670E-02  1.5622E-02
      52-
 mid.  surface     1.0664E-01  1.0883E-01 -2.2400E-01  4.0757E-04  3.5080E-02 -2.7800E-03
      53-
 mid.  surface     1.0486E-01  1.2822E-01 -2.3462E-01  4.6279E-05  5.0521E-02  9.9188E-03
     124-
 mid.  surface     8.2604E-02  1.1838E-01 -2.8754E-01 -8.6532E-03  5.3908E-02 -6.3242E-02
     125-
 mid.  surface     7.0887E-02  1.2795E-01 -2.3839E-01  2.4420E-03  5.8179E-02 -8.3696E-02
     148-
 mid.  surface     1.0588E-01  1.0309E-01 -2.2633E-01 -1.3641E-02  4.2354E-02  4.6079E-03
     164-
 mid.  surface     1.0876E-01  7.4106E-02 -2.0031E-01  1.6821E-03 -4.0853E-02 -1.0018E-02



 n o d a l  s t r e s s  c a l c u l a t i o n s   f o r   t i m e  s t e p      394   ( at time 5.96139E+01 )

 node (global)
          stress       sig-xx      sig-yy      sig-zz      sig-xy      sig-yz      sig-zx       plastic
                                                                                                 strain 
       1-
 mid.  surface     1.0423E+09  7.1347E+08 -2.0457E+09  1.9008E+07 -1.4170E+08 -9.2585E+07  4.7951E-01
       2-
 mid.  surface    -5.6662E+08 -6.3721E+08 -2.7239E+09  4.5262E+07 -5.0203E+07 -6.7432E+07  6.3481E-01
       8-
 mid.  surface     8.9321E+08  1.2085E+09  6.5450E+08  1.0443E+08  1.0108E+09  2.7696E+08  1.1667E-01
       9-
 mid.  surface    -4.4215E+08 -2.4107E+08 -8.5783E+08  9.9013E+07  5.7608E+08  2.0886E+08  1.1824E-01
      10-
 mid.  surface     7.5237E+08  8.8757E+08  3.2638E+08  8.4170E+07  6.3178E+08  5.3919E+07  1.6227E-01
      11-
 mid.  surface     3.0377E+09  3.2893E+09  2.4318E+09  3.0917E+07  4.2600E+08  1.8154E+08  2.4990E-01
      12-
 mid.  surface     1.5573E+09  1.3908E+09  1.2145E+09  1.1854E+08  1.9903E+08 -1.0943E+08  7.9708E-02
      17-
 mid.  surface    -2.3077E+08  8.9346E+07 -2.8548E+08 -3.0647E+07  5.3249E+08  2.0196E+08  2.2117E-01
      18-
 mid.  surface     1.5111E+09  1.7307E+09  1.2673E+09  8.0093E+07  9.8709E+08  1.5095E+08  1.7262E-01
      19-
 mid.  surface    -2.7720E+09 -2.7812E+09 -2.1635E+09  6.2935E+07  1.9697E+08 -1.8406E+08  2.5251E-01
      20-
 mid.  surface    -1.5246E+09 -1.4697E+09 -2.0402E+09 -1.6051E+08 -5.5927E+08 -1.0257E+07  3.1436E-01
      21-
 mid.  surface    -3.5176E+09 -3.4652E+09 -2.2351E+09  7.0093E+06 -1.8820E+08 -1.1781E+08  1.2194E-01
      22-
 mid.  surface     1.0040E+09  9.4021E+08  1.6589E+09  1.9532E+07 -1.5624E+08 -2.7308E+07 -3.7892E-02
      23-
 mid.  surface     2.0335E+09  1.9976E+09  1.2071E+09 -1.1192E+08 -6.6516E+08 -8.0234E+07  3.0642E-01
      52-
 mid.  surface    -3.2204E+07 -3.6196E+08 -6.9149E+08 -5.5792E+07 -9.2143E+08 -2.6052E+08  3.8899E-01
      53-
 mid.  surface     4.9672E+08  2.7354E+08  1.5604E+08 -8.3472E+07 -5.8670E+08 -1.5890E+08  3.9048E-01
     124-
 mid.  surface    -2.4411E+08 -1.3843E+08 -2.4349E+08 -3.1591E+07  3.9663E+07  1.5580E+08  5.5538E-01
     125-
 mid.  surface     6.0226E+08  5.3565E+08 -4.0045E+08  5.1251E+05 -3.9802E+07  1.3603E+08  2.9009E-01
     148-
 mid.  surface    -3.1170E+08 -5.2676E+08 -6.4816E+08 -6.0823E+07 -7.2668E+08  7.9834E+06  4.6387E-01
     164-
 mid.  surface    -2.9177E+08 -6.0903E+08 -1.0268E+09 -2.9843E+07 -1.1418E+09 -5.5974E+07  4.2209E-01



 n o d a l  s t r a i n  c a l c u l a t i o n s   f o r   t i m e  s t e p      394   ( at time 5.96139E+01 )

 node (global)
          strain       eps-xx      eps-yy      eps-zz      eps-xy      eps-yz      eps-zx       
       1-
 mid.  surface     1.4194E-01  1.5437E-01 -2.5754E-01  1.9925E-02 -2.4179E-02  2.4649E-02
       2-
[...]
      23-
 mid.  surface     1.6213E-01  1.8695E-01 -3.2424E-01 -1.1038E-02  3.3351E-02 -1.8378E-02
      52-
 mid.  surface     1.6457E-01  1.5001E-01 -3.4760E-01 -1.0865E-02 -9.1721E-03 -1.5656E-02
      53-
 mid.  surface     1.8265E-01  2.0554E-01 -3.9871E-01 -3.9776E-03  1.1684E-01  2.8923E-02
     124-
 mid.  surface     1.4324E-01  1.7146E-01 -4.0383E-01 -2.7262E-02  6.1436E-02 -8.6130E-02
     125-
 mid.  surface     1.2048E-01  2.0202E-01 -3.4316E-01  8.1133E-03  5.4813E-02 -8.7199E-02
     148-
 mid.  surface     1.8778E-01  2.2870E-01 -4.3451E-01  2.9427E-03  9.5582E-02  3.9585E-02
     164-
 mid.  surface     1.6883E-01  1.5905E-01 -3.6358E-01  5.9594E-03 -9.8307E-02  1.5788E-02



 n o d a l  s t r e s s  c a l c u l a t i o n s   f o r   t i m e  s t e p      457   ( at time 8.96139E+01 )

 node (global)
          stress       sig-xx      sig-yy      sig-zz      sig-xy      sig-yz      sig-zx       plastic
                                                                                                 strain 
       1-
 mid.  surface    -7.3078E+08 -9.7871E+08 -3.9966E+09  1.3293E+07  2.4181E+07 -4.5477E+07  1.5513E+00
       2-
 mid.  surface    -9.6773E+08 -1.1656E+09 -3.3231E+09 -1.6701E+07  3.3348E+07 -2.0103E+07  1.4126E+00
       8-
 mid.  surface     1.5651E+08  1.1004E+08  1.5382E+09 -1.5522E+07  8.5799E+07 -3.6073E+06 -1.4850E-01
       9-
 mid.  surface    -3.2404E+07 -1.3157E+08 -5.8593E+08 -2.3228E+07  9.1543E+07 -1.3405E+07  4.2150E-01
      10-
 mid.  surface     3.1113E+07 -2.8943E+07 -5.0677E+08 -4.9426E+07  1.8671E+08  2.7034E+07  2.6029E-01
      11-
 mid.  surface    -3.5167E+08 -2.7728E+08  1.1035E+09 -8.7452E+07  2.3924E+08 -3.0135E+07  7.6911E-02
      12-
 mid.  surface    -9.7956E+08 -9.8850E+08 -9.1815E+08  3.8049E+06  5.9986E+07 -7.7572E+07 -2.0670E-01
      17-
 mid.  surface     8.3264E+08  8.4123E+08  9.8225E+08 -3.5652E+07  8.6420E+07 -4.2444E+07  6.3394E-01
      18-
 mid.  surface     5.1143E+07  6.1842E+06  1.4267E+09 -4.1493E+07  7.0281E+07  3.3295E+07 -1.8671E-01
      19-
 mid.  surface    -1.5100E+08 -1.6922E+08 -1.4379E+09  1.8619E+07  1.8847E+07 -8.8163E+07  4.4586E-01
      20-
 mid.  surface     1.3446E+09  1.3723E+09  4.6276E+08  5.1649E+07 -1.7378E+08 -1.4334E+07  9.4067E-01
      21-
 mid.  surface     4.1474E+08  4.8379E+08 -5.6505E+08  7.7165E+07 -1.6286E+08 -2.4855E+06  2.3706E-01
      22-
 mid.  surface    -4.7305E+08 -3.7715E+08  6.6581E+08  4.1254E+07 -9.3178E+07  1.1553E+07 -6.5093E-01
      23-
 mid.  surface     1.3980E+08  1.8397E+08  8.1072E+08  1.1321E+07 -3.4579E+07  1.0578E+07  2.4153E-01
      52-
 mid.  surface    -1.2836E+08 -8.4549E+07 -1.8214E+09  4.2390E+07 -9.3734E+07  5.4434E+06  7.7681E-01
      53-
 mid.  surface     4.5150E+07  7.7480E+07 -4.0402E+08  4.7652E+07 -1.6216E+08  4.4643E+07  3.9210E-01
     124-
 mid.  surface    -3.6173E+08 -4.0204E+08 -3.7270E+08 -3.5654E+07 -9.0510E+06  9.0873E+07  5.5590E-01
     125-
 mid.  surface    -4.7992E+08 -5.6296E+08 -1.5127E+09 -5.0863E+06 -3.0818E+07  6.0412E+07  6.3291E-01
     148-
 mid.  surface    -1.6230E+08 -3.7142E+07 -5.6609E+08  3.0874E+07 -1.5275E+08  2.8985E+06  6.5992E-01
     164-
 mid.  surface     1.5172E+08  2.3997E+08 -1.5146E+09  2.4369E+07 -1.5474E+08 -1.2252E+07  9.3407E-01



 n o d a l  s t r a i n  c a l c u l a t i o n s   f o r   t i m e  s t e p      457   ( at time 8.96139E+01 )

 node (global)
          strain       eps-xx      eps-yy      eps-zz      eps-xy      eps-yz      eps-zx       
       1-
 mid.  surface     1.7056E-01  2.3323E-01 -3.4506E-01  1.7295E-02 -2.2664E-02  3.5798E-02
       2-
 mid.  surface     2.0597E-01  1.8376E-01 -4.0167E-01 -1.9649E-02  3.2888E-02  6.9430E-02
       8-
 mid.  surface     1.9341E-01  2.2553E-01 -3.9115E-01  1.4144E-02 -5.6702E-02  1.4959E-02
       9-
 mid.  surface     1.7072E-01  1.3848E-01 -3.3670E-01  1.3168E-02 -1.2012E-01  8.1880E-03
      10-
 mid.  surface     1.7224E-01  1.2767E-01 -3.1645E-01 -4.1541E-03 -8.0618E-02 -3.9584E-03
      11-
 mid.  surface     1.5317E-01  1.6298E-01 -3.0293E-01 -2.0096E-02 -5.0452E-02  1.0758E-02
      12-
 mid.  surface     2.0711E-01  2.3382E-01 -3.9036E-01  4.3200E-02 -7.4570E-02 -2.1762E-03
      17-
 mid.  surface     1.4896E-01  2.0678E-01 -3.6953E-01 -3.0583E-02 -5.6330E-02 -5.3808E-03
      18-
 mid.  surface     1.8878E-01  2.0234E-01 -3.7341E-01  1.4204E-03 -5.9135E-02 -1.8847E-03
      19-
 mid.  surface     2.1591E-01  2.0990E-01 -4.5436E-01  1.7750E-02 -3.3867E-02 -3.3636E-03
      20-
 mid.  surface     1.6909E-01  2.1398E-01 -4.0105E-01 -1.6064E-02  1.0091E-01  4.1981E-02
      21-
 mid.  surface     2.0810E-01  1.9626E-01 -4.8306E-01  7.7967E-03  1.9548E-02 -4.8477E-02
      22-
 mid.  surface     1.9813E-01  2.2057E-01 -4.1684E-01  3.3833E-02 -1.3370E-03 -1.7221E-02
      23-
 mid.  surface     1.7100E-01  1.9895E-01 -3.4768E-01 -9.9318E-03  3.1631E-02 -1.4897E-02
      52-
 mid.  surface     1.7418E-01  1.6030E-01 -3.6957E-01 -8.6451E-03 -1.0366E-02 -1.4610E-02
      53-
 mid.  surface     1.8985E-01  2.1230E-01 -4.1086E-01 -4.2275E-03  1.0864E-01  2.6988E-02
     124-
 mid.  surface     1.5173E-01  1.7894E-01 -4.2262E-01 -2.7196E-02  6.6195E-02 -8.4241E-02
     125-
 mid.  surface     1.2974E-01  2.1000E-01 -3.5820E-01  7.0220E-03  5.7379E-02 -8.7642E-02
     148-
 mid.  surface     1.9634E-01  2.3376E-01 -4.4629E-01  1.0878E-03  8.8283E-02  3.7838E-02
     164-
 mid.  surface     1.7866E-01  1.6627E-01 -3.8571E-01  5.2487E-03 -1.0198E-01  1.2976E-02



 n o d a l  s t r e s s  c a l c u l a t i o n s   f o r   t i m e  s t e p      469   ( at time 9.46139E+01 )

 node (global)
          stress       sig-xx      sig-yy      sig-zz      sig-xy      sig-yz      sig-zx       plastic
                                                                                                 strain 
       1-
 mid.  surface    -6.4527E+07 -3.1573E+08 -3.3663E+09 -3.8632E+07 -6.0002E+07 -9.9101E+07  1.7764E+00
       2-
 mid.  surface    -5.2017E+08 -6.4634E+08 -2.8609E+09  2.1054E+07  4.5214E+06 -7.9132E+07  1.5761E+00
       8-
 mid.  surface     7.3135E+08  8.9315E+08  2.2357E+09  6.6559E+06  5.4130E+07 -4.1202E+06 -2.2576E-01
       9-
 mid.  surface    -9.3023E+08 -8.3865E+08 -1.3881E+09  1.7553E+06  4.7957E+07 -4.9298E+07  4.7641E-01
      10-
 mid.  surface     9.0945E+08  9.5276E+08  4.6088E+08 -2.3811E+07  2.2925E+08  5.2320E+07  2.9339E-01
      11-
 mid.  surface     4.6092E+08  6.1372E+08  2.0085E+09  1.0404E+08  2.6825E+08 -4.3122E+07 -1.9000E-02
      12-
 mid.  surface    -9.1287E+08 -9.4862E+08 -8.5347E+08 -5.2320E+06  9.3738E+06 -1.3208E+08 -2.1479E-01
      17-
 mid.  surface     7.3561E+08  8.6533E+08  9.2883E+08 -7.6623E+06 -4.6447E+07 -4.1941E+07  6.5214E-01
      18-
 mid.  surface     6.6502E+08  8.0848E+08  2.1242E+09 -6.6672E+07  1.2860E+07  6.6628E+07 -2.7895E-01
      19-
 mid.  surface    -2.0797E+08 -2.1099E+08 -1.4908E+09 -3.5597E+07 -4.4241E+06 -5.5869E+07  5.4615E-01
      20-
 mid.  surface     1.9890E+08  1.5525E+08 -7.5241E+08  1.7437E+07 -1.9422E+08  9.8288E+06  1.0047E+00
      21-
 mid.  surface    -7.1327E+07 -1.8796E+07 -1.0649E+09 -5.5098E+07 -8.8307E+07  8.1096E+07  3.1818E-01
      22-
 mid.  surface    -9.5829E+08 -8.5786E+08  1.8805E+08 -1.1235E+07 -1.6885E+07  2.0663E+07 -7.3395E-01
      23-
 mid.  surface    -1.1965E+08 -2.1351E+08  5.2582E+08  8.7874E+07  5.1999E+07 -3.3533E+07  1.7574E-01
      52-
 mid.  surface    -3.4708E+08 -5.6883E+08 -2.1757E+09 -1.4270E+07 -3.1448E+07  1.5873E+07  8.6457E-01
      53-
 mid.  surface    -5.0072E+08 -6.4130E+08 -1.0683E+09 -5.9736E+07 -1.6837E+08  9.2732E+07  3.9358E-01
     124-
 mid.  surface    -3.5558E+08 -3.5336E+08 -3.6339E+08  1.8230E+06  1.2720E+07  1.1739E+08  5.5755E-01
     125-
 mid.  surface    -1.4520E+08 -2.3921E+08 -1.2071E+09 -1.5903E+07 -5.3931E+07  7.2101E+07  7.0555E-01
     148-
 mid.  surface    -3.2313E+08 -4.6514E+08 -8.7414E+08  5.8761E+07 -1.5400E+08 -8.7211E+06  6.8784E-01
     164-
 mid.  surface    -1.2835E+09 -1.4345E+09 -3.0942E+09  4.0061E+07 -1.7101E+08 -4.8635E+07  1.0466E+00



 n o d a l  s t r a i n  c a l c u l a t i o n s   f o r   t i m e  s t e p      469   ( at time 9.46139E+01 )

 node (global)
          strain       eps-xx      eps-yy      eps-zz      eps-xy      eps-yz      eps-zx       
       1-
 mid.  surface     1.8075E-01  2.4902E-01 -3.6042E-01  1.9807E-02 -2.2323E-02  3.4705E-02
       2-
 mid.  surface     2.1936E-01  1.9728E-01 -4.2597E-01 -2.3117E-02  3.9693E-02  6.8477E-02
       8-
 mid.  surface     2.0670E-01  2.4762E-01 -4.1494E-01  1.4348E-02 -5.8599E-02  1.0669E-02
       9-
 mid.  surface     1.8393E-01  1.5108E-01 -3.7172E-01  1.2595E-02 -1.2107E-01  7.2587E-03
      10-
 mid.  surface     1.8305E-01  1.2090E-01 -3.2714E-01 -3.7800E-03 -7.8019E-02 -3.0498E-03
      11-
 mid.  surface     1.6595E-01  1.7569E-01 -3.2757E-01 -1.9906E-02 -4.7201E-02  1.6408E-02
      12-
 mid.  surface     2.2517E-01  2.4909E-01 -4.2623E-01  4.7370E-02 -7.4643E-02 -4.8898E-03
      17-
 mid.  surface     1.5998E-01  2.1979E-01 -3.9713E-01 -3.6690E-02 -5.4752E-02 -9.2352E-05
      18-
 mid.  surface     1.9783E-01  2.0363E-01 -3.8330E-01 -1.0967E-03 -5.8648E-02  3.0811E-04
      19-
 mid.  surface     2.3637E-01  2.1817E-01 -4.8884E-01  1.5637E-02 -3.1259E-02 -3.4910E-03
      20-
 mid.  surface     1.8366E-01  2.3524E-01 -4.3193E-01 -1.5652E-02  1.0775E-01  3.2134E-02
      21-
 mid.  surface     2.2252E-01  2.0666E-01 -5.1577E-01  3.8141E-03  1.3113E-02 -5.4148E-02
      22-
 mid.  surface     2.1030E-01  2.3585E-01 -4.4907E-01  3.6937E-02 -1.0064E-02 -1.6112E-02
      23-
 mid.  surface     1.8813E-01  2.2293E-01 -3.8069E-01 -4.6392E-03  4.1887E-02 -2.4550E-02
      52-
 mid.  surface     1.8726E-01  1.6871E-01 -3.8959E-01 -7.0466E-03 -2.6441E-02 -1.1134E-02
      53-
 mid.  surface     1.9919E-01  2.2345E-01 -4.3131E-01 -5.2633E-03  1.1530E-01  3.4452E-02
     124-
 mid.  surface     1.6186E-01  1.9365E-01 -4.4929E-01 -3.1951E-02  7.0266E-02 -7.9313E-02
     125-
 mid.  surface     1.3776E-01  2.2494E-01 -3.7600E-01  7.8619E-03  5.8378E-02 -8.2714E-02
     148-
 mid.  surface     2.1278E-01  2.5183E-01 -4.7742E-01  1.3056E-03  8.8419E-02  3.8658E-02
     164-
 mid.  surface     1.9074E-01  1.7596E-01 -4.2630E-01  5.3052E-03 -1.1253E-01  1.3634E-02



 n o d a l  s t r e s s  c a l c u l a t i o n s   f o r   t i m e  s t e p      476   ( at time 9.96139E+01 )

 node (global)
          stress       sig-xx      sig-yy      sig-zz      sig-xy      sig-yz      sig-zx       plastic
                                                                                                 strain 
       1-
 mid.  surface    -6.1998E+08 -8.1644E+08 -3.9230E+09 -1.5198E+07  4.2745E+07 -6.6695E+07  1.9112E+00
       2-
 mid.  surface    -1.0030E+09 -1.1638E+09 -3.3835E+09 -2.0672E+07  4.0937E+07 -3.0108E+07  1.6728E+00
       8-
 mid.  surface     5.8167E+08  5.6764E+08  2.0018E+09 -4.7573E+07  2.4941E+07 -2.2956E+07 -3.0708E-01
       9-
 mid.  surface    -1.6590E+09 -1.7634E+09 -2.2264E+09 -1.5179E+07 -1.7600E+08 -4.2104E+07  4.9727E-01
      10-
 mid.  surface     9.7782E+07  2.8645E+07 -4.4427E+08 -2.8664E+07 -1.2153E+07 -1.9013E+07  3.1181E-01
      11-
 mid.  surface    -2.3730E+08 -2.1744E+08  1.2230E+09 -9.0938E+07  8.8087E+07 -3.8418E+07 -9.2808E-02
      12-
 mid.  surface    -9.6726E+08 -1.0024E+09 -9.1869E+08 -1.6482E+07  4.9270E+07 -5.5086E+07 -2.2140E-01
      17-
 mid.  surface     4.0376E+08  4.1168E+08  5.6202E+08 -4.2806E+07 -2.9117E+07 -6.7857E+07  6.3564E-01
      18-
 mid.  surface     2.3112E+08  2.1820E+08  1.6574E+09 -6.2490E+07  9.3077E+06  1.5983E+07 -3.5808E-01
      19-
 mid.  surface    -2.1405E+08 -2.2698E+08 -1.5258E+09  2.8210E+07 -7.1375E+06 -9.2365E+07  6.0660E-01
      20-
 mid.  surface     9.9962E+08  1.0420E+09  1.0165E+08  5.4720E+07 -6.1210E+07 -8.0932E+06  1.0536E+00
      21-
 mid.  surface     4.8220E+08  5.9253E+08 -5.0202E+08  1.0554E+08 -9.4583E+07 -1.3111E+07  3.7757E-01
      22-
 mid.  surface    -4.6615E+08 -3.5671E+08  6.9496E+08  4.4200E+07 -3.2412E+07  3.6394E+07 -7.7448E-01
      23-
 mid.  surface     2.5492E+08  2.6034E+08  9.1047E+08  1.0180E+07  4.6080E+07  4.6815E+07  1.5296E-01
      52-
 mid.  surface     9.6598E+07  1.1170E+08 -1.6486E+09  6.0117E+07  2.0927E+07  2.2120E+07  9.6027E-01
      53-
 mid.  surface     5.6429E+08  5.9592E+08  1.0222E+08  3.9831E+07  4.7446E+07  6.3704E+07  4.2193E-01
     124-
 mid.  surface    -5.4443E+08 -5.6272E+08 -5.4177E+08 -1.5680E+07 -9.0064E+06  7.8076E+07  5.5739E-01
     125-
 mid.  surface    -4.4187E+08 -5.0396E+08 -1.4810E+09 -1.1616E+07 -1.5585E+07  3.5889E+07  7.4763E-01
     148-
 mid.  surface     6.5607E+08  7.7985E+08  2.2880E+08  4.0124E+07  7.3408E+07  2.7771E+07  7.1648E-01
     164-
 mid.  surface    -7.4942E+08 -6.9163E+08 -2.4721E+09  6.5331E+07 -6.6396E+07  2.3600E+07  1.1414E+00



 n o d a l  s t r a i n  c a l c u l a t i o n s   f o r   t i m e  s t e p      476   ( at time 9.96139E+01 )

 node (global)
          strain       eps-xx      eps-yy      eps-zz      eps-xy      eps-yz      eps-zx       
       1-
 mid.  surface     1.9002E-01  2.5471E-01 -3.7333E-01  2.0438E-02 -2.1425E-02  3.4639E-02
       2-
 mid.  surface     2.2749E-01  2.0227E-01 -4.4311E-01 -2.2854E-02  4.0519E-02  6.7067E-02
       8-
 mid.  surface     2.1486E-01  2.6014E-01 -4.3526E-01  1.5250E-02 -5.6926E-02  1.1833E-02
       9-
 mid.  surface     1.9478E-01  1.6754E-01 -3.9388E-01  1.5336E-02 -1.2313E-01  9.1625E-03
      10-
 mid.  surface     1.9409E-01  1.3647E-01 -3.5001E-01 -1.8685E-03 -7.8824E-02 -2.5427E-03
      11-
 mid.  surface     1.7718E-01  1.9022E-01 -3.5203E-01 -1.6091E-02 -4.3933E-02  1.8183E-02
      12-
 mid.  surface     2.3369E-01  2.5755E-01 -4.4340E-01  4.9015E-02 -7.3564E-02 -4.7730E-03
      17-
 mid.  surface     1.7132E-01  2.2714E-01 -4.1803E-01 -3.5629E-02 -4.9472E-02  2.2728E-03
      18-
 mid.  surface     2.0651E-01  2.1370E-01 -4.0763E-01 -1.7950E-03 -5.5823E-02  1.9180E-03
      19-
 mid.  surface     2.4582E-01  2.2246E-01 -5.0351E-01  1.6022E-02 -2.9418E-02 -3.5421E-03
      20-
 mid.  surface     1.9161E-01  2.4263E-01 -4.4790E-01 -1.5383E-02  1.0032E-01  2.8261E-02
      21-
 mid.  surface     2.2980E-01  2.1305E-01 -5.3202E-01  2.4276E-03  1.0009E-02 -5.6255E-02
      22-
 mid.  surface     2.1811E-01  2.4443E-01 -4.6696E-01  3.5464E-02 -1.6011E-02 -1.7667E-02
      23-
 mid.  surface     1.9642E-01  2.3424E-01 -4.0213E-01 -3.2953E-03  4.1941E-02 -2.1187E-02
      52-
 mid.  surface     1.9633E-01  1.7875E-01 -4.0846E-01 -5.1418E-03 -2.1320E-02 -9.5587E-03
      53-
 mid.  surface     2.0744E-01  2.2968E-01 -4.4679E-01 -5.5965E-03  1.0888E-01  3.1934E-02
     124-
 mid.  surface     1.6907E-01  2.0227E-01 -4.6945E-01 -3.2290E-02  7.5209E-02 -7.6858E-02
     125-
 mid.  surface     1.4555E-01  2.3304E-01 -3.9168E-01  6.4789E-03  6.2887E-02 -8.1542E-02
     148-
 mid.  surface     2.2174E-01  2.5459E-01 -4.9010E-01 -2.3562E-04  8.6796E-02  3.5203E-02
     164-
 mid.  surface     2.0066E-01  1.8084E-01 -4.4055E-01  4.8593E-03 -1.1278E-01  1.4823E-02



 n o d a l  s t r e s s  c a l c u l a t i o n s   f o r   t i m e  s t e p      480   ( at time 1.00000E+02 )

 node (global)
          stress       sig-xx      sig-yy      sig-zz      sig-xy      sig-yz      sig-zx       plastic
                                                                                                 strain 
       1-
 mid.  surface    -5.1444E+08 -6.8929E+08 -3.8117E+09 -2.4621E+07 -5.5764E+06 -6.5279E+07  1.9229E+00
       2-
 mid.  surface    -9.2822E+08 -1.0667E+09 -3.2997E+09 -1.8737E+07  2.1869E+07 -3.7883E+07  1.6813E+00
       8-
 mid.  surface     7.6315E+08  8.9009E+08  2.2566E+09 -6.8186E+06 -1.9644E+07 -5.0152E+07 -3.1017E-01
       9-
 mid.  surface    -1.5250E+09 -1.5600E+09 -2.0664E+09  2.8724E+07 -9.3739E+07 -1.8806E+07  4.9993E-01
      10-
 mid.  surface     1.3536E+08  9.1713E+07 -4.4530E+08 -1.0241E+07  2.5744E+07  4.3958E+07  3.1388E-01
      11-
 mid.  surface    -2.3771E+08 -1.8284E+08  1.2890E+09 -8.9553E+06  7.7746E+07 -4.9982E+07 -9.7593E-02
      12-
 mid.  surface    -9.6387E+08 -1.0049E+09 -9.1557E+08 -2.9949E+06  3.0044E+07 -8.3881E+07 -2.2147E-01
      17-
 mid.  surface     5.2828E+08  5.9208E+08  6.5892E+08 -3.3881E+07 -3.6838E+07 -4.9965E+07  6.3730E-01
      18-
 mid.  surface     3.7311E+08  4.3909E+08  1.7014E+09 -5.4790E+07  1.7387E+07  1.7334E+07 -3.6127E-01
      19-
 mid.  surface    -1.5969E+08 -1.6408E+08 -1.4671E+09 -5.7580E+06 -9.3244E+06 -8.2936E+07  6.1162E-01
      20-
 mid.  surface     9.5817E+08  1.0084E+09  1.1015E+08  1.7283E+07 -6.7844E+07 -5.6969E+06  1.0566E+00
      21-
 mid.  surface     4.7169E+08  5.6468E+08 -5.2517E+08  2.6077E+07 -6.1971E+07  2.3030E+07  3.8112E-01
      22-
 mid.  surface    -5.3342E+08 -4.4599E+08  6.1458E+08  2.3424E+07 -7.5228E+06  3.1129E+07 -7.7897E-01
      23-
 mid.  surface     1.0404E+08  6.9053E+07  8.1581E+08  4.6406E+07  3.0196E+07  1.8926E+07  1.4898E-01
      52-
 mid.  surface    -1.0804E+08 -2.3479E+08 -1.8760E+09  2.3597E+07  1.8540E+07  3.5873E+07  9.6342E-01
      53-
 mid.  surface     3.8221E+08  3.1508E+08 -1.7392E+08 -2.0904E+07  2.9163E+07  5.7628E+07  4.2158E-01
     124-
 mid.  surface    -5.5137E+08 -5.6502E+08 -5.5037E+08 -1.5295E+07  3.4865E+06  9.4114E+07  5.5731E-01
     125-
 mid.  surface    -4.3630E+08 -4.8807E+08 -1.4756E+09 -1.7961E+07 -2.2907E+07  5.9893E+07  7.5135E-01
     148-
 mid.  surface     5.1714E+08  5.3062E+08  3.8414E+07  9.8316E+05  3.5524E+07  3.2364E+06  7.1652E-01
     164-
 mid.  surface    -8.7904E+08 -1.0069E+09 -2.7020E+09  2.7196E+07 -2.0339E+07  3.4390E+07  1.1449E+00



 n o d a l  s t r a i n  c a l c u l a t i o n s   f o r   t i m e  s t e p      480   ( at time 1.00000E+02 )

 node (global)
          strain       eps-xx      eps-yy      eps-zz      eps-xy      eps-yz      eps-zx       
       1-
 mid.  surface     1.9063E-01  2.5568E-01 -3.7387E-01  2.0710E-02 -2.1382E-02  3.4412E-02
       2-
 mid.  surface     2.2824E-01  2.0312E-01 -4.4422E-01 -2.3068E-02  4.0880E-02  6.6698E-02
       8-
 mid.  surface     2.1585E-01  2.5967E-01 -4.3522E-01  1.5170E-02 -5.7658E-02  1.2020E-02
       9-
 mid.  surface     1.9530E-01  1.6571E-01 -3.9432E-01  1.5048E-02 -1.2308E-01  9.2373E-03
      10-
 mid.  surface     1.9429E-01  1.3521E-01 -3.5045E-01 -2.1550E-03 -7.8771E-02 -2.3535E-03
      11-
 mid.  surface     1.7769E-01  1.9089E-01 -3.5317E-01 -1.5979E-02 -4.3836E-02  1.8513E-02
      12-
 mid.  surface     2.3468E-01  2.5852E-01 -4.4549E-01  4.9110E-02 -7.3524E-02 -4.8728E-03
      17-
 mid.  surface     1.7179E-01  2.2771E-01 -4.1911E-01 -3.5974E-02 -4.9471E-02  2.5258E-03
      18-
 mid.  surface     2.0686E-01  2.1313E-01 -4.0757E-01 -2.2150E-03 -5.6284E-02  2.2067E-03
      19-
 mid.  surface     2.4702E-01  2.2294E-01 -5.0550E-01  1.5696E-02 -2.9269E-02 -3.6477E-03
      20-
 mid.  surface     1.9234E-01  2.4341E-01 -4.4923E-01 -1.5668E-02  1.0063E-01  2.7667E-02
      21-
 mid.  surface     2.3058E-01  2.1371E-01 -5.3375E-01  2.2409E-03  9.8145E-03 -5.6685E-02
      22-
 mid.  surface     2.1885E-01  2.4540E-01 -4.6868E-01  3.5572E-02 -1.6325E-02 -1.7214E-02
      23-
 mid.  surface     1.9717E-01  2.3511E-01 -4.0380E-01 -3.1030E-03  4.2620E-02 -2.1697E-02
      52-
 mid.  surface     1.9686E-01  1.7887E-01 -4.1000E-01 -5.1089E-03 -2.2371E-02 -9.9410E-03
      53-
 mid.  surface     2.0783E-01  2.3034E-01 -4.4824E-01 -6.0615E-03  1.0943E-01  3.2137E-02
     124-
 mid.  surface     1.6943E-01  2.0332E-01 -4.7035E-01 -3.2590E-02  7.5018E-02 -7.6290E-02
     125-
 mid.  surface     1.4577E-01  2.3389E-01 -3.9194E-01  6.5075E-03  6.2922E-02 -8.1118E-02
     148-
 mid.  surface     2.2244E-01  2.5660E-01 -4.9192E-01 -2.3466E-05  8.8152E-02  3.5578E-02
     164-
 mid.  surface     2.0146E-01  1.8199E-01 -4.4251E-01  5.1938E-03 -1.1417E-01  1.4408E-02
