 LS-DYNA keyword deck by LS-PrePost                                      
                    ls-dyna smp d R14 R14.1.1s_1_ef50e1 date 06/16/2024

{BEGIN LEGEND}
 Entity #        Title
        1                                                                                     
        2                                                                                     
        3                                                                                     
        4                                                                                     
        5                                                                                     
        6                                                                                     
        7                                                                                     
        8                                                                                     
        9                                                                                     
       10                                                                                     
       11                                                                                     
       12                                                                                     
       13                                                                                     
       14                                                                                     
       15                                                                                     
       16                                                                                     
       17                                                                                     
       18                                                                                     
       19                                                                                     
      220                                                                                     
      221                                                                                     
      222                                                                                     
      223                                                                                     
      248                                                                                     
      249                                                                                     
      286                                                                                     
      287                                                                                     
      288                                                                                     
      301                                                                                     
      314                                                                                     
      363                                                                                     
      364                                                                                     
      365                                                                                     
      366                                                                                     
      379                                                                                     
      404                                                                                     
      405                                                                                     
      418                                                                                     
      438                                                                                     
      439                                                                                     
      440                                                                                     
      441                                                                                     
      442                                                                                     
      443                                                                                     
      444                                                                                     
      591                                                                                     
      592                                                                                     
      595                                                                                     
      596                                                                                     
      599                                                                                     
      600                                                                                     
      603                                                                                     
      604                                                                                     
      638                                                                                     
      639                                                                                     
      641                                                                                     
      642                                                                                     
      644                                                                                     
      645                                                                                     
      647                                                                                     
      648                                                                                     
      674                                                                                     
      676                                                                                     
      678                                                                                     
      680                                                                                     
      821                                                                                     
      822                                                                                     
      823                                                                                     
      824                                                                                     
      850                                                                                     
      852                                                                                     
      854                                                                                     
      856                                                                                     
{END LEGEND}




 n o d a l   p r i n t   o u t   f o r   t i m e  s t e p       1                              ( at time 0.0000000E+00 )

 nodal point  x-disp     y-disp      z-disp      x-vel       y-vel       z-vel      x-accl      y-accl      z-accl      x-coor      y-coor      z-coor
        1  0.00000E+00 0.00000E+00 0.00000E+00 0.00000E+00 0.00000E+00 0.00000E+00 0.00000E+00 0.00000E+00 0.00000E+00 3.17500E-03 0.00000E+00-1.78000E-18
        2  0.00000E+00 0.00000E+00 0.00000E+00 0.00000E+00 0.00000E+00 0.00000E+00 0.00000E+00 0.00000E+00 0.00000E+00 2.38130E-03 0.00000E+00 0.00000E+00
        3  0.00000E+00 0.00000E+00 0.00000E+00 0.00000E+00 0.00000E+00 0.00000E+00 0.00000E+00 0.00000E+00 0.00000E+00 1.58750E-03 0.00000E+00 0.00000E+00
        4  0.00000E+00 0.00000E+00 0.00000E+00 0.00000E+00 0.00000E+00 0.00000E+00 0.00000E+00 0.00000E+00 0.00000E+00 7.93750E-04 0.00000E+00 0.00000E+00
        5  0.00000E+00 0.00000E+00 0.00000E+00 0.00000E+00 0.00000E+00 0.00000E+00 0.00000E+00 0.00000E+00 0.00000E+00 0.00000E+00 0.00000E+00 0.00000E+00
        6  0.00000E+00 0.00000E+00 0.00000E+00 0.00000E+00 0.00000E+00 0.00000E+00 0.00000E+00 0.00000E+00 0.00000E+00 4.86000E-20 7.93750E-04 0.00000E+00
        7  0.00000E+00 0.00000E+00 0.00000E+00 0.00000E+00 0.00000E+00 0.00000E+00 0.00000E+00 0.00000E+00 0.00000E+00 9.72100E-20 1.58750E-03 0.00000E+00
        8  0.00000E+00 0.00000E+00 0.00000E+00 0.00000E+00 0.00000E+00 0.00000E+00 0.00000E+00 0.00000E+00 0.00000E+00 1.45800E-19 2.38130E-03 0.00000E+00
        9  0.00000E+00 0.00000E+00 0.00000E+00 0.00000E+00 0.00000E+00 0.00000E+00 0.00000E+00 0.00000E+00 0.00000E+00 1.94400E-19 3.17500E-03 0.00000E+00
       10  0.00000E+00 0.00000E+00 0.00000E+00 0.00000E+00 0.00000E+00 0.00000E+00 0.00000E+00 0.00000E+00 0.00000E+00 1.21500E-03 2.93330E-03 0.00000E+00
       11  0.00000E+00 0.00000E+00 0.00000E+00 0.00000E+00 0.00000E+00 0.00000E+00 0.00000E+00 0.00000E+00 0.00000E+00 2.24510E-03 2.24510E-03 0.00000E+00
       12  0.00000E+00 0.00000E+00 0.00000E+00 0.00000E+00 0.00000E+00 0.00000E+00 0.00000E+00 0.00000E+00 0.00000E+00 2.93330E-03 1.21500E-03 0.00000E+00
       13  0.00000E+00 0.00000E+00 0.00000E+00 0.00000E+00 0.00000E+00 0.00000E+00 0.00000E+00 0.00000E+00 0.00000E+00 1.30830E-03 1.35190E-03 0.00000E+00
       14  0.00000E+00 0.00000E+00 0.00000E+00 0.00000E+00 0.00000E+00 0.00000E+00 0.00000E+00 0.00000E+00 0.00000E+00 1.48830E-03 7.06977E-04 0.00000E+00
       15  0.00000E+00 0.00000E+00 0.00000E+00 0.00000E+00 0.00000E+00 0.00000E+00 0.00000E+00 0.00000E+00 0.00000E+00 6.69510E-04 1.50700E-03 0.00000E+00
       16  0.00000E+00 0.00000E+00 0.00000E+00 0.00000E+00 0.00000E+00 0.00000E+00 0.00000E+00 0.00000E+00 0.00000E+00 7.53638E-04 7.82337E-04 0.00000E+00
       17  0.00000E+00 0.00000E+00 0.00000E+00 0.00000E+00 0.00000E+00 0.00000E+00 0.00000E+00 0.00000E+00 0.00000E+00 1.73630E-03 1.76750E-03 0.00000E+00
       18  0.00000E+00 0.00000E+00 0.00000E+00 0.00000E+00 0.00000E+00 0.00000E+00 0.00000E+00 0.00000E+00 0.00000E+00 9.20131E-04 2.19110E-03 0.00000E+00
       19  0.00000E+00 0.00000E+00 0.00000E+00 0.00000E+00 0.00000E+00 0.00000E+00 0.00000E+00 0.00000E+00 0.00000E+00 2.16330E-03 9.50859E-04 0.00000E+00
      220  0.00000E+00 0.00000E+00 0.00000E+00 0.00000E+00 0.00000E+00 0.00000E+00 0.00000E+00 0.00000E+00 0.00000E+00 2.13900E-19 3.49250E-03 2.54000E-02
      221  0.00000E+00 0.00000E+00 0.00000E+00 0.00000E+00 0.00000E+00 0.00000E+00 0.00000E+00 0.00000E+00 0.00000E+00 1.47250E-03 3.31440E-03 2.54000E-02
      222  0.00000E+00 0.00000E+00 0.00000E+00 0.00000E+00 0.00000E+00 0.00000E+00 0.00000E+00 0.00000E+00 0.00000E+00 2.02380E-03 4.81920E-03 2.54000E-02
      223  0.00000E+00 0.00000E+00 0.00000E+00 0.00000E+00 0.00000E+00 0.00000E+00 0.00000E+00 0.00000E+00 0.00000E+00 3.20800E-19 5.23880E-03 2.54000E-02
      248  0.00000E+00 0.00000E+00 0.00000E+00 0.00000E+00 0.00000E+00 0.00000E+00 0.00000E+00 0.00000E+00 0.00000E+00 2.67340E-03 6.45320E-03 2.54000E-02
      249  0.00000E+00 0.00000E+00 0.00000E+00 0.00000E+00 0.00000E+00 0.00000E+00 0.00000E+00 0.00000E+00 0.00000E+00 4.27700E-19 6.98500E-03 2.54000E-02
      286  0.00000E+00 0.00000E+00 0.00000E+00 0.00000E+00 0.00000E+00 0.00000E+00 0.00000E+00 0.00000E+00 0.00000E+00 3.27330E-03 1.55480E-03 2.54000E-02
      287  0.00000E+00 0.00000E+00 0.00000E+00 0.00000E+00 0.00000E+00 0.00000E+00 0.00000E+00 0.00000E+00 0.00000E+00 2.87770E-03 2.97340E-03 2.54000E-02
      288  0.00000E+00 0.00000E+00 0.00000E+00 0.00000E+00 0.00000E+00 0.00000E+00 0.00000E+00 0.00000E+00 0.00000E+00 1.65770E-03 1.72080E-03 2.54000E-02
      301  0.00000E+00 0.00000E+00 0.00000E+00 0.00000E+00 0.00000E+00 0.00000E+00 0.00000E+00 0.00000E+00 0.00000E+00 3.81930E-03 3.88770E-03 2.54000E-02
      314  0.00000E+00 0.00000E+00 0.00000E+00 0.00000E+00 0.00000E+00 0.00000E+00 0.00000E+00 0.00000E+00 0.00000E+00 4.93910E-03 4.93910E-03 2.54000E-02
      363  0.00000E+00 0.00000E+00 0.00000E+00 0.00000E+00 0.00000E+00 0.00000E+00 0.00000E+00 0.00000E+00 0.00000E+00 6.45340E-03 2.67290E-03 2.54000E-02
      364  0.00000E+00 0.00000E+00 0.00000E+00 0.00000E+00 0.00000E+00 0.00000E+00 0.00000E+00 0.00000E+00 0.00000E+00 4.75810E-03 2.09120E-03 2.54000E-02
      365  0.00000E+00 0.00000E+00 0.00000E+00 0.00000E+00 0.00000E+00 0.00000E+00 0.00000E+00 0.00000E+00 0.00000E+00 5.23880E-03 0.00000E+00 2.54000E-02
      366  0.00000E+00 0.00000E+00 0.00000E+00 0.00000E+00 0.00000E+00 0.00000E+00 0.00000E+00 0.00000E+00 0.00000E+00 6.98500E-03 0.00000E+00 2.54000E-02
      379  0.00000E+00 0.00000E+00 0.00000E+00 0.00000E+00 0.00000E+00 0.00000E+00 0.00000E+00 0.00000E+00 0.00000E+00 1.06900E-19 1.74630E-03 2.54000E-02
      404  0.00000E+00 0.00000E+00 0.00000E+00 0.00000E+00 0.00000E+00 0.00000E+00 0.00000E+00 0.00000E+00 0.00000E+00 1.74630E-03 0.00000E+00 2.54000E-02
      405  0.00000E+00 0.00000E+00 0.00000E+00 0.00000E+00 0.00000E+00 0.00000E+00 0.00000E+00 0.00000E+00 0.00000E+00 0.00000E+00 0.00000E+00 2.54000E-02
      418  0.00000E+00 0.00000E+00 0.00000E+00 0.00000E+00 0.00000E+00 0.00000E+00 0.00000E+00 0.00000E+00 0.00000E+00 3.49250E-03 0.00000E+00 2.54000E-02
      438  0.00000E+00 0.00000E+00 0.00000E+00 0.00000E+00 0.00000E+00 0.00000E+00 0.00000E+00 0.00000E+00 0.00000E+00 1.27000E-02 0.00000E+00 2.54000E-02
      439  0.00000E+00 0.00000E+00 0.00000E+00 0.00000E+00 0.00000E+00 0.00000E+00 0.00000E+00 0.00000E+00 0.00000E+00 1.18836E-02 0.00000E+00 2.54000E-02
      440  0.00000E+00 0.00000E+00 0.00000E+00 0.00000E+00 0.00000E+00 0.00000E+00 0.00000E+00 0.00000E+00 0.00000E+00 1.10671E-02 0.00000E+00 2.54000E-02
      441  0.00000E+00 0.00000E+00 0.00000E+00 0.00000E+00 0.00000E+00 0.00000E+00 0.00000E+00 0.00000E+00 0.00000E+00 1.02507E-02 0.00000E+00 2.54000E-02
      442  0.00000E+00 0.00000E+00 0.00000E+00 0.00000E+00 0.00000E+00 0.00000E+00 0.00000E+00 0.00000E+00 0.00000E+00 9.43430E-03 0.00000E+00 2.54000E-02
      443  0.00000E+00 0.00000E+00 0.00000E+00 0.00000E+00 0.00000E+00 0.00000E+00 0.00000E+00 0.00000E+00 0.00000E+00 8.61790E-03 0.00000E+00 2.54000E-02
      444  0.00000E+00 0.00000E+00 0.00000E+00 0.00000E+00 0.00000E+00 0.00000E+00 0.00000E+00 0.00000E+00 0.00000E+00 7.80140E-03 0.00000E+00 2.54000E-02
      591  0.00000E+00 0.00000E+00 0.00000E+00 0.00000E+00 0.00000E+00 0.00000E+00 0.00000E+00 0.00000E+00 0.00000E+00 7.97270E-03 3.27150E-03 2.54000E-02
      592  0.00000E+00 0.00000E+00 0.00000E+00 0.00000E+00 0.00000E+00 0.00000E+00 0.00000E+00 0.00000E+00 0.00000E+00 8.73230E-03 3.57080E-03 2.54000E-02
      595  0.00000E+00 0.00000E+00 0.00000E+00 0.00000E+00 0.00000E+00 0.00000E+00 0.00000E+00 0.00000E+00 0.00000E+00 6.09600E-03 6.09150E-03 2.54000E-02
      596  0.00000E+00 0.00000E+00 0.00000E+00 0.00000E+00 0.00000E+00 0.00000E+00 0.00000E+00 0.00000E+00 0.00000E+00 6.67450E-03 6.66760E-03 2.54000E-02
      599  0.00000E+00 0.00000E+00 0.00000E+00 0.00000E+00 0.00000E+00 0.00000E+00 0.00000E+00 0.00000E+00 0.00000E+00 3.27630E-03 7.97070E-03 2.54000E-02
      600  0.00000E+00 0.00000E+00 0.00000E+00 0.00000E+00 0.00000E+00 0.00000E+00 0.00000E+00 0.00000E+00 0.00000E+00 3.57780E-03 8.72950E-03 2.54000E-02
      603  0.00000E+00 0.00000E+00 0.00000E+00 0.00000E+00 0.00000E+00 0.00000E+00 0.00000E+00 0.00000E+00 0.00000E+00 5.27700E-19 8.61790E-03 2.54000E-02
      604  0.00000E+00 0.00000E+00 0.00000E+00 0.00000E+00 0.00000E+00 0.00000E+00 0.00000E+00 0.00000E+00 0.00000E+00 5.77700E-19 9.43430E-03 2.54000E-02
      638  0.00000E+00 0.00000E+00 0.00000E+00 0.00000E+00 0.00000E+00 0.00000E+00 0.00000E+00 0.00000E+00 0.00000E+00 1.02517E-02 4.16940E-03 2.54000E-02
      639  0.00000E+00 0.00000E+00 0.00000E+00 0.00000E+00 0.00000E+00 0.00000E+00 0.00000E+00 0.00000E+00 0.00000E+00 1.10113E-02 4.46870E-03 2.54000E-02
      641  0.00000E+00 0.00000E+00 0.00000E+00 0.00000E+00 0.00000E+00 0.00000E+00 0.00000E+00 0.00000E+00 0.00000E+00 7.83140E-03 7.81990E-03 2.54000E-02
      642  0.00000E+00 0.00000E+00 0.00000E+00 0.00000E+00 0.00000E+00 0.00000E+00 0.00000E+00 0.00000E+00 0.00000E+00 8.40990E-03 8.39600E-03 2.54000E-02
      644  0.00000E+00 0.00000E+00 0.00000E+00 0.00000E+00 0.00000E+00 0.00000E+00 0.00000E+00 0.00000E+00 0.00000E+00 4.18070E-03 1.02471E-02 2.54000E-02
      645  0.00000E+00 0.00000E+00 0.00000E+00 0.00000E+00 0.00000E+00 0.00000E+00 0.00000E+00 0.00000E+00 0.00000E+00 4.48220E-03 1.10058E-02 2.54000E-02
      647  0.00000E+00 0.00000E+00 0.00000E+00 0.00000E+00 0.00000E+00 0.00000E+00 0.00000E+00 0.00000E+00 0.00000E+00 6.77700E-19 1.10671E-02 2.54000E-02
      648  0.00000E+00 0.00000E+00 0.00000E+00 0.00000E+00 0.00000E+00 0.00000E+00 0.00000E+00 0.00000E+00 0.00000E+00 7.27700E-19 1.18836E-02 2.54000E-02
      674  0.00000E+00 0.00000E+00 0.00000E+00 0.00000E+00 0.00000E+00 0.00000E+00 0.00000E+00 0.00000E+00 0.00000E+00 7.21300E-03 2.97220E-03 2.54000E-02
      676  0.00000E+00 0.00000E+00 0.00000E+00 0.00000E+00 0.00000E+00 0.00000E+00 0.00000E+00 0.00000E+00 0.00000E+00 5.51760E-03 5.51530E-03 2.54000E-02
      678  0.00000E+00 0.00000E+00 0.00000E+00 0.00000E+00 0.00000E+00 0.00000E+00 0.00000E+00 0.00000E+00 0.00000E+00 2.97480E-03 7.21200E-03 2.54000E-02
      680  0.00000E+00 0.00000E+00 0.00000E+00 0.00000E+00 0.00000E+00 0.00000E+00 0.00000E+00 0.00000E+00 0.00000E+00 4.77700E-19 7.80140E-03 2.54000E-02
      821  0.00000E+00 0.00000E+00 0.00000E+00 0.00000E+00 0.00000E+00 0.00000E+00 0.00000E+00 0.00000E+00 0.00000E+00 9.49200E-03 3.87010E-03 2.54000E-02
      822  0.00000E+00 0.00000E+00 0.00000E+00 0.00000E+00 0.00000E+00 0.00000E+00 0.00000E+00 0.00000E+00 0.00000E+00 7.25290E-03 7.24380E-03 2.54000E-02
      823  0.00000E+00 0.00000E+00 0.00000E+00 0.00000E+00 0.00000E+00 0.00000E+00 0.00000E+00 0.00000E+00 0.00000E+00 3.87930E-03 9.48830E-03 2.54000E-02
      824  0.00000E+00 0.00000E+00 0.00000E+00 0.00000E+00 0.00000E+00 0.00000E+00 0.00000E+00 0.00000E+00 0.00000E+00 6.27700E-19 1.02507E-02 2.54000E-02
      850  0.00000E+00 0.00000E+00 0.00000E+00 0.00000E+00 0.00000E+00 0.00000E+00 0.00000E+00 0.00000E+00 0.00000E+00 1.17710E-02 4.76810E-03 2.54000E-02
      852  0.00000E+00 0.00000E+00 0.00000E+00 0.00000E+00 0.00000E+00 0.00000E+00 0.00000E+00 0.00000E+00 0.00000E+00 8.98830E-03 8.97220E-03 2.54000E-02
      854  0.00000E+00 0.00000E+00 0.00000E+00 0.00000E+00 0.00000E+00 0.00000E+00 0.00000E+00 0.00000E+00 0.00000E+00 4.78370E-03 1.17646E-02 2.54000E-02
      856  0.00000E+00 0.00000E+00 0.00000E+00 0.00000E+00 0.00000E+00 0.00000E+00 0.00000E+00 0.00000E+00 0.00000E+00 7.77700E-19 1.27000E-02 2.54000E-02



 n o d a l   p r i n t   o u t   f o r   t i m e  s t e p      10                              ( at time 1.2924466E+00 )

 nodal point  x-disp     y-disp      z-disp      x-vel       y-vel       z-vel      x-accl      y-accl      z-accl      x-coor      y-coor      z-coor
        1  1.59199E-06 0.00000E+00 0.00000E+00 0.00000E+00 0.00000E+00 0.00000E+00 0.00000E+00 0.00000E+00 0.00000E+00 3.17659E-03 0.00000E+00-1.78000E-18
        2  1.04492E-06 0.00000E+00 0.00000E+00 0.00000E+00 0.00000E+00 0.00000E+00 0.00000E+00 0.00000E+00 0.00000E+00 2.38234E-03 0.00000E+00 0.00000E+00
        3  6.40703E-07 0.00000E+00 0.00000E+00 0.00000E+00 0.00000E+00 0.00000E+00 0.00000E+00 0.00000E+00 0.00000E+00 1.58814E-03 0.00000E+00 0.00000E+00
        4  3.06230E-07 0.00000E+00 0.00000E+00 0.00000E+00 0.00000E+00 0.00000E+00 0.00000E+00 0.00000E+00 0.00000E+00 7.94056E-04 0.00000E+00 0.00000E+00
        5  0.00000E+00 0.00000E+00 0.00000E+00 0.00000E+00 0.00000E+00 0.00000E+00 0.00000E+00 0.00000E+00 0.00000E+00 0.00000E+00 0.00000E+00 0.00000E+00
        6  0.00000E+00 3.09131E-07 0.00000E+00 0.00000E+00 0.00000E+00 0.00000E+00 0.00000E+00 0.00000E+00 0.00000E+00 4.86000E-20 7.94059E-04 0.00000E+00
        7  0.00000E+00 6.59973E-07 0.00000E+00 0.00000E+00 0.00000E+00 0.00000E+00 0.00000E+00 0.00000E+00 0.00000E+00 9.72100E-20 1.58816E-03 0.00000E+00
        8  0.00000E+00 1.10934E-06 0.00000E+00 0.00000E+00 0.00000E+00 0.00000E+00 0.00000E+00 0.00000E+00 0.00000E+00 1.45800E-19 2.38241E-03 0.00000E+00
        9  0.00000E+00 1.69823E-06 0.00000E+00 0.00000E+00 0.00000E+00 0.00000E+00 0.00000E+00 0.00000E+00 0.00000E+00 1.94400E-19 3.17670E-03 0.00000E+00
       10  5.95009E-07 1.56643E-06 0.00000E+00 0.00000E+00 0.00000E+00 0.00000E+00 0.00000E+00 0.00000E+00 0.00000E+00 1.21560E-03 2.93487E-03 0.00000E+00
       11  1.19066E-06 1.35100E-06 0.00000E+00 0.00000E+00 0.00000E+00 0.00000E+00 0.00000E+00 0.00000E+00 0.00000E+00 2.24629E-03 2.24645E-03 0.00000E+00
       12  1.51890E-06 7.60900E-07 0.00000E+00 0.00000E+00 0.00000E+00 0.00000E+00 0.00000E+00 0.00000E+00 0.00000E+00 2.93482E-03 1.21576E-03 0.00000E+00
       13  6.14046E-07 6.29548E-07 0.00000E+00 0.00000E+00 0.00000E+00 0.00000E+00 0.00000E+00 0.00000E+00 0.00000E+00 1.30891E-03 1.35253E-03 0.00000E+00
       14  6.39783E-07 3.16752E-07 0.00000E+00 0.00000E+00 0.00000E+00 0.00000E+00 0.00000E+00 0.00000E+00 0.00000E+00 1.48894E-03 7.07294E-04 0.00000E+00
       15  2.98150E-07 6.27076E-07 0.00000E+00 0.00000E+00 0.00000E+00 0.00000E+00 0.00000E+00 0.00000E+00 0.00000E+00 6.69808E-04 1.50763E-03 0.00000E+00
       16  3.08816E-07 3.10862E-07 0.00000E+00 0.00000E+00 0.00000E+00 0.00000E+00 0.00000E+00 0.00000E+00 0.00000E+00 7.53946E-04 7.82648E-04 0.00000E+00
       17  9.04199E-07 8.58771E-07 0.00000E+00 0.00000E+00 0.00000E+00 0.00000E+00 0.00000E+00 0.00000E+00 0.00000E+00 1.73720E-03 1.76836E-03 0.00000E+00
       18  4.55561E-07 9.93203E-07 0.00000E+00 0.00000E+00 0.00000E+00 0.00000E+00 0.00000E+00 0.00000E+00 0.00000E+00 9.20586E-04 2.19209E-03 0.00000E+00
       19  1.01793E-06 4.26578E-07 0.00000E+00 0.00000E+00 0.00000E+00 0.00000E+00 0.00000E+00 0.00000E+00 0.00000E+00 2.16432E-03 9.51285E-04 0.00000E+00
      220  0.00000E+00 1.89282E-07-1.29245E-05 0.00000E+00 0.00000E+00 0.00000E+00 0.00000E+00 0.00000E+00 0.00000E+00 2.13900E-19 3.49269E-03 2.53871E-02
      221  5.09638E-08 1.59451E-07-1.29245E-05 0.00000E+00 0.00000E+00 0.00000E+00 0.00000E+00 0.00000E+00 0.00000E+00 1.47255E-03 3.31456E-03 2.53871E-02
      222  9.13738E-08 2.30690E-07-1.29245E-05 0.00000E+00 0.00000E+00 0.00000E+00 0.00000E+00 0.00000E+00 0.00000E+00 2.02389E-03 4.81943E-03 2.53871E-02
      223  0.00000E+00 2.99135E-07-1.29245E-05 0.00000E+00 0.00000E+00 0.00000E+00 0.00000E+00 0.00000E+00 0.00000E+00 3.20800E-19 5.23910E-03 2.53871E-02
      248  1.30032E-07 3.79435E-07-1.29245E-05 0.00000E+00 0.00000E+00 0.00000E+00 0.00000E+00 0.00000E+00 0.00000E+00 2.67353E-03 6.45358E-03 2.53871E-02
      249  0.00000E+00 4.39238E-07-1.29245E-05 0.00000E+00 0.00000E+00 0.00000E+00 0.00000E+00 0.00000E+00 0.00000E+00 4.27700E-19 6.98544E-03 2.53871E-02
      286  1.36661E-07 6.17328E-08-1.29245E-05 0.00000E+00 0.00000E+00 0.00000E+00 0.00000E+00 0.00000E+00 0.00000E+00 3.27344E-03 1.55486E-03 2.53871E-02
      287  1.26289E-07 1.53278E-07-1.29245E-05 0.00000E+00 0.00000E+00 0.00000E+00 0.00000E+00 0.00000E+00 0.00000E+00 2.87783E-03 2.97355E-03 2.53871E-02
      288  8.21469E-08 1.08151E-07-1.29245E-05 0.00000E+00 0.00000E+00 0.00000E+00 0.00000E+00 0.00000E+00 0.00000E+00 1.65778E-03 1.72091E-03 2.53871E-02
      301  1.81260E-07 2.22365E-07-1.29245E-05 0.00000E+00 0.00000E+00 0.00000E+00 0.00000E+00 0.00000E+00 0.00000E+00 3.81948E-03 3.88792E-03 2.53871E-02
      314  2.39806E-07 2.88588E-07-1.29245E-05 0.00000E+00 0.00000E+00 0.00000E+00 0.00000E+00 0.00000E+00 0.00000E+00 4.93934E-03 4.93939E-03 2.53871E-02
      363  3.05900E-07 1.58943E-07-1.29245E-05 0.00000E+00 0.00000E+00 0.00000E+00 0.00000E+00 0.00000E+00 0.00000E+00 6.45371E-03 2.67306E-03 2.53871E-02
      364  1.88725E-07 1.19588E-07-1.29245E-05 0.00000E+00 0.00000E+00 0.00000E+00 0.00000E+00 0.00000E+00 0.00000E+00 4.75829E-03 2.09132E-03 2.53871E-02
      365  2.42074E-07 0.00000E+00-1.29245E-05 0.00000E+00 0.00000E+00 0.00000E+00 0.00000E+00 0.00000E+00 0.00000E+00 5.23904E-03 0.00000E+00 2.53871E-02
      366  3.34193E-07 0.00000E+00-1.29245E-05 0.00000E+00 0.00000E+00 0.00000E+00 0.00000E+00 0.00000E+00 0.00000E+00 6.98533E-03 0.00000E+00 2.53871E-02
      379  0.00000E+00 9.68153E-08-1.29245E-05 0.00000E+00 0.00000E+00 0.00000E+00 0.00000E+00 0.00000E+00 0.00000E+00 1.06900E-19 1.74640E-03 2.53871E-02
      404  7.80099E-08 0.00000E+00-1.29245E-05 0.00000E+00 0.00000E+00 0.00000E+00 0.00000E+00 0.00000E+00 0.00000E+00 1.74638E-03 0.00000E+00 2.53871E-02
      405  0.00000E+00 0.00000E+00-1.29245E-05 0.00000E+00 0.00000E+00 0.00000E+00 0.00000E+00 0.00000E+00 0.00000E+00 0.00000E+00 0.00000E+00 2.53871E-02
      418  1.55123E-07 0.00000E+00-1.29245E-05 0.00000E+00 0.00000E+00 0.00000E+00 0.00000E+00 0.00000E+00 0.00000E+00 3.49266E-03 0.00000E+00 2.53871E-02
      438  4.81605E-07 0.00000E+00-1.29245E-05 0.00000E+00 0.00000E+00 0.00000E+00 0.00000E+00 0.00000E+00 0.00000E+00 1.27005E-02 0.00000E+00 2.53871E-02
      439  4.54797E-07 0.00000E+00-1.29245E-05 0.00000E+00 0.00000E+00 0.00000E+00 0.00000E+00 0.00000E+00 0.00000E+00 1.18841E-02 0.00000E+00 2.53871E-02
      440  4.31818E-07 0.00000E+00-1.29245E-05 0.00000E+00 0.00000E+00 0.00000E+00 0.00000E+00 0.00000E+00 0.00000E+00 1.10675E-02 0.00000E+00 2.53871E-02
      441  4.08515E-07 0.00000E+00-1.29245E-05 0.00000E+00 0.00000E+00 0.00000E+00 0.00000E+00 0.00000E+00 0.00000E+00 1.02511E-02 0.00000E+00 2.53871E-02
      442  3.84429E-07 0.00000E+00-1.29245E-05 0.00000E+00 0.00000E+00 0.00000E+00 0.00000E+00 0.00000E+00 0.00000E+00 9.43468E-03 0.00000E+00 2.53871E-02
      443  3.59659E-07 0.00000E+00-1.29245E-05 0.00000E+00 0.00000E+00 0.00000E+00 0.00000E+00 0.00000E+00 0.00000E+00 8.61826E-03 0.00000E+00 2.53871E-02
      444  3.36343E-07 0.00000E+00-1.29245E-05 0.00000E+00 0.00000E+00 0.00000E+00 0.00000E+00 0.00000E+00 0.00000E+00 7.80174E-03 0.00000E+00 2.53871E-02
      591  3.38598E-07 1.74006E-07-1.29245E-05 0.00000E+00 0.00000E+00 0.00000E+00 0.00000E+00 0.00000E+00 0.00000E+00 7.97304E-03 3.27167E-03 2.53871E-02
      592  3.62512E-07 1.84099E-07-1.29245E-05 0.00000E+00 0.00000E+00 0.00000E+00 0.00000E+00 0.00000E+00 0.00000E+00 8.73266E-03 3.57098E-03 2.53871E-02
      595  2.67748E-07 3.17818E-07-1.29245E-05 0.00000E+00 0.00000E+00 0.00000E+00 0.00000E+00 0.00000E+00 0.00000E+00 6.09627E-03 6.09182E-03 2.53871E-02
      596  2.87381E-07 3.37752E-07-1.29245E-05 0.00000E+00 0.00000E+00 0.00000E+00 0.00000E+00 0.00000E+00 0.00000E+00 6.67479E-03 6.66794E-03 2.53871E-02
      599  1.44862E-07 4.08666E-07-1.29245E-05 0.00000E+00 0.00000E+00 0.00000E+00 0.00000E+00 0.00000E+00 0.00000E+00 3.27644E-03 7.97111E-03 2.53871E-02
      600  1.55954E-07 4.32718E-07-1.29245E-05 0.00000E+00 0.00000E+00 0.00000E+00 0.00000E+00 0.00000E+00 0.00000E+00 3.57796E-03 8.72993E-03 2.53871E-02
      603  0.00000E+00 4.42019E-07-1.29245E-05 0.00000E+00 0.00000E+00 0.00000E+00 0.00000E+00 0.00000E+00 0.00000E+00 5.27700E-19 8.61834E-03 2.53871E-02
      604  0.00000E+00 4.64942E-07-1.29245E-05 0.00000E+00 0.00000E+00 0.00000E+00 0.00000E+00 0.00000E+00 0.00000E+00 5.77700E-19 9.43476E-03 2.53871E-02
      638  4.10346E-07 2.02719E-07-1.29245E-05 0.00000E+00 0.00000E+00 0.00000E+00 0.00000E+00 0.00000E+00 0.00000E+00 1.02521E-02 4.16960E-03 2.53871E-02
      639  4.33624E-07 2.11155E-07-1.29245E-05 0.00000E+00 0.00000E+00 0.00000E+00 0.00000E+00 0.00000E+00 0.00000E+00 1.10117E-02 4.46891E-03 2.53871E-02
      641  3.28032E-07 3.78161E-07-1.29245E-05 0.00000E+00 0.00000E+00 0.00000E+00 0.00000E+00 0.00000E+00 0.00000E+00 7.83173E-03 7.82028E-03 2.53871E-02
      642  3.48245E-07 3.97944E-07-1.29245E-05 0.00000E+00 0.00000E+00 0.00000E+00 0.00000E+00 0.00000E+00 0.00000E+00 8.41025E-03 8.39640E-03 2.53871E-02
      644  1.78764E-07 4.83270E-07-1.29245E-05 0.00000E+00 0.00000E+00 0.00000E+00 0.00000E+00 0.00000E+00 0.00000E+00 4.18088E-03 1.02476E-02 2.53871E-02
      645  1.90232E-07 5.10520E-07-1.29245E-05 0.00000E+00 0.00000E+00 0.00000E+00 0.00000E+00 0.00000E+00 0.00000E+00 4.48239E-03 1.10063E-02 2.53871E-02
      647  0.00000E+00 5.15685E-07-1.29245E-05 0.00000E+00 0.00000E+00 0.00000E+00 0.00000E+00 0.00000E+00 0.00000E+00 6.77700E-19 1.10676E-02 2.53871E-02
      648  0.00000E+00 5.46318E-07-1.29245E-05 0.00000E+00 0.00000E+00 0.00000E+00 0.00000E+00 0.00000E+00 0.00000E+00 7.27700E-19 1.18841E-02 2.53871E-02
      674  3.15920E-07 1.65507E-07-1.29245E-05 0.00000E+00 0.00000E+00 0.00000E+00 0.00000E+00 0.00000E+00 0.00000E+00 7.21332E-03 2.97237E-03 2.53871E-02
      676  2.48624E-07 3.00910E-07-1.29245E-05 0.00000E+00 0.00000E+00 0.00000E+00 0.00000E+00 0.00000E+00 0.00000E+00 5.51785E-03 5.51560E-03 2.53871E-02
      678  1.34204E-07 3.89868E-07-1.29245E-05 0.00000E+00 0.00000E+00 0.00000E+00 0.00000E+00 0.00000E+00 0.00000E+00 2.97493E-03 7.21239E-03 2.53871E-02
      680  0.00000E+00 4.29291E-07-1.29245E-05 0.00000E+00 0.00000E+00 0.00000E+00 0.00000E+00 0.00000E+00 0.00000E+00 4.77700E-19 7.80183E-03 2.53871E-02
      821  3.86458E-07 1.93768E-07-1.29245E-05 0.00000E+00 0.00000E+00 0.00000E+00 0.00000E+00 0.00000E+00 0.00000E+00 9.49239E-03 3.87029E-03 2.53871E-02
      822  3.07507E-07 3.57998E-07-1.29245E-05 0.00000E+00 0.00000E+00 0.00000E+00 0.00000E+00 0.00000E+00 0.00000E+00 7.25321E-03 7.24416E-03 2.53871E-02
      823  1.67372E-07 4.57875E-07-1.29245E-05 0.00000E+00 0.00000E+00 0.00000E+00 0.00000E+00 0.00000E+00 0.00000E+00 3.87947E-03 9.48876E-03 2.53871E-02
      824  0.00000E+00 4.90161E-07-1.29245E-05 0.00000E+00 0.00000E+00 0.00000E+00 0.00000E+00 0.00000E+00 0.00000E+00 6.27700E-19 1.02512E-02 2.53871E-02
      850  4.46527E-07 2.19105E-07-1.29245E-05 0.00000E+00 0.00000E+00 0.00000E+00 0.00000E+00 0.00000E+00 0.00000E+00 1.17714E-02 4.76832E-03 2.53871E-02
      852  3.48188E-07 4.10282E-07-1.29245E-05 0.00000E+00 0.00000E+00 0.00000E+00 0.00000E+00 0.00000E+00 0.00000E+00 8.98865E-03 8.97261E-03 2.53871E-02
      854  1.98273E-07 5.58897E-07-1.29245E-05 0.00000E+00 0.00000E+00 0.00000E+00 0.00000E+00 0.00000E+00 0.00000E+00 4.78390E-03 1.17652E-02 2.53871E-02
      856  0.00000E+00 6.17743E-07-1.29245E-05 0.00000E+00 0.00000E+00 0.00000E+00 0.00000E+00 0.00000E+00 0.00000E+00 7.77700E-19 1.27006E-02 2.53871E-02



 n o d a l   p r i n t   o u t   f o r   t i m e  s t e p      14                              ( at time 2.5483898E+00 )

 nodal point  x-disp     y-disp      z-disp      x-vel       y-vel       z-vel      x-accl      y-accl      z-accl      x-coor      y-coor      z-coor
        1  3.14468E-06 0.00000E+00 0.00000E+00 0.00000E+00 0.00000E+00 0.00000E+00 0.00000E+00 0.00000E+00 0.00000E+00 3.17814E-03 0.00000E+00-1.78000E-18
        2  2.02345E-06 0.00000E+00 0.00000E+00 0.00000E+00 0.00000E+00 0.00000E+00 0.00000E+00 0.00000E+00 0.00000E+00 2.38332E-03 0.00000E+00 0.00000E+00
        3  1.23420E-06 0.00000E+00 0.00000E+00 0.00000E+00 0.00000E+00 0.00000E+00 0.00000E+00 0.00000E+00 0.00000E+00 1.58873E-03 0.00000E+00 0.00000E+00
        4  5.90103E-07 0.00000E+00 0.00000E+00 0.00000E+00 0.00000E+00 0.00000E+00 0.00000E+00 0.00000E+00 0.00000E+00 7.94340E-04 0.00000E+00 0.00000E+00
        5  0.00000E+00 0.00000E+00 0.00000E+00 0.00000E+00 0.00000E+00 0.00000E+00 0.00000E+00 0.00000E+00 0.00000E+00 0.00000E+00 0.00000E+00 0.00000E+00
        6  0.00000E+00 5.97372E-07 0.00000E+00 0.00000E+00 0.00000E+00 0.00000E+00 0.00000E+00 0.00000E+00 0.00000E+00 4.86000E-20 7.94347E-04 0.00000E+00
        7  0.00000E+00 1.28292E-06 0.00000E+00 0.00000E+00 0.00000E+00 0.00000E+00 0.00000E+00 0.00000E+00 0.00000E+00 9.72100E-20 1.58878E-03 0.00000E+00
        8  0.00000E+00 2.18320E-06 0.00000E+00 0.00000E+00 0.00000E+00 0.00000E+00 0.00000E+00 0.00000E+00 0.00000E+00 1.45800E-19 2.38348E-03 0.00000E+00
        9  0.00000E+00 3.40296E-06 0.00000E+00 0.00000E+00 0.00000E+00 0.00000E+00 0.00000E+00 0.00000E+00 0.00000E+00 1.94400E-19 3.17840E-03 0.00000E+00
       10  1.17868E-06 3.13863E-06 0.00000E+00 0.00000E+00 0.00000E+00 0.00000E+00 0.00000E+00 0.00000E+00 0.00000E+00 1.21618E-03 2.93644E-03 0.00000E+00
       11  2.39817E-06 2.75898E-06 0.00000E+00 0.00000E+00 0.00000E+00 0.00000E+00 0.00000E+00 0.00000E+00 0.00000E+00 2.24750E-03 2.24786E-03 0.00000E+00
       12  3.04725E-06 1.55952E-06 0.00000E+00 0.00000E+00 0.00000E+00 0.00000E+00 0.00000E+00 0.00000E+00 0.00000E+00 2.93635E-03 1.21656E-03 0.00000E+00
       13  1.22654E-06 1.25791E-06 0.00000E+00 0.00000E+00 0.00000E+00 0.00000E+00 0.00000E+00 0.00000E+00 0.00000E+00 1.30953E-03 1.35316E-03 0.00000E+00
       14  1.26767E-06 6.32520E-07 0.00000E+00 0.00000E+00 0.00000E+00 0.00000E+00 0.00000E+00 0.00000E+00 0.00000E+00 1.48957E-03 7.07609E-04 0.00000E+00
       15  5.91847E-07 1.22189E-06 0.00000E+00 0.00000E+00 0.00000E+00 0.00000E+00 0.00000E+00 0.00000E+00 0.00000E+00 6.70102E-04 1.50822E-03 0.00000E+00
       16  6.09795E-07 6.04261E-07 0.00000E+00 0.00000E+00 0.00000E+00 0.00000E+00 0.00000E+00 0.00000E+00 0.00000E+00 7.54247E-04 7.82941E-04 0.00000E+00
       17  1.81306E-06 1.71575E-06 0.00000E+00 0.00000E+00 0.00000E+00 0.00000E+00 0.00000E+00 0.00000E+00 0.00000E+00 1.73811E-03 1.76922E-03 0.00000E+00
       18  9.03497E-07 1.95156E-06 0.00000E+00 0.00000E+00 0.00000E+00 0.00000E+00 0.00000E+00 0.00000E+00 0.00000E+00 9.21034E-04 2.19305E-03 0.00000E+00
       19  2.02465E-06 8.50814E-07 0.00000E+00 0.00000E+00 0.00000E+00 0.00000E+00 0.00000E+00 0.00000E+00 0.00000E+00 2.16532E-03 9.51709E-04 0.00000E+00
      220  0.00000E+00 3.87753E-07-2.54839E-05 0.00000E+00 0.00000E+00 0.00000E+00 0.00000E+00 0.00000E+00 0.00000E+00 2.13900E-19 3.49289E-03 2.53745E-02
      221  9.58359E-08 3.18450E-07-2.54839E-05 0.00000E+00 0.00000E+00 0.00000E+00 0.00000E+00 0.00000E+00 0.00000E+00 1.47260E-03 3.31472E-03 2.53745E-02
      222  1.73691E-07 4.61092E-07-2.54839E-05 0.00000E+00 0.00000E+00 0.00000E+00 0.00000E+00 0.00000E+00 0.00000E+00 2.02397E-03 4.81966E-03 2.53745E-02
      223  0.00000E+00 6.09777E-07-2.54839E-05 0.00000E+00 0.00000E+00 0.00000E+00 0.00000E+00 0.00000E+00 0.00000E+00 3.20800E-19 5.23941E-03 2.53745E-02
      248  2.50766E-07 7.65214E-07-2.54839E-05 0.00000E+00 0.00000E+00 0.00000E+00 0.00000E+00 0.00000E+00 0.00000E+00 2.67365E-03 6.45397E-03 2.53745E-02
      249  0.00000E+00 9.01914E-07-2.54839E-05 0.00000E+00 0.00000E+00 0.00000E+00 0.00000E+00 0.00000E+00 0.00000E+00 4.27700E-19 6.98590E-03 2.53745E-02
      286  2.54015E-07 1.31525E-07-2.54839E-05 0.00000E+00 0.00000E+00 0.00000E+00 0.00000E+00 0.00000E+00 0.00000E+00 3.27355E-03 1.55493E-03 2.53745E-02
      287  2.39395E-07 3.12179E-07-2.54839E-05 0.00000E+00 0.00000E+00 0.00000E+00 0.00000E+00 0.00000E+00 0.00000E+00 2.87794E-03 2.97371E-03 2.53745E-02
      288  1.53414E-07 2.21087E-07-2.54839E-05 0.00000E+00 0.00000E+00 0.00000E+00 0.00000E+00 0.00000E+00 0.00000E+00 1.65785E-03 1.72102E-03 2.53745E-02
      301  3.49072E-07 4.56564E-07-2.54839E-05 0.00000E+00 0.00000E+00 0.00000E+00 0.00000E+00 0.00000E+00 0.00000E+00 3.81965E-03 3.88816E-03 2.53745E-02
      314  4.63340E-07 5.89134E-07-2.54839E-05 0.00000E+00 0.00000E+00 0.00000E+00 0.00000E+00 0.00000E+00 0.00000E+00 4.93956E-03 4.93969E-03 2.53745E-02
      363  5.80995E-07 3.30322E-07-2.54839E-05 0.00000E+00 0.00000E+00 0.00000E+00 0.00000E+00 0.00000E+00 0.00000E+00 6.45398E-03 2.67323E-03 2.53745E-02
      364  3.53560E-07 2.50261E-07-2.54839E-05 0.00000E+00 0.00000E+00 0.00000E+00 0.00000E+00 0.00000E+00 0.00000E+00 4.75845E-03 2.09145E-03 2.53745E-02
      365  4.59445E-07 0.00000E+00-2.54839E-05 0.00000E+00 0.00000E+00 0.00000E+00 0.00000E+00 0.00000E+00 0.00000E+00 5.23926E-03 0.00000E+00 2.53745E-02
      366  6.37600E-07 0.00000E+00-2.54839E-05 0.00000E+00 0.00000E+00 0.00000E+00 0.00000E+00 0.00000E+00 0.00000E+00 6.98564E-03 0.00000E+00 2.53745E-02
      379  0.00000E+00 2.02782E-07-2.54839E-05 0.00000E+00 0.00000E+00 0.00000E+00 0.00000E+00 0.00000E+00 0.00000E+00 1.06900E-19 1.74650E-03 2.53745E-02
      404  1.42597E-07 0.00000E+00-2.54839E-05 0.00000E+00 0.00000E+00 0.00000E+00 0.00000E+00 0.00000E+00 0.00000E+00 1.74644E-03 0.00000E+00 2.53745E-02
      405  0.00000E+00 0.00000E+00-2.54839E-05 0.00000E+00 0.00000E+00 0.00000E+00 0.00000E+00 0.00000E+00 0.00000E+00 0.00000E+00 0.00000E+00 2.53745E-02
      418  2.89747E-07 0.00000E+00-2.54839E-05 0.00000E+00 0.00000E+00 0.00000E+00 0.00000E+00 0.00000E+00 0.00000E+00 3.49279E-03 0.00000E+00 2.53745E-02
      438  9.04114E-07 0.00000E+00-2.54839E-05 0.00000E+00 0.00000E+00 0.00000E+00 0.00000E+00 0.00000E+00 0.00000E+00 1.27009E-02 0.00000E+00 2.53745E-02
      439  8.56977E-07 0.00000E+00-2.54839E-05 0.00000E+00 0.00000E+00 0.00000E+00 0.00000E+00 0.00000E+00 0.00000E+00 1.18845E-02 0.00000E+00 2.53745E-02
      440  8.14497E-07 0.00000E+00-2.54839E-05 0.00000E+00 0.00000E+00 0.00000E+00 0.00000E+00 0.00000E+00 0.00000E+00 1.10679E-02 0.00000E+00 2.53745E-02
      441  7.70844E-07 0.00000E+00-2.54839E-05 0.00000E+00 0.00000E+00 0.00000E+00 0.00000E+00 0.00000E+00 0.00000E+00 1.02515E-02 0.00000E+00 2.53745E-02
      442  7.25489E-07 0.00000E+00-2.54839E-05 0.00000E+00 0.00000E+00 0.00000E+00 0.00000E+00 0.00000E+00 0.00000E+00 9.43503E-03 0.00000E+00 2.53745E-02
      443  6.78700E-07 0.00000E+00-2.54839E-05 0.00000E+00 0.00000E+00 0.00000E+00 0.00000E+00 0.00000E+00 0.00000E+00 8.61858E-03 0.00000E+00 2.53745E-02
      444  6.35077E-07 0.00000E+00-2.54839E-05 0.00000E+00 0.00000E+00 0.00000E+00 0.00000E+00 0.00000E+00 0.00000E+00 7.80204E-03 0.00000E+00 2.53745E-02
      591  6.44963E-07 3.63480E-07-2.54839E-05 0.00000E+00 0.00000E+00 0.00000E+00 0.00000E+00 0.00000E+00 0.00000E+00 7.97334E-03 3.27186E-03 2.53745E-02
      592  6.90984E-07 3.83756E-07-2.54839E-05 0.00000E+00 0.00000E+00 0.00000E+00 0.00000E+00 0.00000E+00 0.00000E+00 8.73299E-03 3.57118E-03 2.53745E-02
      595  5.17698E-07 6.45967E-07-2.54839E-05 0.00000E+00 0.00000E+00 0.00000E+00 0.00000E+00 0.00000E+00 0.00000E+00 6.09652E-03 6.09215E-03 2.53745E-02
      596  5.56443E-07 6.83800E-07-2.54839E-05 0.00000E+00 0.00000E+00 0.00000E+00 0.00000E+00 0.00000E+00 0.00000E+00 6.67506E-03 6.66828E-03 2.53745E-02
      599  2.81899E-07 8.22105E-07-2.54839E-05 0.00000E+00 0.00000E+00 0.00000E+00 0.00000E+00 0.00000E+00 0.00000E+00 3.27658E-03 7.97152E-03 2.53745E-02
      600  3.04780E-07 8.67653E-07-2.54839E-05 0.00000E+00 0.00000E+00 0.00000E+00 0.00000E+00 0.00000E+00 0.00000E+00 3.57810E-03 8.73037E-03 2.53745E-02
      603  0.00000E+00 8.91775E-07-2.54839E-05 0.00000E+00 0.00000E+00 0.00000E+00 0.00000E+00 0.00000E+00 0.00000E+00 5.27700E-19 8.61879E-03 2.53745E-02
      604  0.00000E+00 9.31340E-07-2.54839E-05 0.00000E+00 0.00000E+00 0.00000E+00 0.00000E+00 0.00000E+00 0.00000E+00 5.77700E-19 9.43523E-03 2.53745E-02
      638  7.83375E-07 4.19975E-07-2.54839E-05 0.00000E+00 0.00000E+00 0.00000E+00 0.00000E+00 0.00000E+00 0.00000E+00 1.02525E-02 4.16982E-03 2.53745E-02
      639  8.27723E-07 4.34696E-07-2.54839E-05 0.00000E+00 0.00000E+00 0.00000E+00 0.00000E+00 0.00000E+00 0.00000E+00 1.10121E-02 4.46913E-03 2.53745E-02
      641  6.37202E-07 7.61237E-07-2.54839E-05 0.00000E+00 0.00000E+00 0.00000E+00 0.00000E+00 0.00000E+00 0.00000E+00 7.83204E-03 7.82066E-03 2.53745E-02
      642  6.77256E-07 7.99070E-07-2.54839E-05 0.00000E+00 0.00000E+00 0.00000E+00 0.00000E+00 0.00000E+00 0.00000E+00 8.41058E-03 8.39680E-03 2.53745E-02
      644  3.50836E-07 9.64912E-07-2.54839E-05 0.00000E+00 0.00000E+00 0.00000E+00 0.00000E+00 0.00000E+00 0.00000E+00 4.18105E-03 1.02481E-02 2.53745E-02
      645  3.72684E-07 1.01742E-06-2.54839E-05 0.00000E+00 0.00000E+00 0.00000E+00 0.00000E+00 0.00000E+00 0.00000E+00 4.48257E-03 1.10068E-02 2.53745E-02
      647  0.00000E+00 1.02518E-06-2.54839E-05 0.00000E+00 0.00000E+00 0.00000E+00 0.00000E+00 0.00000E+00 0.00000E+00 6.77700E-19 1.10681E-02 2.53745E-02
      648  0.00000E+00 1.08959E-06-2.54839E-05 0.00000E+00 0.00000E+00 0.00000E+00 0.00000E+00 0.00000E+00 0.00000E+00 7.27700E-19 1.18847E-02 2.53745E-02
      674  6.01323E-07 3.45947E-07-2.54839E-05 0.00000E+00 0.00000E+00 0.00000E+00 0.00000E+00 0.00000E+00 0.00000E+00 7.21360E-03 2.97255E-03 2.53745E-02
      676  4.80025E-07 6.13915E-07-2.54839E-05 0.00000E+00 0.00000E+00 0.00000E+00 0.00000E+00 0.00000E+00 0.00000E+00 5.51808E-03 5.51591E-03 2.53745E-02
      678  2.59544E-07 7.86713E-07-2.54839E-05 0.00000E+00 0.00000E+00 0.00000E+00 0.00000E+00 0.00000E+00 0.00000E+00 2.97506E-03 7.21279E-03 2.53745E-02
      680  0.00000E+00 8.75201E-07-2.54839E-05 0.00000E+00 0.00000E+00 0.00000E+00 0.00000E+00 0.00000E+00 0.00000E+00 4.77700E-19 7.80228E-03 2.53745E-02
      821  7.37165E-07 4.02863E-07-2.54839E-05 0.00000E+00 0.00000E+00 0.00000E+00 0.00000E+00 0.00000E+00 0.00000E+00 9.49274E-03 3.87050E-03 2.53745E-02
      822  5.96392E-07 7.22499E-07-2.54839E-05 0.00000E+00 0.00000E+00 0.00000E+00 0.00000E+00 0.00000E+00 0.00000E+00 7.25350E-03 7.24452E-03 2.53745E-02
      823  3.28045E-07 9.15748E-07-2.54839E-05 0.00000E+00 0.00000E+00 0.00000E+00 0.00000E+00 0.00000E+00 0.00000E+00 3.87963E-03 9.48922E-03 2.53745E-02
      824  0.00000E+00 9.77177E-07-2.54839E-05 0.00000E+00 0.00000E+00 0.00000E+00 0.00000E+00 0.00000E+00 0.00000E+00 6.27700E-19 1.02517E-02 2.53745E-02
      850  8.42952E-07 4.45333E-07-2.54839E-05 0.00000E+00 0.00000E+00 0.00000E+00 0.00000E+00 0.00000E+00 0.00000E+00 1.17718E-02 4.76855E-03 2.53745E-02
      852  6.63313E-07 8.16787E-07-2.54839E-05 0.00000E+00 0.00000E+00 0.00000E+00 0.00000E+00 0.00000E+00 0.00000E+00 8.98896E-03 8.97302E-03 2.53745E-02
      854  3.83621E-07 1.12048E-06-2.54839E-05 0.00000E+00 0.00000E+00 0.00000E+00 0.00000E+00 0.00000E+00 0.00000E+00 4.78408E-03 1.17657E-02 2.53745E-02
      856  0.00000E+00 1.25892E-06-2.54839E-05 0.00000E+00 0.00000E+00 0.00000E+00 0.00000E+00 0.00000E+00 0.00000E+00 7.77700E-19 1.27013E-02 2.53745E-02



 n o d a l   p r i n t   o u t   f o r   t i m e  s t e p     265                              ( at time 3.4723147E+00 )

 nodal point  x-disp     y-disp      z-disp      x-vel       y-vel       z-vel      x-accl      y-accl      z-accl      x-coor      y-coor      z-coor
        1  8.28159E-06 0.00000E+00 0.00000E+00 0.00000E+00 0.00000E+00 0.00000E+00 0.00000E+00 0.00000E+00 0.00000E+00 3.18328E-03 0.00000E+00-1.78000E-18
        2  5.54866E-06 0.00000E+00 0.00000E+00 0.00000E+00 0.00000E+00 0.00000E+00 0.00000E+00 0.00000E+00 0.00000E+00 2.38685E-03 0.00000E+00 0.00000E+00
        3  3.29968E-06 0.00000E+00 0.00000E+00 0.00000E+00 0.00000E+00 0.00000E+00 0.00000E+00 0.00000E+00 0.00000E+00 1.59080E-03 0.00000E+00 0.00000E+00
        4  1.52144E-06 0.00000E+00 0.00000E+00 0.00000E+00 0.00000E+00 0.00000E+00 0.00000E+00 0.00000E+00 0.00000E+00 7.95271E-04 0.00000E+00 0.00000E+00
        5  0.00000E+00 0.00000E+00 0.00000E+00 0.00000E+00 0.00000E+00 0.00000E+00 0.00000E+00 0.00000E+00 0.00000E+00 0.00000E+00 0.00000E+00 0.00000E+00
        6  0.00000E+00 1.54028E-06 0.00000E+00 0.00000E+00 0.00000E+00 0.00000E+00 0.00000E+00 0.00000E+00 0.00000E+00 4.86000E-20 7.95290E-04 0.00000E+00
        7  0.00000E+00 3.47731E-06 0.00000E+00 0.00000E+00 0.00000E+00 0.00000E+00 0.00000E+00 0.00000E+00 0.00000E+00 9.72100E-20 1.59098E-03 0.00000E+00
        8  0.00000E+00 5.94603E-06 0.00000E+00 0.00000E+00 0.00000E+00 0.00000E+00 0.00000E+00 0.00000E+00 0.00000E+00 1.45800E-19 2.38725E-03 0.00000E+00
        9  0.00000E+00 8.76487E-06 0.00000E+00 0.00000E+00 0.00000E+00 0.00000E+00 0.00000E+00 0.00000E+00 0.00000E+00 1.94400E-19 3.18376E-03 0.00000E+00
       10  3.08530E-06 8.14216E-06 0.00000E+00 0.00000E+00 0.00000E+00 0.00000E+00 0.00000E+00 0.00000E+00 0.00000E+00 1.21809E-03 2.94144E-03 0.00000E+00
       11  6.32345E-06 7.18384E-06 0.00000E+00 0.00000E+00 0.00000E+00 0.00000E+00 0.00000E+00 0.00000E+00 0.00000E+00 2.25142E-03 2.25228E-03 0.00000E+00
       12  8.09406E-06 4.08274E-06 0.00000E+00 0.00000E+00 0.00000E+00 0.00000E+00 0.00000E+00 0.00000E+00 0.00000E+00 2.94139E-03 1.21908E-03 0.00000E+00
       13  3.42036E-06 3.51752E-06 0.00000E+00 0.00000E+00 0.00000E+00 0.00000E+00 0.00000E+00 0.00000E+00 0.00000E+00 1.31172E-03 1.35542E-03 0.00000E+00
       14  3.51280E-06 1.79676E-06 0.00000E+00 0.00000E+00 0.00000E+00 0.00000E+00 0.00000E+00 0.00000E+00 0.00000E+00 1.49181E-03 7.08774E-04 0.00000E+00
       15  1.65803E-06 3.38270E-06 0.00000E+00 0.00000E+00 0.00000E+00 0.00000E+00 0.00000E+00 0.00000E+00 0.00000E+00 6.71168E-04 1.51038E-03 0.00000E+00
       16  1.64406E-06 1.63879E-06 0.00000E+00 0.00000E+00 0.00000E+00 0.00000E+00 0.00000E+00 0.00000E+00 0.00000E+00 7.55282E-04 7.83976E-04 0.00000E+00
       17  4.99747E-06 4.84760E-06 0.00000E+00 0.00000E+00 0.00000E+00 0.00000E+00 0.00000E+00 0.00000E+00 0.00000E+00 1.74130E-03 1.77235E-03 0.00000E+00
       18  2.49421E-06 5.43184E-06 0.00000E+00 0.00000E+00 0.00000E+00 0.00000E+00 0.00000E+00 0.00000E+00 0.00000E+00 9.22625E-04 2.19653E-03 0.00000E+00
       19  5.66223E-06 2.47377E-06 0.00000E+00 0.00000E+00 0.00000E+00 0.00000E+00 0.00000E+00 0.00000E+00 0.00000E+00 2.16896E-03 9.53332E-04 0.00000E+00
      220  0.00000E+00 5.80336E-07-3.47231E-05 0.00000E+00 0.00000E+00 0.00000E+00 0.00000E+00 0.00000E+00 0.00000E+00 2.13900E-19 3.49308E-03 2.53653E-02
      221  1.03433E-07 4.18596E-07-3.47231E-05 0.00000E+00 0.00000E+00 0.00000E+00 0.00000E+00 0.00000E+00 0.00000E+00 1.47260E-03 3.31482E-03 2.53653E-02
      222  1.94840E-07 6.11762E-07-3.47231E-05 0.00000E+00 0.00000E+00 0.00000E+00 0.00000E+00 0.00000E+00 0.00000E+00 2.02399E-03 4.81981E-03 2.53653E-02
      223  0.00000E+00 9.00494E-07-3.47231E-05 0.00000E+00 0.00000E+00 0.00000E+00 0.00000E+00 0.00000E+00 0.00000E+00 3.20800E-19 5.23970E-03 2.53653E-02
      248  2.93869E-07 1.07372E-06-3.47231E-05 0.00000E+00 0.00000E+00 0.00000E+00 0.00000E+00 0.00000E+00 0.00000E+00 2.67369E-03 6.45427E-03 2.53653E-02
      249  0.00000E+00 1.39141E-06-3.47231E-05 0.00000E+00 0.00000E+00 0.00000E+00 0.00000E+00 0.00000E+00 0.00000E+00 4.27700E-19 6.98639E-03 2.53653E-02
      286  2.34418E-07 2.19625E-07-3.47231E-05 0.00000E+00 0.00000E+00 0.00000E+00 0.00000E+00 0.00000E+00 0.00000E+00 3.27353E-03 1.55502E-03 2.53653E-02
      287  2.57737E-07 4.35857E-07-3.47231E-05 0.00000E+00 0.00000E+00 0.00000E+00 0.00000E+00 0.00000E+00 0.00000E+00 2.87796E-03 2.97384E-03 2.53653E-02
      288  1.48757E-07 3.29575E-07-3.47231E-05 0.00000E+00 0.00000E+00 0.00000E+00 0.00000E+00 0.00000E+00 0.00000E+00 1.65785E-03 1.72113E-03 2.53653E-02
      301  4.00968E-07 6.71629E-07-3.47231E-05 0.00000E+00 0.00000E+00 0.00000E+00 0.00000E+00 0.00000E+00 0.00000E+00 3.81970E-03 3.88837E-03 2.53653E-02
      314  5.34709E-07 8.64441E-07-3.47231E-05 0.00000E+00 0.00000E+00 0.00000E+00 0.00000E+00 0.00000E+00 0.00000E+00 4.93963E-03 4.93996E-03 2.53653E-02
      363  6.00752E-07 5.28825E-07-3.47231E-05 0.00000E+00 0.00000E+00 0.00000E+00 0.00000E+00 0.00000E+00 0.00000E+00 6.45400E-03 2.67343E-03 2.53653E-02
      364  3.37021E-07 4.03550E-07-3.47231E-05 0.00000E+00 0.00000E+00 0.00000E+00 0.00000E+00 0.00000E+00 0.00000E+00 4.75844E-03 2.09160E-03 2.53653E-02
      365  4.84291E-07 0.00000E+00-3.47231E-05 0.00000E+00 0.00000E+00 0.00000E+00 0.00000E+00 0.00000E+00 0.00000E+00 5.23928E-03 0.00000E+00 2.53653E-02
      366  6.82338E-07 0.00000E+00-3.47231E-05 0.00000E+00 0.00000E+00 0.00000E+00 0.00000E+00 0.00000E+00 0.00000E+00 6.98568E-03 0.00000E+00 2.53653E-02
      379  0.00000E+00 3.25737E-07-3.47231E-05 0.00000E+00 0.00000E+00 0.00000E+00 0.00000E+00 0.00000E+00 0.00000E+00 1.06900E-19 1.74663E-03 2.53653E-02
      404  1.40589E-07 0.00000E+00-3.47231E-05 0.00000E+00 0.00000E+00 0.00000E+00 0.00000E+00 0.00000E+00 0.00000E+00 1.74644E-03 0.00000E+00 2.53653E-02
      405  0.00000E+00 0.00000E+00-3.47231E-05 0.00000E+00 0.00000E+00 0.00000E+00 0.00000E+00 0.00000E+00 0.00000E+00 0.00000E+00 0.00000E+00 2.53653E-02
      418  2.79534E-07 0.00000E+00-3.47231E-05 0.00000E+00 0.00000E+00 0.00000E+00 0.00000E+00 0.00000E+00 0.00000E+00 3.49278E-03 0.00000E+00 2.53653E-02
      438  8.59294E-07 0.00000E+00-3.47231E-05 0.00000E+00 0.00000E+00 0.00000E+00 0.00000E+00 0.00000E+00 0.00000E+00 1.27009E-02 0.00000E+00 2.53653E-02
      439  8.48484E-07 0.00000E+00-3.47231E-05 0.00000E+00 0.00000E+00 0.00000E+00 0.00000E+00 0.00000E+00 0.00000E+00 1.18844E-02 0.00000E+00 2.53653E-02
      440  8.15011E-07 0.00000E+00-3.47231E-05 0.00000E+00 0.00000E+00 0.00000E+00 0.00000E+00 0.00000E+00 0.00000E+00 1.10679E-02 0.00000E+00 2.53653E-02
      441  7.75110E-07 0.00000E+00-3.47231E-05 0.00000E+00 0.00000E+00 0.00000E+00 0.00000E+00 0.00000E+00 0.00000E+00 1.02515E-02 0.00000E+00 2.53653E-02
      442  7.29935E-07 0.00000E+00-3.47231E-05 0.00000E+00 0.00000E+00 0.00000E+00 0.00000E+00 0.00000E+00 0.00000E+00 9.43503E-03 0.00000E+00 2.53653E-02
      443  6.79269E-07 0.00000E+00-3.47231E-05 0.00000E+00 0.00000E+00 0.00000E+00 0.00000E+00 0.00000E+00 0.00000E+00 8.61858E-03 0.00000E+00 2.53653E-02
      444  6.36039E-07 0.00000E+00-3.47231E-05 0.00000E+00 0.00000E+00 0.00000E+00 0.00000E+00 0.00000E+00 0.00000E+00 7.80204E-03 0.00000E+00 2.53653E-02
      591  6.86274E-07 5.95953E-07-3.47231E-05 0.00000E+00 0.00000E+00 0.00000E+00 0.00000E+00 0.00000E+00 0.00000E+00 7.97339E-03 3.27210E-03 2.53653E-02
      592  7.39636E-07 6.21571E-07-3.47231E-05 0.00000E+00 0.00000E+00 0.00000E+00 0.00000E+00 0.00000E+00 0.00000E+00 8.73304E-03 3.57142E-03 2.53653E-02
      595  5.98493E-07 9.26290E-07-3.47231E-05 0.00000E+00 0.00000E+00 0.00000E+00 0.00000E+00 0.00000E+00 0.00000E+00 6.09660E-03 6.09243E-03 2.53653E-02
      596  6.46949E-07 9.60641E-07-3.47231E-05 0.00000E+00 0.00000E+00 0.00000E+00 0.00000E+00 0.00000E+00 0.00000E+00 6.67515E-03 6.66856E-03 2.53653E-02
      599  3.44162E-07 1.13412E-06-3.47231E-05 0.00000E+00 0.00000E+00 0.00000E+00 0.00000E+00 0.00000E+00 0.00000E+00 3.27664E-03 7.97183E-03 2.53653E-02
      600  3.83297E-07 1.17941E-06-3.47231E-05 0.00000E+00 0.00000E+00 0.00000E+00 0.00000E+00 0.00000E+00 0.00000E+00 3.57818E-03 8.73068E-03 2.53653E-02
      603  0.00000E+00 1.27072E-06-3.47231E-05 0.00000E+00 0.00000E+00 0.00000E+00 0.00000E+00 0.00000E+00 0.00000E+00 5.27700E-19 8.61917E-03 2.53653E-02
      604  0.00000E+00 1.26553E-06-3.47231E-05 0.00000E+00 0.00000E+00 0.00000E+00 0.00000E+00 0.00000E+00 0.00000E+00 5.77700E-19 9.43557E-03 2.53653E-02
      638  8.42794E-07 6.58337E-07-3.47231E-05 0.00000E+00 0.00000E+00 0.00000E+00 0.00000E+00 0.00000E+00 0.00000E+00 1.02525E-02 4.17006E-03 2.53653E-02
      639  8.84005E-07 6.64788E-07-3.47231E-05 0.00000E+00 0.00000E+00 0.00000E+00 0.00000E+00 0.00000E+00 0.00000E+00 1.10122E-02 4.46936E-03 2.53653E-02
      641  7.52462E-07 1.03994E-06-3.47231E-05 0.00000E+00 0.00000E+00 0.00000E+00 0.00000E+00 0.00000E+00 0.00000E+00 7.83215E-03 7.82094E-03 2.53653E-02
      642  7.99785E-07 1.08111E-06-3.47231E-05 0.00000E+00 0.00000E+00 0.00000E+00 0.00000E+00 0.00000E+00 0.00000E+00 8.41070E-03 8.39708E-03 2.53653E-02
      644  4.46065E-07 1.27487E-06-3.47231E-05 0.00000E+00 0.00000E+00 0.00000E+00 0.00000E+00 0.00000E+00 0.00000E+00 4.18115E-03 1.02484E-02 2.53653E-02
      645  4.61901E-07 1.33851E-06-3.47231E-05 0.00000E+00 0.00000E+00 0.00000E+00 0.00000E+00 0.00000E+00 0.00000E+00 4.48266E-03 1.10071E-02 2.53653E-02
      647  0.00000E+00 1.31475E-06-3.47231E-05 0.00000E+00 0.00000E+00 0.00000E+00 0.00000E+00 0.00000E+00 0.00000E+00 6.77700E-19 1.10684E-02 2.53653E-02
      648  0.00000E+00 1.47950E-06-3.47231E-05 0.00000E+00 0.00000E+00 0.00000E+00 0.00000E+00 0.00000E+00 0.00000E+00 7.27700E-19 1.18851E-02 2.53653E-02
      674  6.36689E-07 5.65218E-07-3.47231E-05 0.00000E+00 0.00000E+00 0.00000E+00 0.00000E+00 0.00000E+00 0.00000E+00 7.21364E-03 2.97277E-03 2.53653E-02
      676  5.56082E-07 8.94698E-07-3.47231E-05 0.00000E+00 0.00000E+00 0.00000E+00 0.00000E+00 0.00000E+00 0.00000E+00 5.51816E-03 5.51619E-03 2.53653E-02
      678  3.12152E-07 1.10145E-06-3.47231E-05 0.00000E+00 0.00000E+00 0.00000E+00 0.00000E+00 0.00000E+00 0.00000E+00 2.97511E-03 7.21310E-03 2.53653E-02
      680  0.00000E+00 1.31393E-06-3.47231E-05 0.00000E+00 0.00000E+00 0.00000E+00 0.00000E+00 0.00000E+00 0.00000E+00 4.77700E-19 7.80271E-03 2.53653E-02
      821  7.94310E-07 6.39617E-07-3.47231E-05 0.00000E+00 0.00000E+00 0.00000E+00 0.00000E+00 0.00000E+00 0.00000E+00 9.49279E-03 3.87074E-03 2.53653E-02
      822  7.01094E-07 9.92773E-07-3.47231E-05 0.00000E+00 0.00000E+00 0.00000E+00 0.00000E+00 0.00000E+00 0.00000E+00 7.25360E-03 7.24479E-03 2.53653E-02
      823  4.17651E-07 1.21528E-06-3.47231E-05 0.00000E+00 0.00000E+00 0.00000E+00 0.00000E+00 0.00000E+00 0.00000E+00 3.87972E-03 9.48952E-03 2.53653E-02
      824  0.00000E+00 1.26429E-06-3.47231E-05 0.00000E+00 0.00000E+00 0.00000E+00 0.00000E+00 0.00000E+00 0.00000E+00 6.27700E-19 1.02520E-02 2.53653E-02
      850  8.34153E-07 6.46226E-07-3.47231E-05 0.00000E+00 0.00000E+00 0.00000E+00 0.00000E+00 0.00000E+00 0.00000E+00 1.17718E-02 4.76875E-03 2.53653E-02
      852  6.69723E-07 1.05288E-06-3.47231E-05 0.00000E+00 0.00000E+00 0.00000E+00 0.00000E+00 0.00000E+00 0.00000E+00 8.98897E-03 8.97325E-03 2.53653E-02
      854  4.26547E-07 1.52044E-06-3.47231E-05 0.00000E+00 0.00000E+00 0.00000E+00 0.00000E+00 0.00000E+00 0.00000E+00 4.78413E-03 1.17661E-02 2.53653E-02
      856  0.00000E+00 1.95495E-06-3.47231E-05 0.00000E+00 0.00000E+00 0.00000E+00 0.00000E+00 0.00000E+00 0.00000E+00 7.77700E-19 1.27020E-02 2.53653E-02



 n o d a l   p r i n t   o u t   f o r   t i m e  s t e p     271                              ( at time 4.9366370E+00 )

 nodal point  x-disp     y-disp      z-disp      x-vel       y-vel       z-vel      x-accl      y-accl      z-accl      x-coor      y-coor      z-coor
        1  1.79005E-05 0.00000E+00 0.00000E+00 0.00000E+00 0.00000E+00 0.00000E+00 0.00000E+00 0.00000E+00 0.00000E+00 3.19290E-03 0.00000E+00-1.78000E-18
        2  1.28965E-05 0.00000E+00 0.00000E+00 0.00000E+00 0.00000E+00 0.00000E+00 0.00000E+00 0.00000E+00 0.00000E+00 2.39420E-03 0.00000E+00 0.00000E+00
        3  8.35835E-06 0.00000E+00 0.00000E+00 0.00000E+00 0.00000E+00 0.00000E+00 0.00000E+00 0.00000E+00 0.00000E+00 1.59586E-03 0.00000E+00 0.00000E+00
        4  4.13239E-06 0.00000E+00 0.00000E+00 0.00000E+00 0.00000E+00 0.00000E+00 0.00000E+00 0.00000E+00 0.00000E+00 7.97882E-04 0.00000E+00 0.00000E+00
        5  0.00000E+00 0.00000E+00 0.00000E+00 0.00000E+00 0.00000E+00 0.00000E+00 0.00000E+00 0.00000E+00 0.00000E+00 0.00000E+00 0.00000E+00 0.00000E+00
        6  0.00000E+00 4.16122E-06 0.00000E+00 0.00000E+00 0.00000E+00 0.00000E+00 0.00000E+00 0.00000E+00 0.00000E+00 4.86000E-20 7.97911E-04 0.00000E+00
        7  0.00000E+00 8.82681E-06 0.00000E+00 0.00000E+00 0.00000E+00 0.00000E+00 0.00000E+00 0.00000E+00 0.00000E+00 9.72100E-20 1.59633E-03 0.00000E+00
        8  0.00000E+00 1.37554E-05 0.00000E+00 0.00000E+00 0.00000E+00 0.00000E+00 0.00000E+00 0.00000E+00 0.00000E+00 1.45800E-19 2.39506E-03 0.00000E+00
        9  0.00000E+00 1.88470E-05 0.00000E+00 0.00000E+00 0.00000E+00 0.00000E+00 0.00000E+00 0.00000E+00 0.00000E+00 1.94400E-19 3.19385E-03 0.00000E+00
       10  6.93334E-06 1.76190E-05 0.00000E+00 0.00000E+00 0.00000E+00 0.00000E+00 0.00000E+00 0.00000E+00 0.00000E+00 1.22193E-03 2.95092E-03 0.00000E+00
       11  1.38320E-05 1.52518E-05 0.00000E+00 0.00000E+00 0.00000E+00 0.00000E+00 0.00000E+00 0.00000E+00 0.00000E+00 2.25893E-03 2.26035E-03 0.00000E+00
       12  1.77227E-05 8.63531E-06 0.00000E+00 0.00000E+00 0.00000E+00 0.00000E+00 0.00000E+00 0.00000E+00 0.00000E+00 2.95102E-03 1.22364E-03 0.00000E+00
       13  8.35355E-06 8.60345E-06 0.00000E+00 0.00000E+00 0.00000E+00 0.00000E+00 0.00000E+00 0.00000E+00 0.00000E+00 1.31665E-03 1.36050E-03 0.00000E+00
       14  8.96199E-06 4.57787E-06 0.00000E+00 0.00000E+00 0.00000E+00 0.00000E+00 0.00000E+00 0.00000E+00 0.00000E+00 1.49726E-03 7.11555E-04 0.00000E+00
       15  4.20051E-06 8.59637E-06 0.00000E+00 0.00000E+00 0.00000E+00 0.00000E+00 0.00000E+00 0.00000E+00 0.00000E+00 6.73711E-04 1.51560E-03 0.00000E+00
       16  4.43043E-06 4.37116E-06 0.00000E+00 0.00000E+00 0.00000E+00 0.00000E+00 0.00000E+00 0.00000E+00 0.00000E+00 7.58068E-04 7.86708E-04 0.00000E+00
       17  1.14580E-05 1.12488E-05 0.00000E+00 0.00000E+00 0.00000E+00 0.00000E+00 0.00000E+00 0.00000E+00 0.00000E+00 1.74776E-03 1.77875E-03 0.00000E+00
       18  5.81341E-06 1.27484E-05 0.00000E+00 0.00000E+00 0.00000E+00 0.00000E+00 0.00000E+00 0.00000E+00 0.00000E+00 9.25944E-04 2.20385E-03 0.00000E+00
       19  1.33509E-05 5.91725E-06 0.00000E+00 0.00000E+00 0.00000E+00 0.00000E+00 0.00000E+00 0.00000E+00 0.00000E+00 2.17665E-03 9.56776E-04 0.00000E+00
      220  0.00000E+00 8.90619E-07-4.93664E-05 0.00000E+00 0.00000E+00 0.00000E+00 0.00000E+00 0.00000E+00 0.00000E+00 2.13900E-19 3.49339E-03 2.53506E-02
      221  2.94440E-08 5.03955E-07-4.93664E-05 0.00000E+00 0.00000E+00 0.00000E+00 0.00000E+00 0.00000E+00 0.00000E+00 1.47253E-03 3.31490E-03 2.53506E-02
      222  7.79895E-08 6.77455E-07-4.93664E-05 0.00000E+00 0.00000E+00 0.00000E+00 0.00000E+00 0.00000E+00 0.00000E+00 2.02388E-03 4.81988E-03 2.53506E-02
      223  0.00000E+00 1.24367E-06-4.93664E-05 0.00000E+00 0.00000E+00 0.00000E+00 0.00000E+00 0.00000E+00 0.00000E+00 3.20800E-19 5.24004E-03 2.53506E-02
      248  1.99709E-07 1.15946E-06-4.93664E-05 0.00000E+00 0.00000E+00 0.00000E+00 0.00000E+00 0.00000E+00 0.00000E+00 2.67360E-03 6.45436E-03 2.53506E-02
      249  0.00000E+00 1.82076E-06-4.93664E-05 0.00000E+00 0.00000E+00 0.00000E+00 0.00000E+00 0.00000E+00 0.00000E+00 4.27700E-19 6.98682E-03 2.53506E-02
      286 -3.45517E-08 4.29726E-07-4.93664E-05 0.00000E+00 0.00000E+00 0.00000E+00 0.00000E+00 0.00000E+00 0.00000E+00 3.27327E-03 1.55523E-03 2.53506E-02
      287  1.27906E-07 5.71814E-07-4.93664E-05 0.00000E+00 0.00000E+00 0.00000E+00 0.00000E+00 0.00000E+00 0.00000E+00 2.87783E-03 2.97397E-03 2.53506E-02
      288 -6.20749E-10 4.60826E-07-4.93664E-05 0.00000E+00 0.00000E+00 0.00000E+00 0.00000E+00 0.00000E+00 0.00000E+00 1.65770E-03 1.72126E-03 2.53506E-02
      301  2.45189E-07 8.83829E-07-4.93664E-05 0.00000E+00 0.00000E+00 0.00000E+00 0.00000E+00 0.00000E+00 0.00000E+00 3.81955E-03 3.88858E-03 2.53506E-02
      314  4.09377E-07 1.05844E-06-4.93664E-05 0.00000E+00 0.00000E+00 0.00000E+00 0.00000E+00 0.00000E+00 0.00000E+00 4.93951E-03 4.94016E-03 2.53506E-02
      363  2.84883E-07 7.87019E-07-4.93664E-05 0.00000E+00 0.00000E+00 0.00000E+00 0.00000E+00 0.00000E+00 0.00000E+00 6.45368E-03 2.67369E-03 2.53506E-02
      364  6.44855E-08 6.80315E-07-4.93664E-05 0.00000E+00 0.00000E+00 0.00000E+00 0.00000E+00 0.00000E+00 0.00000E+00 4.75816E-03 2.09188E-03 2.53506E-02
      365  2.50231E-07 0.00000E+00-4.93664E-05 0.00000E+00 0.00000E+00 0.00000E+00 0.00000E+00 0.00000E+00 0.00000E+00 5.23905E-03 0.00000E+00 2.53506E-02
      366  4.37244E-07 0.00000E+00-4.93664E-05 0.00000E+00 0.00000E+00 0.00000E+00 0.00000E+00 0.00000E+00 0.00000E+00 6.98544E-03 0.00000E+00 2.53506E-02
      379  0.00000E+00 5.58464E-07-4.93664E-05 0.00000E+00 0.00000E+00 0.00000E+00 0.00000E+00 0.00000E+00 0.00000E+00 1.06900E-19 1.74686E-03 2.53506E-02
      404 -1.00499E-07 0.00000E+00-4.93664E-05 0.00000E+00 0.00000E+00 0.00000E+00 0.00000E+00 0.00000E+00 0.00000E+00 1.74620E-03 0.00000E+00 2.53506E-02
      405  0.00000E+00 0.00000E+00-4.93664E-05 0.00000E+00 0.00000E+00 0.00000E+00 0.00000E+00 0.00000E+00 0.00000E+00 0.00000E+00 0.00000E+00 2.53506E-02
      418  3.22966E-08 0.00000E+00-4.93664E-05 0.00000E+00 0.00000E+00 0.00000E+00 0.00000E+00 0.00000E+00 0.00000E+00 3.49253E-03 0.00000E+00 2.53506E-02
      438  3.06842E-07 0.00000E+00-4.93664E-05 0.00000E+00 0.00000E+00 0.00000E+00 0.00000E+00 0.00000E+00 0.00000E+00 1.27003E-02 0.00000E+00 2.53506E-02
      439  3.77196E-07 0.00000E+00-4.93664E-05 0.00000E+00 0.00000E+00 0.00000E+00 0.00000E+00 0.00000E+00 0.00000E+00 1.18840E-02 0.00000E+00 2.53506E-02
      440  3.76564E-07 0.00000E+00-4.93664E-05 0.00000E+00 0.00000E+00 0.00000E+00 0.00000E+00 0.00000E+00 0.00000E+00 1.10675E-02 0.00000E+00 2.53506E-02
      441  3.60111E-07 0.00000E+00-4.93664E-05 0.00000E+00 0.00000E+00 0.00000E+00 0.00000E+00 0.00000E+00 0.00000E+00 1.02511E-02 0.00000E+00 2.53506E-02
      442  3.35819E-07 0.00000E+00-4.93664E-05 0.00000E+00 0.00000E+00 0.00000E+00 0.00000E+00 0.00000E+00 0.00000E+00 9.43464E-03 0.00000E+00 2.53506E-02
      443  3.06304E-07 0.00000E+00-4.93664E-05 0.00000E+00 0.00000E+00 0.00000E+00 0.00000E+00 0.00000E+00 0.00000E+00 8.61821E-03 0.00000E+00 2.53506E-02
      444  2.91235E-07 0.00000E+00-4.93664E-05 0.00000E+00 0.00000E+00 0.00000E+00 0.00000E+00 0.00000E+00 0.00000E+00 7.80169E-03 0.00000E+00 2.53506E-02
      591  4.13688E-07 8.99452E-07-4.93664E-05 0.00000E+00 0.00000E+00 0.00000E+00 0.00000E+00 0.00000E+00 0.00000E+00 7.97311E-03 3.27240E-03 2.53506E-02
      592  4.59510E-07 9.31073E-07-4.93664E-05 0.00000E+00 0.00000E+00 0.00000E+00 0.00000E+00 0.00000E+00 0.00000E+00 8.73276E-03 3.57173E-03 2.53506E-02
      595  4.64691E-07 1.06923E-06-4.93664E-05 0.00000E+00 0.00000E+00 0.00000E+00 0.00000E+00 0.00000E+00 0.00000E+00 6.09646E-03 6.09257E-03 2.53506E-02
      596  5.13678E-07 1.07997E-06-4.93664E-05 0.00000E+00 0.00000E+00 0.00000E+00 0.00000E+00 0.00000E+00 0.00000E+00 6.67501E-03 6.66868E-03 2.53506E-02
      599  2.94148E-07 1.21532E-06-4.93664E-05 0.00000E+00 0.00000E+00 0.00000E+00 0.00000E+00 0.00000E+00 0.00000E+00 3.27659E-03 7.97192E-03 2.53506E-02
      600  3.44787E-07 1.25202E-06-4.93664E-05 0.00000E+00 0.00000E+00 0.00000E+00 0.00000E+00 0.00000E+00 0.00000E+00 3.57814E-03 8.73075E-03 2.53506E-02
      603  0.00000E+00 1.37216E-06-4.93664E-05 0.00000E+00 0.00000E+00 0.00000E+00 0.00000E+00 0.00000E+00 0.00000E+00 5.27700E-19 8.61927E-03 2.53506E-02
      604  0.00000E+00 1.31442E-06-4.93664E-05 0.00000E+00 0.00000E+00 0.00000E+00 0.00000E+00 0.00000E+00 0.00000E+00 5.77700E-19 9.43561E-03 2.53506E-02
      638  5.58189E-07 9.65223E-07-4.93664E-05 0.00000E+00 0.00000E+00 0.00000E+00 0.00000E+00 0.00000E+00 0.00000E+00 1.02523E-02 4.17037E-03 2.53506E-02
      639  5.80825E-07 9.41777E-07-4.93664E-05 0.00000E+00 0.00000E+00 0.00000E+00 0.00000E+00 0.00000E+00 0.00000E+00 1.10119E-02 4.46964E-03 2.53506E-02
      641  6.20593E-07 1.12052E-06-4.93664E-05 0.00000E+00 0.00000E+00 0.00000E+00 0.00000E+00 0.00000E+00 0.00000E+00 7.83202E-03 7.82102E-03 2.53506E-02
      642  6.95429E-07 1.15649E-06-4.93664E-05 0.00000E+00 0.00000E+00 0.00000E+00 0.00000E+00 0.00000E+00 0.00000E+00 8.41060E-03 8.39716E-03 2.53506E-02
      644  4.13066E-07 1.34153E-06-4.93664E-05 0.00000E+00 0.00000E+00 0.00000E+00 0.00000E+00 0.00000E+00 0.00000E+00 4.18111E-03 1.02484E-02 2.53506E-02
      645  3.82754E-07 1.32429E-06-4.93664E-05 0.00000E+00 0.00000E+00 0.00000E+00 0.00000E+00 0.00000E+00 0.00000E+00 4.48258E-03 1.10071E-02 2.53506E-02
      647  0.00000E+00 1.36258E-06-4.93664E-05 0.00000E+00 0.00000E+00 0.00000E+00 0.00000E+00 0.00000E+00 0.00000E+00 6.77700E-19 1.10685E-02 2.53506E-02
      648  0.00000E+00 1.69832E-06-4.93664E-05 0.00000E+00 0.00000E+00 0.00000E+00 0.00000E+00 0.00000E+00 0.00000E+00 7.27700E-19 1.18853E-02 2.53506E-02
      674  3.64405E-07 8.62226E-07-4.93664E-05 0.00000E+00 0.00000E+00 0.00000E+00 0.00000E+00 0.00000E+00 0.00000E+00 7.21336E-03 2.97306E-03 2.53506E-02
      676  4.12823E-07 1.06108E-06-4.93664E-05 0.00000E+00 0.00000E+00 0.00000E+00 0.00000E+00 0.00000E+00 0.00000E+00 5.51801E-03 5.51636E-03 2.53506E-02
      678  2.34137E-07 1.19461E-06-4.93664E-05 0.00000E+00 0.00000E+00 0.00000E+00 0.00000E+00 0.00000E+00 0.00000E+00 2.97503E-03 7.21319E-03 2.53506E-02
      680  0.00000E+00 1.54614E-06-4.93664E-05 0.00000E+00 0.00000E+00 0.00000E+00 0.00000E+00 0.00000E+00 0.00000E+00 4.77700E-19 7.80295E-03 2.53506E-02
      821  5.06811E-07 9.54897E-07-4.93664E-05 0.00000E+00 0.00000E+00 0.00000E+00 0.00000E+00 0.00000E+00 0.00000E+00 9.49251E-03 3.87105E-03 2.53506E-02
      822  5.67654E-07 1.09861E-06-4.93664E-05 0.00000E+00 0.00000E+00 0.00000E+00 0.00000E+00 0.00000E+00 0.00000E+00 7.25347E-03 7.24490E-03 2.53506E-02
      823  3.86438E-07 1.29300E-06-4.93664E-05 0.00000E+00 0.00000E+00 0.00000E+00 0.00000E+00 0.00000E+00 0.00000E+00 3.87969E-03 9.48959E-03 2.53506E-02
      824  0.00000E+00 1.31321E-06-4.93664E-05 0.00000E+00 0.00000E+00 0.00000E+00 0.00000E+00 0.00000E+00 0.00000E+00 6.27700E-19 1.02520E-02 2.53506E-02
      850  4.08144E-07 8.58905E-07-4.93664E-05 0.00000E+00 0.00000E+00 0.00000E+00 0.00000E+00 0.00000E+00 0.00000E+00 1.17714E-02 4.76896E-03 2.53506E-02
      852  4.33867E-07 1.08614E-06-4.93664E-05 0.00000E+00 0.00000E+00 0.00000E+00 0.00000E+00 0.00000E+00 0.00000E+00 8.98873E-03 8.97329E-03 2.53506E-02
      854  2.34956E-07 1.51833E-06-4.93664E-05 0.00000E+00 0.00000E+00 0.00000E+00 0.00000E+00 0.00000E+00 0.00000E+00 4.78393E-03 1.17661E-02 2.53506E-02
      856  0.00000E+00 2.69903E-06-4.93664E-05 0.00000E+00 0.00000E+00 0.00000E+00 0.00000E+00 0.00000E+00 0.00000E+00 7.77700E-19 1.27027E-02 2.53506E-02



 n o d a l   p r i n t   o u t   f o r   t i m e  s t e p     277                              ( at time 7.2574314E+00 )

 nodal point  x-disp     y-disp      z-disp      x-vel       y-vel       z-vel      x-accl      y-accl      z-accl      x-coor      y-coor      z-coor
        1  3.36757E-05 0.00000E+00 0.00000E+00 0.00000E+00 0.00000E+00 0.00000E+00 0.00000E+00 0.00000E+00 0.00000E+00 3.20868E-03 0.00000E+00-1.78000E-18
        2  2.43932E-05 0.00000E+00 0.00000E+00 0.00000E+00 0.00000E+00 0.00000E+00 0.00000E+00 0.00000E+00 0.00000E+00 2.40569E-03 0.00000E+00 0.00000E+00
        3  1.60700E-05 0.00000E+00 0.00000E+00 0.00000E+00 0.00000E+00 0.00000E+00 0.00000E+00 0.00000E+00 0.00000E+00 1.60357E-03 0.00000E+00 0.00000E+00
        4  8.08947E-06 0.00000E+00 0.00000E+00 0.00000E+00 0.00000E+00 0.00000E+00 0.00000E+00 0.00000E+00 0.00000E+00 8.01839E-04 0.00000E+00 0.00000E+00
        5  0.00000E+00 0.00000E+00 0.00000E+00 0.00000E+00 0.00000E+00 0.00000E+00 0.00000E+00 0.00000E+00 0.00000E+00 0.00000E+00 0.00000E+00 0.00000E+00
        6  0.00000E+00 8.24362E-06 0.00000E+00 0.00000E+00 0.00000E+00 0.00000E+00 0.00000E+00 0.00000E+00 0.00000E+00 4.86000E-20 8.01994E-04 0.00000E+00
        7  0.00000E+00 1.70914E-05 0.00000E+00 0.00000E+00 0.00000E+00 0.00000E+00 0.00000E+00 0.00000E+00 0.00000E+00 9.72100E-20 1.60459E-03 0.00000E+00
        8  0.00000E+00 2.60553E-05 0.00000E+00 0.00000E+00 0.00000E+00 0.00000E+00 0.00000E+00 0.00000E+00 0.00000E+00 1.45800E-19 2.40736E-03 0.00000E+00
        9  0.00000E+00 3.51205E-05 0.00000E+00 0.00000E+00 0.00000E+00 0.00000E+00 0.00000E+00 0.00000E+00 0.00000E+00 1.94400E-19 3.21012E-03 0.00000E+00
       10  1.32200E-05 3.30708E-05 0.00000E+00 0.00000E+00 0.00000E+00 0.00000E+00 0.00000E+00 0.00000E+00 0.00000E+00 1.22822E-03 2.96637E-03 0.00000E+00
       11  2.59827E-05 2.81464E-05 0.00000E+00 0.00000E+00 0.00000E+00 0.00000E+00 0.00000E+00 0.00000E+00 0.00000E+00 2.27108E-03 2.27325E-03 0.00000E+00
       12  3.34521E-05 1.60115E-05 0.00000E+00 0.00000E+00 0.00000E+00 0.00000E+00 0.00000E+00 0.00000E+00 0.00000E+00 2.96675E-03 1.23101E-03 0.00000E+00
       13  1.61099E-05 1.66037E-05 0.00000E+00 0.00000E+00 0.00000E+00 0.00000E+00 0.00000E+00 0.00000E+00 0.00000E+00 1.32441E-03 1.36850E-03 0.00000E+00
       14  1.74821E-05 8.97565E-06 0.00000E+00 0.00000E+00 0.00000E+00 0.00000E+00 0.00000E+00 0.00000E+00 0.00000E+00 1.50578E-03 7.15953E-04 0.00000E+00
       15  8.17931E-06 1.67696E-05 0.00000E+00 0.00000E+00 0.00000E+00 0.00000E+00 0.00000E+00 0.00000E+00 0.00000E+00 6.77690E-04 1.52377E-03 0.00000E+00
       16  8.74443E-06 8.65970E-06 0.00000E+00 0.00000E+00 0.00000E+00 0.00000E+00 0.00000E+00 0.00000E+00 0.00000E+00 7.62382E-04 7.90997E-04 0.00000E+00
       17  2.16487E-05 2.13974E-05 0.00000E+00 0.00000E+00 0.00000E+00 0.00000E+00 0.00000E+00 0.00000E+00 0.00000E+00 1.75795E-03 1.78890E-03 0.00000E+00
       18  1.10833E-05 2.44049E-05 0.00000E+00 0.00000E+00 0.00000E+00 0.00000E+00 0.00000E+00 0.00000E+00 0.00000E+00 9.31214E-04 2.21550E-03 0.00000E+00
       19  2.55242E-05 1.14050E-05 0.00000E+00 0.00000E+00 0.00000E+00 0.00000E+00 0.00000E+00 0.00000E+00 0.00000E+00 2.18882E-03 9.62264E-04 0.00000E+00
      220  0.00000E+00 1.40173E-06-7.25743E-05 0.00000E+00 0.00000E+00 0.00000E+00 0.00000E+00 0.00000E+00 0.00000E+00 2.13900E-19 3.49390E-03 2.53274E-02
      221  5.43579E-08 8.01517E-07-7.25743E-05 0.00000E+00 0.00000E+00 0.00000E+00 0.00000E+00 0.00000E+00 0.00000E+00 1.47255E-03 3.31520E-03 2.53274E-02
      222  3.44754E-08 9.00387E-07-7.25743E-05 0.00000E+00 0.00000E+00 0.00000E+00 0.00000E+00 0.00000E+00 0.00000E+00 2.02383E-03 4.82010E-03 2.53274E-02
      223  0.00000E+00 1.86793E-06-7.25743E-05 0.00000E+00 0.00000E+00 0.00000E+00 0.00000E+00 0.00000E+00 0.00000E+00 3.20800E-19 5.24067E-03 2.53274E-02
      248  1.85660E-07 1.31785E-06-7.25743E-05 0.00000E+00 0.00000E+00 0.00000E+00 0.00000E+00 0.00000E+00 0.00000E+00 2.67359E-03 6.45452E-03 2.53274E-02
      249  0.00000E+00 2.44679E-06-7.25743E-05 0.00000E+00 0.00000E+00 0.00000E+00 0.00000E+00 0.00000E+00 0.00000E+00 4.27700E-19 6.98745E-03 2.53274E-02
      286 -1.84544E-07 6.88936E-07-7.25743E-05 0.00000E+00 0.00000E+00 0.00000E+00 0.00000E+00 0.00000E+00 0.00000E+00 3.27312E-03 1.55549E-03 2.53274E-02
      287  1.49853E-07 8.12306E-07-7.25743E-05 0.00000E+00 0.00000E+00 0.00000E+00 0.00000E+00 0.00000E+00 0.00000E+00 2.87785E-03 2.97421E-03 2.53274E-02
      288 -1.46204E-07 8.25824E-07-7.25743E-05 0.00000E+00 0.00000E+00 0.00000E+00 0.00000E+00 0.00000E+00 0.00000E+00 1.65755E-03 1.72163E-03 2.53274E-02
      301  1.91374E-07 1.20224E-06-7.25743E-05 0.00000E+00 0.00000E+00 0.00000E+00 0.00000E+00 0.00000E+00 0.00000E+00 3.81949E-03 3.88890E-03 2.53274E-02
      314  4.43040E-07 1.36549E-06-7.25743E-05 0.00000E+00 0.00000E+00 0.00000E+00 0.00000E+00 0.00000E+00 0.00000E+00 4.93954E-03 4.94047E-03 2.53274E-02
      363  1.48635E-07 1.13649E-06-7.25743E-05 0.00000E+00 0.00000E+00 0.00000E+00 0.00000E+00 0.00000E+00 0.00000E+00 6.45355E-03 2.67404E-03 2.53274E-02
      364 -4.99222E-08 1.10013E-06-7.25743E-05 0.00000E+00 0.00000E+00 0.00000E+00 0.00000E+00 0.00000E+00 0.00000E+00 4.75805E-03 2.09230E-03 2.53274E-02
      365  5.60529E-07 0.00000E+00-7.25743E-05 0.00000E+00 0.00000E+00 0.00000E+00 0.00000E+00 0.00000E+00 0.00000E+00 5.23936E-03 0.00000E+00 2.53274E-02
      366  6.38337E-07 0.00000E+00-7.25743E-05 0.00000E+00 0.00000E+00 0.00000E+00 0.00000E+00 0.00000E+00 0.00000E+00 6.98564E-03 0.00000E+00 2.53274E-02
      379  0.00000E+00 1.05663E-06-7.25743E-05 0.00000E+00 0.00000E+00 0.00000E+00 0.00000E+00 0.00000E+00 0.00000E+00 1.06900E-19 1.74736E-03 2.53274E-02
      404  3.66137E-07 0.00000E+00-7.25743E-05 0.00000E+00 0.00000E+00 0.00000E+00 0.00000E+00 0.00000E+00 0.00000E+00 1.74667E-03 0.00000E+00 2.53274E-02
      405  0.00000E+00 0.00000E+00-7.25743E-05 0.00000E+00 0.00000E+00 0.00000E+00 0.00000E+00 0.00000E+00 0.00000E+00 0.00000E+00 0.00000E+00 2.53274E-02
      418  4.29783E-07 0.00000E+00-7.25743E-05 0.00000E+00 0.00000E+00 0.00000E+00 0.00000E+00 0.00000E+00 0.00000E+00 3.49293E-03 0.00000E+00 2.53274E-02
      438  6.23734E-09 0.00000E+00-7.25743E-05 0.00000E+00 0.00000E+00 0.00000E+00 0.00000E+00 0.00000E+00 0.00000E+00 1.27000E-02 0.00000E+00 2.53274E-02
      439  1.42418E-07 0.00000E+00-7.25743E-05 0.00000E+00 0.00000E+00 0.00000E+00 0.00000E+00 0.00000E+00 0.00000E+00 1.18837E-02 0.00000E+00 2.53274E-02
      440  1.66764E-07 0.00000E+00-7.25743E-05 0.00000E+00 0.00000E+00 0.00000E+00 0.00000E+00 0.00000E+00 0.00000E+00 1.10673E-02 0.00000E+00 2.53274E-02
      441  1.89501E-07 0.00000E+00-7.25743E-05 0.00000E+00 0.00000E+00 0.00000E+00 0.00000E+00 0.00000E+00 0.00000E+00 1.02509E-02 0.00000E+00 2.53274E-02
      442  1.95169E-07 0.00000E+00-7.25743E-05 0.00000E+00 0.00000E+00 0.00000E+00 0.00000E+00 0.00000E+00 0.00000E+00 9.43450E-03 0.00000E+00 2.53274E-02
      443  2.17915E-07 0.00000E+00-7.25743E-05 0.00000E+00 0.00000E+00 0.00000E+00 0.00000E+00 0.00000E+00 0.00000E+00 8.61812E-03 0.00000E+00 2.53274E-02
      444  3.09809E-07 0.00000E+00-7.25743E-05 0.00000E+00 0.00000E+00 0.00000E+00 0.00000E+00 0.00000E+00 0.00000E+00 7.80171E-03 0.00000E+00 2.53274E-02
      591  3.43334E-07 1.29671E-06-7.25743E-05 0.00000E+00 0.00000E+00 0.00000E+00 0.00000E+00 0.00000E+00 0.00000E+00 7.97304E-03 3.27280E-03 2.53274E-02
      592  3.89167E-07 1.32467E-06-7.25743E-05 0.00000E+00 0.00000E+00 0.00000E+00 0.00000E+00 0.00000E+00 0.00000E+00 8.73269E-03 3.57212E-03 2.53274E-02
      595  4.60033E-07 1.29133E-06-7.25743E-05 0.00000E+00 0.00000E+00 0.00000E+00 0.00000E+00 0.00000E+00 0.00000E+00 6.09646E-03 6.09279E-03 2.53274E-02
      596  5.20614E-07 1.27447E-06-7.25743E-05 0.00000E+00 0.00000E+00 0.00000E+00 0.00000E+00 0.00000E+00 0.00000E+00 6.67502E-03 6.66887E-03 2.53274E-02
      599  3.15736E-07 1.41030E-06-7.25743E-05 0.00000E+00 0.00000E+00 0.00000E+00 0.00000E+00 0.00000E+00 0.00000E+00 3.27662E-03 7.97211E-03 2.53274E-02
      600  3.77448E-07 1.43249E-06-7.25743E-05 0.00000E+00 0.00000E+00 0.00000E+00 0.00000E+00 0.00000E+00 0.00000E+00 3.57818E-03 8.73093E-03 2.53274E-02
      603  0.00000E+00 1.90956E-06-7.25743E-05 0.00000E+00 0.00000E+00 0.00000E+00 0.00000E+00 0.00000E+00 0.00000E+00 5.27700E-19 8.61981E-03 2.53274E-02
      604  0.00000E+00 1.71250E-06-7.25743E-05 0.00000E+00 0.00000E+00 0.00000E+00 0.00000E+00 0.00000E+00 0.00000E+00 5.77700E-19 9.43601E-03 2.53274E-02
      638  4.96331E-07 1.36092E-06-7.25743E-05 0.00000E+00 0.00000E+00 0.00000E+00 0.00000E+00 0.00000E+00 0.00000E+00 1.02522E-02 4.17076E-03 2.53274E-02
      639  4.95156E-07 1.30896E-06-7.25743E-05 0.00000E+00 0.00000E+00 0.00000E+00 0.00000E+00 0.00000E+00 0.00000E+00 1.10118E-02 4.47001E-03 2.53274E-02
      641  6.29953E-07 1.24519E-06-7.25743E-05 0.00000E+00 0.00000E+00 0.00000E+00 0.00000E+00 0.00000E+00 0.00000E+00 7.83203E-03 7.82115E-03 2.53274E-02
      642  7.62005E-07 1.30570E-06-7.25743E-05 0.00000E+00 0.00000E+00 0.00000E+00 0.00000E+00 0.00000E+00 0.00000E+00 8.41066E-03 8.39731E-03 2.53274E-02
      644  4.64845E-07 1.47686E-06-7.25743E-05 0.00000E+00 0.00000E+00 0.00000E+00 0.00000E+00 0.00000E+00 0.00000E+00 4.18116E-03 1.02486E-02 2.53274E-02
      645  3.45437E-07 1.28919E-06-7.25743E-05 0.00000E+00 0.00000E+00 0.00000E+00 0.00000E+00 0.00000E+00 0.00000E+00 4.48255E-03 1.10071E-02 2.53274E-02
      647  0.00000E+00 1.62205E-06-7.25743E-05 0.00000E+00 0.00000E+00 0.00000E+00 0.00000E+00 0.00000E+00 0.00000E+00 6.77700E-19 1.10687E-02 2.53274E-02
      648  0.00000E+00 2.22643E-06-7.25743E-05 0.00000E+00 0.00000E+00 0.00000E+00 0.00000E+00 0.00000E+00 0.00000E+00 7.27700E-19 1.18858E-02 2.53274E-02
      674  2.88658E-07 1.25561E-06-7.25743E-05 0.00000E+00 0.00000E+00 0.00000E+00 0.00000E+00 0.00000E+00 0.00000E+00 7.21329E-03 2.97346E-03 2.53274E-02
      676  4.02962E-07 1.30435E-06-7.25743E-05 0.00000E+00 0.00000E+00 0.00000E+00 0.00000E+00 0.00000E+00 0.00000E+00 5.51800E-03 5.51660E-03 2.53274E-02
      678  2.39537E-07 1.38474E-06-7.25743E-05 0.00000E+00 0.00000E+00 0.00000E+00 0.00000E+00 0.00000E+00 0.00000E+00 2.97504E-03 7.21338E-03 2.53274E-02
      680  0.00000E+00 2.16368E-06-7.25743E-05 0.00000E+00 0.00000E+00 0.00000E+00 0.00000E+00 0.00000E+00 0.00000E+00 4.77700E-19 7.80356E-03 2.53274E-02
      821  4.33327E-07 1.35146E-06-7.25743E-05 0.00000E+00 0.00000E+00 0.00000E+00 0.00000E+00 0.00000E+00 0.00000E+00 9.49243E-03 3.87145E-03 2.53274E-02
      822  5.89443E-07 1.26945E-06-7.25743E-05 0.00000E+00 0.00000E+00 0.00000E+00 0.00000E+00 0.00000E+00 0.00000E+00 7.25349E-03 7.24507E-03 2.53274E-02
      823  4.29544E-07 1.45198E-06-7.25743E-05 0.00000E+00 0.00000E+00 0.00000E+00 0.00000E+00 0.00000E+00 0.00000E+00 3.87973E-03 9.48975E-03 2.53274E-02
      824  0.00000E+00 1.55108E-06-7.25743E-05 0.00000E+00 0.00000E+00 0.00000E+00 0.00000E+00 0.00000E+00 0.00000E+00 6.27700E-19 1.02523E-02 2.53274E-02
      850  2.31899E-07 1.16049E-06-7.25743E-05 0.00000E+00 0.00000E+00 0.00000E+00 0.00000E+00 0.00000E+00 0.00000E+00 1.17712E-02 4.76926E-03 2.53274E-02
      852  4.37068E-07 1.22974E-06-7.25743E-05 0.00000E+00 0.00000E+00 0.00000E+00 0.00000E+00 0.00000E+00 0.00000E+00 8.98874E-03 8.97343E-03 2.53274E-02
      854  1.12432E-07 1.52857E-06-7.25743E-05 0.00000E+00 0.00000E+00 0.00000E+00 0.00000E+00 0.00000E+00 0.00000E+00 4.78381E-03 1.17661E-02 2.53274E-02
      856  0.00000E+00 3.32200E-06-7.25743E-05 0.00000E+00 0.00000E+00 0.00000E+00 0.00000E+00 0.00000E+00 0.00000E+00 7.77700E-19 1.27033E-02 2.53274E-02



 n o d a l   p r i n t   o u t   f o r   t i m e  s t e p     288                              ( at time 1.0935643E+01 )

 nodal point  x-disp     y-disp      z-disp      x-vel       y-vel       z-vel      x-accl      y-accl      z-accl      x-coor      y-coor      z-coor
        1  4.94782E-05 0.00000E+00 0.00000E+00 0.00000E+00 0.00000E+00 0.00000E+00 0.00000E+00 0.00000E+00 0.00000E+00 3.22448E-03 0.00000E+00-1.78000E-18
        2  3.47572E-05 0.00000E+00 0.00000E+00 0.00000E+00 0.00000E+00 0.00000E+00 0.00000E+00 0.00000E+00 0.00000E+00 2.41606E-03 0.00000E+00 0.00000E+00
        3  2.28073E-05 0.00000E+00 0.00000E+00 0.00000E+00 0.00000E+00 0.00000E+00 0.00000E+00 0.00000E+00 0.00000E+00 1.61031E-03 0.00000E+00 0.00000E+00
        4  1.16622E-05 0.00000E+00 0.00000E+00 0.00000E+00 0.00000E+00 0.00000E+00 0.00000E+00 0.00000E+00 0.00000E+00 8.05412E-04 0.00000E+00 0.00000E+00
        5  0.00000E+00 0.00000E+00 0.00000E+00 0.00000E+00 0.00000E+00 0.00000E+00 0.00000E+00 0.00000E+00 0.00000E+00 0.00000E+00 0.00000E+00 0.00000E+00
        6  0.00000E+00 1.23370E-05 0.00000E+00 0.00000E+00 0.00000E+00 0.00000E+00 0.00000E+00 0.00000E+00 0.00000E+00 4.86000E-20 8.06087E-04 0.00000E+00
        7  0.00000E+00 2.49694E-05 0.00000E+00 0.00000E+00 0.00000E+00 0.00000E+00 0.00000E+00 0.00000E+00 0.00000E+00 9.72100E-20 1.61247E-03 0.00000E+00
        8  0.00000E+00 3.83306E-05 0.00000E+00 0.00000E+00 0.00000E+00 0.00000E+00 0.00000E+00 0.00000E+00 0.00000E+00 1.45800E-19 2.41963E-03 0.00000E+00
        9  0.00000E+00 5.25759E-05 0.00000E+00 0.00000E+00 0.00000E+00 0.00000E+00 0.00000E+00 0.00000E+00 0.00000E+00 1.94400E-19 3.22758E-03 0.00000E+00
       10  2.13867E-05 5.04311E-05 0.00000E+00 0.00000E+00 0.00000E+00 0.00000E+00 0.00000E+00 0.00000E+00 0.00000E+00 1.23639E-03 2.98373E-03 0.00000E+00
       11  4.12750E-05 4.28687E-05 0.00000E+00 0.00000E+00 0.00000E+00 0.00000E+00 0.00000E+00 0.00000E+00 0.00000E+00 2.28637E-03 2.28797E-03 0.00000E+00
       12  5.20937E-05 2.47788E-05 0.00000E+00 0.00000E+00 0.00000E+00 0.00000E+00 0.00000E+00 0.00000E+00 0.00000E+00 2.98539E-03 1.23978E-03 0.00000E+00
       13  2.57651E-05 2.64224E-05 0.00000E+00 0.00000E+00 0.00000E+00 0.00000E+00 0.00000E+00 0.00000E+00 0.00000E+00 1.33407E-03 1.37832E-03 0.00000E+00
       14  2.75459E-05 1.45302E-05 0.00000E+00 0.00000E+00 0.00000E+00 0.00000E+00 0.00000E+00 0.00000E+00 0.00000E+00 1.51585E-03 7.21507E-04 0.00000E+00
       15  1.29270E-05 2.53827E-05 0.00000E+00 0.00000E+00 0.00000E+00 0.00000E+00 0.00000E+00 0.00000E+00 0.00000E+00 6.82437E-04 1.53238E-03 0.00000E+00
       16  1.37108E-05 1.32189E-05 0.00000E+00 0.00000E+00 0.00000E+00 0.00000E+00 0.00000E+00 0.00000E+00 0.00000E+00 7.67348E-04 7.95556E-04 0.00000E+00
       17  3.40850E-05 3.35153E-05 0.00000E+00 0.00000E+00 0.00000E+00 0.00000E+00 0.00000E+00 0.00000E+00 0.00000E+00 1.77039E-03 1.80102E-03 0.00000E+00
       18  1.73007E-05 3.71208E-05 0.00000E+00 0.00000E+00 0.00000E+00 0.00000E+00 0.00000E+00 0.00000E+00 0.00000E+00 9.37431E-04 2.22822E-03 0.00000E+00
       19  3.98737E-05 1.81340E-05 0.00000E+00 0.00000E+00 0.00000E+00 0.00000E+00 0.00000E+00 0.00000E+00 0.00000E+00 2.20317E-03 9.68993E-04 0.00000E+00
[...]
      220  0.00000E+00 2.33624E-06-9.96139E-04 0.00000E+00 0.00000E+00 0.00000E+00 0.00000E+00 0.00000E+00 0.00000E+00 2.13900E-19 3.49484E-03 2.44039E-02
      221  2.11592E-07 9.78168E-07-9.96139E-04 0.00000E+00 0.00000E+00 0.00000E+00 0.00000E+00 0.00000E+00 0.00000E+00 1.47271E-03 3.31538E-03 2.44039E-02
      222  1.99566E-07 1.17205E-06-9.96139E-04 0.00000E+00 0.00000E+00 0.00000E+00 0.00000E+00 0.00000E+00 0.00000E+00 2.02400E-03 4.82037E-03 2.44039E-02
      223  0.00000E+00 2.78101E-06-9.96139E-04 0.00000E+00 0.00000E+00 0.00000E+00 0.00000E+00 0.00000E+00 0.00000E+00 3.20800E-19 5.24158E-03 2.44039E-02
      248  3.33891E-07 1.71053E-06-9.96139E-04 0.00000E+00 0.00000E+00 0.00000E+00 0.00000E+00 0.00000E+00 0.00000E+00 2.67373E-03 6.45491E-03 2.44039E-02
      249  0.00000E+00 3.16282E-06-9.96139E-04 0.00000E+00 0.00000E+00 0.00000E+00 0.00000E+00 0.00000E+00 0.00000E+00 4.27700E-19 6.98816E-03 2.44039E-02
      286 -4.41338E-08 7.45713E-07-9.96139E-04 0.00000E+00 0.00000E+00 0.00000E+00 0.00000E+00 0.00000E+00 0.00000E+00 3.27326E-03 1.55555E-03 2.44039E-02
      287  3.30367E-07 7.63680E-07-9.96139E-04 0.00000E+00 0.00000E+00 0.00000E+00 0.00000E+00 0.00000E+00 0.00000E+00 2.87803E-03 2.97416E-03 2.44039E-02
      288  1.48587E-07 1.87690E-08-9.96139E-04 0.00000E+00 0.00000E+00 0.00000E+00 0.00000E+00 0.00000E+00 0.00000E+00 1.65785E-03 1.72082E-03 2.44039E-02
      301  4.47092E-07 1.51533E-06-9.96139E-04 0.00000E+00 0.00000E+00 0.00000E+00 0.00000E+00 0.00000E+00 0.00000E+00 3.81975E-03 3.88922E-03 2.44039E-02
      314  6.16992E-07 1.67865E-06-9.96139E-04 0.00000E+00 0.00000E+00 0.00000E+00 0.00000E+00 0.00000E+00 0.00000E+00 4.93972E-03 4.94078E-03 2.44039E-02
      363  3.94380E-07 1.43351E-06-9.96139E-04 0.00000E+00 0.00000E+00 0.00000E+00 0.00000E+00 0.00000E+00 0.00000E+00 6.45379E-03 2.67433E-03 2.44039E-02
      364 -2.23223E-07 1.13119E-06-9.96139E-04 0.00000E+00 0.00000E+00 0.00000E+00 0.00000E+00 0.00000E+00 0.00000E+00 4.75788E-03 2.09233E-03 2.44039E-02
      365  2.03251E-06 0.00000E+00-9.96139E-04 0.00000E+00 0.00000E+00 0.00000E+00 0.00000E+00 0.00000E+00 0.00000E+00 5.24083E-03 0.00000E+00 2.44039E-02
      366  1.30112E-06 0.00000E+00-9.96139E-04 0.00000E+00 0.00000E+00 0.00000E+00 0.00000E+00 0.00000E+00 0.00000E+00 6.98630E-03 0.00000E+00 2.44039E-02
      379  0.00000E+00 9.74414E-07-9.96139E-04 0.00000E+00 0.00000E+00 0.00000E+00 0.00000E+00 0.00000E+00 0.00000E+00 1.06900E-19 1.74727E-03 2.44039E-02
      404  2.62851E-06 0.00000E+00-9.96139E-04 0.00000E+00 0.00000E+00 0.00000E+00 0.00000E+00 0.00000E+00 0.00000E+00 1.74893E-03 0.00000E+00 2.44039E-02
      405  0.00000E+00 0.00000E+00-9.96139E-04 0.00000E+00 0.00000E+00 0.00000E+00 0.00000E+00 0.00000E+00 0.00000E+00 0.00000E+00 0.00000E+00 2.44039E-02
      418  3.36563E-06 0.00000E+00-9.96139E-04 0.00000E+00 0.00000E+00 0.00000E+00 0.00000E+00 0.00000E+00 0.00000E+00 3.49587E-03 0.00000E+00 2.44039E-02
      438  7.58967E-08 0.00000E+00-9.96139E-04 0.00000E+00 0.00000E+00 0.00000E+00 0.00000E+00 0.00000E+00 0.00000E+00 1.27001E-02 0.00000E+00 2.44039E-02
      439  2.75824E-07 0.00000E+00-9.96139E-04 0.00000E+00 0.00000E+00 0.00000E+00 0.00000E+00 0.00000E+00 0.00000E+00 1.18839E-02 0.00000E+00 2.44039E-02
      440  3.10944E-07 0.00000E+00-9.96139E-04 0.00000E+00 0.00000E+00 0.00000E+00 0.00000E+00 0.00000E+00 0.00000E+00 1.10674E-02 0.00000E+00 2.44039E-02
      441  3.53010E-07 0.00000E+00-9.96139E-04 0.00000E+00 0.00000E+00 0.00000E+00 0.00000E+00 0.00000E+00 0.00000E+00 1.02511E-02 0.00000E+00 2.44039E-02
      442  4.18173E-07 0.00000E+00-9.96139E-04 0.00000E+00 0.00000E+00 0.00000E+00 0.00000E+00 0.00000E+00 0.00000E+00 9.43472E-03 0.00000E+00 2.44039E-02
      443  5.14740E-07 0.00000E+00-9.96139E-04 0.00000E+00 0.00000E+00 0.00000E+00 0.00000E+00 0.00000E+00 0.00000E+00 8.61841E-03 0.00000E+00 2.44039E-02
      444  7.60079E-07 0.00000E+00-9.96139E-04 0.00000E+00 0.00000E+00 0.00000E+00 0.00000E+00 0.00000E+00 0.00000E+00 7.80216E-03 0.00000E+00 2.44039E-02
      591  5.26348E-07 1.52857E-06-9.96139E-04 0.00000E+00 0.00000E+00 0.00000E+00 0.00000E+00 0.00000E+00 0.00000E+00 7.97323E-03 3.27303E-03 2.44039E-02
      592  5.30512E-07 1.48135E-06-9.96139E-04 0.00000E+00 0.00000E+00 0.00000E+00 0.00000E+00 0.00000E+00 0.00000E+00 8.73283E-03 3.57228E-03 2.44039E-02
      595  5.55482E-07 1.59542E-06-9.96139E-04 0.00000E+00 0.00000E+00 0.00000E+00 0.00000E+00 0.00000E+00 0.00000E+00 6.09656E-03 6.09310E-03 2.44039E-02
      596  6.13505E-07 1.52278E-06-9.96139E-04 0.00000E+00 0.00000E+00 0.00000E+00 0.00000E+00 0.00000E+00 0.00000E+00 6.67511E-03 6.66912E-03 2.44039E-02
      599  4.13722E-07 1.84217E-06-9.96139E-04 0.00000E+00 0.00000E+00 0.00000E+00 0.00000E+00 0.00000E+00 0.00000E+00 3.27671E-03 7.97254E-03 2.44039E-02
      600  4.75154E-07 1.79812E-06-9.96139E-04 0.00000E+00 0.00000E+00 0.00000E+00 0.00000E+00 0.00000E+00 0.00000E+00 3.57828E-03 8.73130E-03 2.44039E-02
      603  0.00000E+00 2.75490E-06-9.96139E-04 0.00000E+00 0.00000E+00 0.00000E+00 0.00000E+00 0.00000E+00 0.00000E+00 5.27700E-19 8.62065E-03 2.44039E-02
      604  0.00000E+00 2.46835E-06-9.96139E-04 0.00000E+00 0.00000E+00 0.00000E+00 0.00000E+00 0.00000E+00 0.00000E+00 5.77700E-19 9.43677E-03 2.44039E-02
      638  6.08290E-07 1.39321E-06-9.96139E-04 0.00000E+00 0.00000E+00 0.00000E+00 0.00000E+00 0.00000E+00 0.00000E+00 1.02523E-02 4.17079E-03 2.44039E-02
      639  5.80892E-07 1.32000E-06-9.96139E-04 0.00000E+00 0.00000E+00 0.00000E+00 0.00000E+00 0.00000E+00 0.00000E+00 1.10119E-02 4.47002E-03 2.44039E-02
      641  7.13943E-07 1.46211E-06-9.96139E-04 0.00000E+00 0.00000E+00 0.00000E+00 0.00000E+00 0.00000E+00 0.00000E+00 7.83211E-03 7.82136E-03 2.44039E-02
      642  8.65227E-07 1.50345E-06-9.96139E-04 0.00000E+00 0.00000E+00 0.00000E+00 0.00000E+00 0.00000E+00 0.00000E+00 8.41077E-03 8.39750E-03 2.44039E-02
      644  4.67095E-07 1.66974E-06-9.96139E-04 0.00000E+00 0.00000E+00 0.00000E+00 0.00000E+00 0.00000E+00 0.00000E+00 4.18117E-03 1.02488E-02 2.44039E-02
      645  2.97526E-07 1.45796E-06-9.96139E-04 0.00000E+00 0.00000E+00 0.00000E+00 0.00000E+00 0.00000E+00 0.00000E+00 4.48250E-03 1.10073E-02 2.44039E-02
      647  0.00000E+00 2.36067E-06-9.96139E-04 0.00000E+00 0.00000E+00 0.00000E+00 0.00000E+00 0.00000E+00 0.00000E+00 6.77700E-19 1.10695E-02 2.44039E-02
      648  0.00000E+00 2.76875E-06-9.96139E-04 0.00000E+00 0.00000E+00 0.00000E+00 0.00000E+00 0.00000E+00 0.00000E+00 7.27700E-19 1.18864E-02 2.44039E-02
      674  5.24335E-07 1.53812E-06-9.96139E-04 0.00000E+00 0.00000E+00 0.00000E+00 0.00000E+00 0.00000E+00 0.00000E+00 7.21352E-03 2.97374E-03 2.44039E-02
      676  5.09456E-07 1.63203E-06-9.96139E-04 0.00000E+00 0.00000E+00 0.00000E+00 0.00000E+00 0.00000E+00 0.00000E+00 5.51811E-03 5.51693E-03 2.44039E-02
      678  3.62495E-07 1.84081E-06-9.96139E-04 0.00000E+00 0.00000E+00 0.00000E+00 0.00000E+00 0.00000E+00 0.00000E+00 2.97516E-03 7.21384E-03 2.44039E-02
      680  0.00000E+00 3.07763E-06-9.96139E-04 0.00000E+00 0.00000E+00 0.00000E+00 0.00000E+00 0.00000E+00 0.00000E+00 4.77700E-19 7.80448E-03 2.44039E-02
      821  5.72674E-07 1.42935E-06-9.96139E-04 0.00000E+00 0.00000E+00 0.00000E+00 0.00000E+00 0.00000E+00 0.00000E+00 9.49257E-03 3.87153E-03 2.44039E-02
      822  6.60586E-07 1.47347E-06-9.96139E-04 0.00000E+00 0.00000E+00 0.00000E+00 0.00000E+00 0.00000E+00 0.00000E+00 7.25356E-03 7.24527E-03 2.44039E-02
      823  4.86257E-07 1.72742E-06-9.96139E-04 0.00000E+00 0.00000E+00 0.00000E+00 0.00000E+00 0.00000E+00 0.00000E+00 3.87979E-03 9.49003E-03 2.44039E-02
      824  0.00000E+00 2.29821E-06-9.96139E-04 0.00000E+00 0.00000E+00 0.00000E+00 0.00000E+00 0.00000E+00 0.00000E+00 6.27700E-19 1.02530E-02 2.44039E-02
      850  2.80462E-07 1.18224E-06-9.96139E-04 0.00000E+00 0.00000E+00 0.00000E+00 0.00000E+00 0.00000E+00 0.00000E+00 1.17713E-02 4.76928E-03 2.44039E-02
      852  3.38882E-07 1.31411E-06-9.96139E-04 0.00000E+00 0.00000E+00 0.00000E+00 0.00000E+00 0.00000E+00 0.00000E+00 8.98864E-03 8.97351E-03 2.44039E-02
      854  2.05183E-07 1.81610E-06-9.96139E-04 0.00000E+00 0.00000E+00 0.00000E+00 0.00000E+00 0.00000E+00 0.00000E+00 4.78391E-03 1.17664E-02 2.44039E-02
      856  0.00000E+00 3.61703E-06-9.96139E-04 0.00000E+00 0.00000E+00 0.00000E+00 0.00000E+00 0.00000E+00 0.00000E+00 7.77700E-19 1.27036E-02 2.44039E-02



 n o d a l   p r i n t   o u t   f o r   t i m e  s t e p     480                              ( at time 1.0000000E+02 )

 nodal point  x-disp     y-disp      z-disp      x-vel       y-vel       z-vel      x-accl      y-accl      z-accl      x-coor      y-coor      z-coor
        1  8.05515E-04 0.00000E+00 0.00000E+00 0.00000E+00 0.00000E+00 0.00000E+00 0.00000E+00 0.00000E+00 0.00000E+00 3.98052E-03 0.00000E+00-1.78000E-18
        2  5.78737E-04 0.00000E+00 0.00000E+00 0.00000E+00 0.00000E+00 0.00000E+00 0.00000E+00 0.00000E+00 0.00000E+00 2.96004E-03 0.00000E+00 0.00000E+00
        3  3.66722E-04 0.00000E+00 0.00000E+00 0.00000E+00 0.00000E+00 0.00000E+00 0.00000E+00 0.00000E+00 0.00000E+00 1.95422E-03 0.00000E+00 0.00000E+00
        4  1.55573E-04 0.00000E+00 0.00000E+00 0.00000E+00 0.00000E+00 0.00000E+00 0.00000E+00 0.00000E+00 0.00000E+00 9.49323E-04 0.00000E+00 0.00000E+00
        5  0.00000E+00 0.00000E+00 0.00000E+00 0.00000E+00 0.00000E+00 0.00000E+00 0.00000E+00 0.00000E+00 0.00000E+00 0.00000E+00 0.00000E+00 0.00000E+00
        6  0.00000E+00 1.67986E-04 0.00000E+00 0.00000E+00 0.00000E+00 0.00000E+00 0.00000E+00 0.00000E+00 0.00000E+00 4.86000E-20 9.61736E-04 0.00000E+00
        7  0.00000E+00 3.45336E-04 0.00000E+00 0.00000E+00 0.00000E+00 0.00000E+00 0.00000E+00 0.00000E+00 0.00000E+00 9.72100E-20 1.93284E-03 0.00000E+00
        8  0.00000E+00 5.14526E-04 0.00000E+00 0.00000E+00 0.00000E+00 0.00000E+00 0.00000E+00 0.00000E+00 0.00000E+00 1.45800E-19 2.89583E-03 0.00000E+00
        9  0.00000E+00 6.75924E-04 0.00000E+00 0.00000E+00 0.00000E+00 0.00000E+00 0.00000E+00 0.00000E+00 0.00000E+00 1.94400E-19 3.85092E-03 0.00000E+00
       10  2.69643E-04 6.38918E-04 0.00000E+00 0.00000E+00 0.00000E+00 0.00000E+00 0.00000E+00 0.00000E+00 0.00000E+00 1.48464E-03 3.57222E-03 0.00000E+00
       11  5.05167E-04 5.28893E-04 0.00000E+00 0.00000E+00 0.00000E+00 0.00000E+00 0.00000E+00 0.00000E+00 0.00000E+00 2.75027E-03 2.77399E-03 0.00000E+00
       12  7.29339E-04 3.60661E-04 0.00000E+00 0.00000E+00 0.00000E+00 0.00000E+00 0.00000E+00 0.00000E+00 0.00000E+00 3.66264E-03 1.57566E-03 0.00000E+00
       13  3.64550E-04 3.44216E-04 0.00000E+00 0.00000E+00 0.00000E+00 0.00000E+00 0.00000E+00 0.00000E+00 0.00000E+00 1.67285E-03 1.69612E-03 0.00000E+00
       14  3.92626E-04 1.96001E-04 0.00000E+00 0.00000E+00 0.00000E+00 0.00000E+00 0.00000E+00 0.00000E+00 0.00000E+00 1.88093E-03 9.02978E-04 0.00000E+00
       15  1.90584E-04 3.75792E-04 0.00000E+00 0.00000E+00 0.00000E+00 0.00000E+00 0.00000E+00 0.00000E+00 0.00000E+00 8.60094E-04 1.88279E-03 0.00000E+00
       16  1.98469E-04 1.98991E-04 0.00000E+00 0.00000E+00 0.00000E+00 0.00000E+00 0.00000E+00 0.00000E+00 0.00000E+00 9.52107E-04 9.81328E-04 0.00000E+00
       17  4.34198E-04 4.27903E-04 0.00000E+00 0.00000E+00 0.00000E+00 0.00000E+00 0.00000E+00 0.00000E+00 0.00000E+00 2.17050E-03 2.19540E-03 0.00000E+00
       18  2.31545E-04 5.11618E-04 0.00000E+00 0.00000E+00 0.00000E+00 0.00000E+00 0.00000E+00 0.00000E+00 0.00000E+00 1.15168E-03 2.70272E-03 0.00000E+00
       19  5.55790E-04 2.43763E-04 0.00000E+00 0.00000E+00 0.00000E+00 0.00000E+00 0.00000E+00 0.00000E+00 0.00000E+00 2.71909E-03 1.19462E-03 0.00000E+00
      220  0.00000E+00 2.29070E-06-1.00000E-03 0.00000E+00 0.00000E+00 0.00000E+00 0.00000E+00 0.00000E+00 0.00000E+00 2.13900E-19 3.49479E-03 2.44000E-02
      221  2.61417E-07 1.00331E-06-1.00000E-03 0.00000E+00 0.00000E+00 0.00000E+00 0.00000E+00 0.00000E+00 0.00000E+00 1.47276E-03 3.31540E-03 2.44000E-02
      222  2.45090E-07 1.19482E-06-1.00000E-03 0.00000E+00 0.00000E+00 0.00000E+00 0.00000E+00 0.00000E+00 0.00000E+00 2.02405E-03 4.82039E-03 2.44000E-02
      223  0.00000E+00 2.79418E-06-1.00000E-03 0.00000E+00 0.00000E+00 0.00000E+00 0.00000E+00 0.00000E+00 0.00000E+00 3.20800E-19 5.24159E-03 2.44000E-02
      248  4.06539E-07 1.79804E-06-1.00000E-03 0.00000E+00 0.00000E+00 0.00000E+00 0.00000E+00 0.00000E+00 0.00000E+00 2.67381E-03 6.45500E-03 2.44000E-02
      249  0.00000E+00 3.22081E-06-1.00000E-03 0.00000E+00 0.00000E+00 0.00000E+00 0.00000E+00 0.00000E+00 0.00000E+00 4.27700E-19 6.98822E-03 2.44000E-02
      286  6.49318E-08 7.14471E-07-1.00000E-03 0.00000E+00 0.00000E+00 0.00000E+00 0.00000E+00 0.00000E+00 0.00000E+00 3.27336E-03 1.55551E-03 2.44000E-02
      287  4.44182E-07 7.25895E-07-1.00000E-03 0.00000E+00 0.00000E+00 0.00000E+00 0.00000E+00 0.00000E+00 0.00000E+00 2.87814E-03 2.97413E-03 2.44000E-02
      288  1.85899E-07 9.10719E-08-1.00000E-03 0.00000E+00 0.00000E+00 0.00000E+00 0.00000E+00 0.00000E+00 0.00000E+00 1.65789E-03 1.72089E-03 2.44000E-02
      301  5.07890E-07 1.48698E-06-1.00000E-03 0.00000E+00 0.00000E+00 0.00000E+00 0.00000E+00 0.00000E+00 0.00000E+00 3.81981E-03 3.88919E-03 2.44000E-02
      314  7.06170E-07 1.70345E-06-1.00000E-03 0.00000E+00 0.00000E+00 0.00000E+00 0.00000E+00 0.00000E+00 0.00000E+00 4.93981E-03 4.94080E-03 2.44000E-02
      363  4.95573E-07 1.48371E-06-1.00000E-03 0.00000E+00 0.00000E+00 0.00000E+00 0.00000E+00 0.00000E+00 0.00000E+00 6.45390E-03 2.67438E-03 2.44000E-02
      364 -7.60335E-08 1.18480E-06-1.00000E-03 0.00000E+00 0.00000E+00 0.00000E+00 0.00000E+00 0.00000E+00 0.00000E+00 4.75802E-03 2.09238E-03 2.44000E-02
      365  2.19610E-06 0.00000E+00-1.00000E-03 0.00000E+00 0.00000E+00 0.00000E+00 0.00000E+00 0.00000E+00 0.00000E+00 5.24100E-03 0.00000E+00 2.44000E-02
      366  1.47264E-06 0.00000E+00-1.00000E-03 0.00000E+00 0.00000E+00 0.00000E+00 0.00000E+00 0.00000E+00 0.00000E+00 6.98647E-03 0.00000E+00 2.44000E-02
      379  0.00000E+00 1.03033E-06-1.00000E-03 0.00000E+00 0.00000E+00 0.00000E+00 0.00000E+00 0.00000E+00 0.00000E+00 1.06900E-19 1.74733E-03 2.44000E-02
      404  2.77292E-06 0.00000E+00-1.00000E-03 0.00000E+00 0.00000E+00 0.00000E+00 0.00000E+00 0.00000E+00 0.00000E+00 1.74907E-03 0.00000E+00 2.44000E-02
      405  0.00000E+00 0.00000E+00-1.00000E-03 0.00000E+00 0.00000E+00 0.00000E+00 0.00000E+00 0.00000E+00 0.00000E+00 0.00000E+00 0.00000E+00 2.44000E-02
      418  3.53380E-06 0.00000E+00-1.00000E-03 0.00000E+00 0.00000E+00 0.00000E+00 0.00000E+00 0.00000E+00 0.00000E+00 3.49603E-03 0.00000E+00 2.44000E-02
      438  2.35388E-07 0.00000E+00-1.00000E-03 0.00000E+00 0.00000E+00 0.00000E+00 0.00000E+00 0.00000E+00 0.00000E+00 1.27002E-02 0.00000E+00 2.44000E-02
      439  4.47543E-07 0.00000E+00-1.00000E-03 0.00000E+00 0.00000E+00 0.00000E+00 0.00000E+00 0.00000E+00 0.00000E+00 1.18840E-02 0.00000E+00 2.44000E-02
      440  4.88639E-07 0.00000E+00-1.00000E-03 0.00000E+00 0.00000E+00 0.00000E+00 0.00000E+00 0.00000E+00 0.00000E+00 1.10676E-02 0.00000E+00 2.44000E-02
      441  5.40554E-07 0.00000E+00-1.00000E-03 0.00000E+00 0.00000E+00 0.00000E+00 0.00000E+00 0.00000E+00 0.00000E+00 1.02512E-02 0.00000E+00 2.44000E-02
      442  5.93147E-07 0.00000E+00-1.00000E-03 0.00000E+00 0.00000E+00 0.00000E+00 0.00000E+00 0.00000E+00 0.00000E+00 9.43489E-03 0.00000E+00 2.44000E-02
      443  6.61974E-07 0.00000E+00-1.00000E-03 0.00000E+00 0.00000E+00 0.00000E+00 0.00000E+00 0.00000E+00 0.00000E+00 8.61856E-03 0.00000E+00 2.44000E-02
      444  8.99640E-07 0.00000E+00-1.00000E-03 0.00000E+00 0.00000E+00 0.00000E+00 0.00000E+00 0.00000E+00 0.00000E+00 7.80230E-03 0.00000E+00 2.44000E-02
      591  6.85014E-07 1.65800E-06-1.00000E-03 0.00000E+00 0.00000E+00 0.00000E+00 0.00000E+00 0.00000E+00 0.00000E+00 7.97339E-03 3.27316E-03 2.44000E-02
      592  7.08399E-07 1.61414E-06-1.00000E-03 0.00000E+00 0.00000E+00 0.00000E+00 0.00000E+00 0.00000E+00 0.00000E+00 8.73301E-03 3.57241E-03 2.44000E-02
      595  6.50696E-07 1.60861E-06-1.00000E-03 0.00000E+00 0.00000E+00 0.00000E+00 0.00000E+00 0.00000E+00 0.00000E+00 6.09665E-03 6.09311E-03 2.44000E-02
      596  7.21980E-07 1.56685E-06-1.00000E-03 0.00000E+00 0.00000E+00 0.00000E+00 0.00000E+00 0.00000E+00 0.00000E+00 6.67522E-03 6.66917E-03 2.44000E-02
      599  4.64366E-07 1.89804E-06-1.00000E-03 0.00000E+00 0.00000E+00 0.00000E+00 0.00000E+00 0.00000E+00 0.00000E+00 3.27676E-03 7.97260E-03 2.44000E-02
      600  5.14102E-07 1.87062E-06-1.00000E-03 0.00000E+00 0.00000E+00 0.00000E+00 0.00000E+00 0.00000E+00 0.00000E+00 3.57831E-03 8.73137E-03 2.44000E-02
      603  0.00000E+00 2.85832E-06-1.00000E-03 0.00000E+00 0.00000E+00 0.00000E+00 0.00000E+00 0.00000E+00 0.00000E+00 5.27700E-19 8.62076E-03 2.44000E-02
      604  0.00000E+00 2.62885E-06-1.00000E-03 0.00000E+00 0.00000E+00 0.00000E+00 0.00000E+00 0.00000E+00 0.00000E+00 5.77700E-19 9.43693E-03 2.44000E-02
      638  8.09561E-07 1.54221E-06-1.00000E-03 0.00000E+00 0.00000E+00 0.00000E+00 0.00000E+00 0.00000E+00 0.00000E+00 1.02525E-02 4.17094E-03 2.44000E-02
      639  7.89119E-07 1.44810E-06-1.00000E-03 0.00000E+00 0.00000E+00 0.00000E+00 0.00000E+00 0.00000E+00 0.00000E+00 1.10121E-02 4.47015E-03 2.44000E-02
      641  8.56800E-07 1.51081E-06-1.00000E-03 0.00000E+00 0.00000E+00 0.00000E+00 0.00000E+00 0.00000E+00 0.00000E+00 7.83226E-03 7.82141E-03 2.44000E-02
      642  1.02776E-06 1.59994E-06-1.00000E-03 0.00000E+00 0.00000E+00 0.00000E+00 0.00000E+00 0.00000E+00 0.00000E+00 8.41093E-03 8.39760E-03 2.44000E-02
      644  5.14850E-07 1.72957E-06-1.00000E-03 0.00000E+00 0.00000E+00 0.00000E+00 0.00000E+00 0.00000E+00 0.00000E+00 4.18121E-03 1.02488E-02 2.44000E-02
      645  3.36762E-07 1.52666E-06-1.00000E-03 0.00000E+00 0.00000E+00 0.00000E+00 0.00000E+00 0.00000E+00 0.00000E+00 4.48254E-03 1.10073E-02 2.44000E-02
      647  0.00000E+00 2.50680E-06-1.00000E-03 0.00000E+00 0.00000E+00 0.00000E+00 0.00000E+00 0.00000E+00 0.00000E+00 6.77700E-19 1.10696E-02 2.44000E-02
      648  0.00000E+00 2.96158E-06-1.00000E-03 0.00000E+00 0.00000E+00 0.00000E+00 0.00000E+00 0.00000E+00 0.00000E+00 7.27700E-19 1.18866E-02 2.44000E-02
      674  6.55701E-07 1.62641E-06-1.00000E-03 0.00000E+00 0.00000E+00 0.00000E+00 0.00000E+00 0.00000E+00 0.00000E+00 7.21366E-03 2.97383E-03 2.44000E-02
      676  5.80341E-07 1.64434E-06-1.00000E-03 0.00000E+00 0.00000E+00 0.00000E+00 0.00000E+00 0.00000E+00 0.00000E+00 5.51818E-03 5.51694E-03 2.44000E-02
      678  4.22423E-07 1.90358E-06-1.00000E-03 0.00000E+00 0.00000E+00 0.00000E+00 0.00000E+00 0.00000E+00 0.00000E+00 2.97522E-03 7.21390E-03 2.44000E-02
      680  0.00000E+00 3.09398E-06-1.00000E-03 0.00000E+00 0.00000E+00 0.00000E+00 0.00000E+00 0.00000E+00 0.00000E+00 4.77700E-19 7.80449E-03 2.44000E-02
      821  7.56249E-07 1.57112E-06-1.00000E-03 0.00000E+00 0.00000E+00 0.00000E+00 0.00000E+00 0.00000E+00 0.00000E+00 9.49276E-03 3.87167E-03 2.44000E-02
      822  7.87667E-07 1.52327E-06-1.00000E-03 0.00000E+00 0.00000E+00 0.00000E+00 0.00000E+00 0.00000E+00 0.00000E+00 7.25369E-03 7.24532E-03 2.44000E-02
      823  5.37733E-07 1.80873E-06-1.00000E-03 0.00000E+00 0.00000E+00 0.00000E+00 0.00000E+00 0.00000E+00 0.00000E+00 3.87984E-03 9.49011E-03 2.44000E-02
      824  0.00000E+00 2.47674E-06-1.00000E-03 0.00000E+00 0.00000E+00 0.00000E+00 0.00000E+00 0.00000E+00 0.00000E+00 6.27700E-19 1.02532E-02 2.44000E-02
      850  5.29014E-07 1.28735E-06-1.00000E-03 0.00000E+00 0.00000E+00 0.00000E+00 0.00000E+00 0.00000E+00 0.00000E+00 1.17715E-02 4.76939E-03 2.44000E-02
      852  5.21043E-07 1.41096E-06-1.00000E-03 0.00000E+00 0.00000E+00 0.00000E+00 0.00000E+00 0.00000E+00 0.00000E+00 8.98882E-03 8.97361E-03 2.44000E-02
      854  2.62980E-07 1.96560E-06-1.00000E-03 0.00000E+00 0.00000E+00 0.00000E+00 0.00000E+00 0.00000E+00 0.00000E+00 4.78396E-03 1.17666E-02 2.44000E-02
      856  0.00000E+00 3.79926E-06-1.00000E-03 0.00000E+00 0.00000E+00 0.00000E+00 0.00000E+00 0.00000E+00 0.00000E+00 7.77700E-19 1.27038E-02 2.44000E-02
