 LS-DYNA keyword deck by LS-PrePost                                      
                    ls-dyna smp d R14 R14.1.1s_1_ef50e1 date 06/16/2024

 n o d a l   f o r c e/e n e r g y    o u t p u t  t=   0.00000E+00

 velocity boundary condition forces/rigid body moments 

 nd#     220  xforce=   0.0000E+00   yforce=   0.0000E+00  zforce=   0.0000E+00   energy=   0.0000E+00   setid =     220 xmoment=   0.0000E+00 ymoment=   0.0000E+00 zmoment=   0.0000E+00
 nd#     221  xforce=   0.0000E+00   yforce=   0.0000E+00  zforce=   0.0000E+00   energy=   0.0000E+00   setid =     221 xmoment=   0.0000E+00 ymoment=   0.0000E+00 zmoment=   0.0000E+00
 nd#     222  xforce=   0.0000E+00   yforce=   0.0000E+00  zforce=   0.0000E+00   energy=   0.0000E+00   setid =     222 xmoment=   0.0000E+00 ymoment=   0.0000E+00 zmoment=   0.0000E+00
 nd#     223  xforce=   0.0000E+00   yforce=   0.0000E+00  zforce=   0.0000E+00   energy=   0.0000E+00   setid =     223 xmoment=   0.0000E+00 ymoment=   0.0000E+00 zmoment=   0.0000E+00
 nd#     248  xforce=   0.0000E+00   yforce=   0.0000E+00  zforce=   0.0000E+00   energy=   0.0000E+00   setid =     248 xmoment=   0.0000E+00 ymoment=   0.0000E+00 zmoment=   0.0000E+00
 nd#     249  xforce=   0.0000E+00   yforce=   0.0000E+00  zforce=   0.0000E+00   energy=   0.0000E+00   setid =     249 xmoment=   0.0000E+00 ymoment=   0.0000E+00 zmoment=   0.0000E+00
 nd#     286  xforce=   0.0000E+00   yforce=   0.0000E+00  zforce=   0.0000E+00   energy=   0.0000E+00   setid =     286 xmoment=   0.0000E+00 ymoment=   0.0000E+00 zmoment=   0.0000E+00
 nd#     287  xforce=   0.0000E+00   yforce=   0.0000E+00  zforce=   0.0000E+00   energy=   0.0000E+00   setid =     287 xmoment=   0.0000E+00 ymoment=   0.0000E+00 zmoment=   0.0000E+00
 nd#     288  xforce=   0.0000E+00   yforce=   0.0000E+00  zforce=   0.0000E+00   energy=   0.0000E+00   setid =     288 xmoment=   0.0000E+00 ymoment=   0.0000E+00 zmoment=   0.0000E+00
 nd#     301  xforce=   0.0000E+00   yforce=   0.0000E+00  zforce=   0.0000E+00   energy=   0.0000E+00   setid =     301 xmoment=   0.0000E+00 ymoment=   0.0000E+00 zmoment=   0.0000E+00
 nd#     314  xforce=   0.0000E+00   yforce=   0.0000E+00  zforce=   0.0000E+00   energy=   0.0000E+00   setid =     314 xmoment=   0.0000E+00 ymoment=   0.0000E+00 zmoment=   0.0000E+00
 nd#     363  xforce=   0.0000E+00   yforce=   0.0000E+00  zforce=   0.0000E+00   energy=   0.0000E+00   setid =     363 xmoment=   0.0000E+00 ymoment=   0.0000E+00 zmoment=   0.0000E+00
 nd#     364  xforce=   0.0000E+00   yforce=   0.0000E+00  zforce=   0.0000E+00   energy=   0.0000E+00   setid =     364 xmoment=   0.0000E+00 ymoment=   0.0000E+00 zmoment=   0.0000E+00
 nd#     365  xforce=   0.0000E+00   yforce=   0.0000E+00  zforce=   0.0000E+00   energy=   0.0000E+00   setid =     365 xmoment=   0.0000E+00 ymoment=   0.0000E+00 zmoment=   0.0000E+00
 nd#     366  xforce=   0.0000E+00   yforce=   0.0000E+00  zforce=   0.0000E+00   energy=   0.0000E+00   setid =     366 xmoment=   0.0000E+00 ymoment=   0.0000E+00 zmoment=   0.0000E+00
 nd#     379  xforce=   0.0000E+00   yforce=   0.0000E+00  zforce=   0.0000E+00   energy=   0.0000E+00   setid =     379 xmoment=   0.0000E+00 ymoment=   0.0000E+00 zmoment=   0.0000E+00
 nd#     404  xforce=   0.0000E+00   yforce=   0.0000E+00  zforce=   0.0000E+00   energy=   0.0000E+00   setid =     404 xmoment=   0.0000E+00 ymoment=   0.0000E+00 zmoment=   0.0000E+00
 nd#     405  xforce=   0.0000E+00   yforce=   0.0000E+00  zforce=   0.0000E+00   energy=   0.0000E+00   setid =     405 xmoment=   0.0000E+00 ymoment=   0.0000E+00 zmoment=   0.0000E+00
 nd#     418  xforce=   0.0000E+00   yforce=   0.0000E+00  zforce=   0.0000E+00   energy=   0.0000E+00   setid =     418 xmoment=   0.0000E+00 ymoment=   0.0000E+00 zmoment=   0.0000E+00
 nd#     438  xforce=   0.0000E+00   yforce=   0.0000E+00  zforce=   0.0000E+00   energy=   0.0000E+00   setid =     438 xmoment=   0.0000E+00 ymoment=   0.0000E+00 zmoment=   0.0000E+00
 nd#     439  xforce=   0.0000E+00   yforce=   0.0000E+00  zforce=   0.0000E+00   energy=   0.0000E+00   setid =     439 xmoment=   0.0000E+00 ymoment=   0.0000E+00 zmoment=   0.0000E+00
 nd#     440  xforce=   0.0000E+00   yforce=   0.0000E+00  zforce=   0.0000E+00   energy=   0.0000E+00   setid =     440 xmoment=   0.0000E+00 ymoment=   0.0000E+00 zmoment=   0.0000E+00
 nd#     441  xforce=   0.0000E+00   yforce=   0.0000E+00  zforce=   0.0000E+00   energy=   0.0000E+00   setid =     441 xmoment=   0.0000E+00 ymoment=   0.0000E+00 zmoment=   0.0000E+00
 nd#     442  xforce=   0.0000E+00   yforce=   0.0000E+00  zforce=   0.0000E+00   energy=   0.0000E+00   setid =     442 xmoment=   0.0000E+00 ymoment=   0.0000E+00 zmoment=   0.0000E+00
 nd#     443  xforce=   0.0000E+00   yforce=   0.0000E+00  zforce=   0.0000E+00   energy=   0.0000E+00   setid =     443 xmoment=   0.0000E+00 ymoment=   0.0000E+00 zmoment=   0.0000E+00
 nd#     444  xforce=   0.0000E+00   yforce=   0.0000E+00  zforce=   0.0000E+00   energy=   0.0000E+00   setid =     444 xmoment=   0.0000E+00 ymoment=   0.0000E+00 zmoment=   0.0000E+00
 nd#     591  xforce=   0.0000E+00   yforce=   0.0000E+00  zforce=   0.0000E+00   energy=   0.0000E+00   setid =     591 xmoment=   0.0000E+00 ymoment=   0.0000E+00 zmoment=   0.0000E+00
 nd#     592  xforce=   0.0000E+00   yforce=   0.0000E+00  zforce=   0.0000E+00   energy=   0.0000E+00   setid =     592 xmoment=   0.0000E+00 ymoment=   0.0000E+00 zmoment=   0.0000E+00
 nd#     595  xforce=   0.0000E+00   yforce=   0.0000E+00  zforce=   0.0000E+00   energy=   0.0000E+00   setid =     595 xmoment=   0.0000E+00 ymoment=   0.0000E+00 zmoment=   0.0000E+00
 nd#     596  xforce=   0.0000E+00   yforce=   0.0000E+00  zforce=   0.0000E+00   energy=   0.0000E+00   setid =     596 xmoment=   0.0000E+00 ymoment=   0.0000E+00 zmoment=   0.0000E+00
 nd#     599  xforce=   0.0000E+00   yforce=   0.0000E+00  zforce=   0.0000E+00   energy=   0.0000E+00   setid =     599 xmoment=   0.0000E+00 ymoment=   0.0000E+00 zmoment=   0.0000E+00
 nd#     600  xforce=   0.0000E+00   yforce=   0.0000E+00  zforce=   0.0000E+00   energy=   0.0000E+00   setid =     600 xmoment=   0.0000E+00 ymoment=   0.0000E+00 zmoment=   0.0000E+00
 nd#     603  xforce=   0.0000E+00   yforce=   0.0000E+00  zforce=   0.0000E+00   energy=   0.0000E+00   setid =     603 xmoment=   0.0000E+00 ymoment=   0.0000E+00 zmoment=   0.0000E+00
 nd#     604  xforce=   0.0000E+00   yforce=   0.0000E+00  zforce=   0.0000E+00   energy=   0.0000E+00   setid =     604 xmoment=   0.0000E+00 ymoment=   0.0000E+00 zmoment=   0.0000E+00
 nd#     638  xforce=   0.0000E+00   yforce=   0.0000E+00  zforce=   0.0000E+00   energy=   0.0000E+00   setid =     638 xmoment=   0.0000E+00 ymoment=   0.0000E+00 zmoment=   0.0000E+00
 nd#     639  xforce=   0.0000E+00   yforce=   0.0000E+00  zforce=   0.0000E+00   energy=   0.0000E+00   setid =     639 xmoment=   0.0000E+00 ymoment=   0.0000E+00 zmoment=   0.0000E+00
 nd#     641  xforce=   0.0000E+00   yforce=   0.0000E+00  zforce=   0.0000E+00   energy=   0.0000E+00   setid =     641 xmoment=   0.0000E+00 ymoment=   0.0000E+00 zmoment=   0.0000E+00
 nd#     642  xforce=   0.0000E+00   yforce=   0.0000E+00  zforce=   0.0000E+00   energy=   0.0000E+00   setid =     642 xmoment=   0.0000E+00 ymoment=   0.0000E+00 zmoment=   0.0000E+00
 nd#     644  xforce=   0.0000E+00   yforce=   0.0000E+00  zforce=   0.0000E+00   energy=   0.0000E+00   setid =     644 xmoment=   0.0000E+00 ymoment=   0.0000E+00 zmoment=   0.0000E+00
 nd#     645  xforce=   0.0000E+00   yforce=   0.0000E+00  zforce=   0.0000E+00   energy=   0.0000E+00   setid =     645 xmoment=   0.0000E+00 ymoment=   0.0000E+00 zmoment=   0.0000E+00
 nd#     647  xforce=   0.0000E+00   yforce=   0.0000E+00  zforce=   0.0000E+00   energy=   0.0000E+00   setid =     647 xmoment=   0.0000E+00 ymoment=   0.0000E+00 zmoment=   0.0000E+00
 nd#     648  xforce=   0.0000E+00   yforce=   0.0000E+00  zforce=   0.0000E+00   energy=   0.0000E+00   setid =     648 xmoment=   0.0000E+00 ymoment=   0.0000E+00 zmoment=   0.0000E+00
 nd#     674  xforce=   0.0000E+00   yforce=   0.0000E+00  zforce=   0.0000E+00   energy=   0.0000E+00   setid =     674 xmoment=   0.0000E+00 ymoment=   0.0000E+00 zmoment=   0.0000E+00
 nd#     676  xforce=   0.0000E+00   yforce=   0.0000E+00  zforce=   0.0000E+00   energy=   0.0000E+00   setid =     676 xmoment=   0.0000E+00 ymoment=   0.0000E+00 zmoment=   0.0000E+00
 nd#     678  xforce=   0.0000E+00   yforce=   0.0000E+00  zforce=   0.0000E+00   energy=   0.0000E+00   setid =     678 xmoment=   0.0000E+00 ymoment=   0.0000E+00 zmoment=   0.0000E+00
 nd#     680  xforce=   0.0000E+00   yforce=   0.0000E+00  zforce=   0.0000E+00   energy=   0.0000E+00   setid =     680 xmoment=   0.0000E+00 ymoment=   0.0000E+00 zmoment=   0.0000E+00
 nd#     821  xforce=   0.0000E+00   yforce=   0.0000E+00  zforce=   0.0000E+00   energy=   0.0000E+00   setid =     821 xmoment=   0.0000E+00 ymoment=   0.0000E+00 zmoment=   0.0000E+00
 nd#     822  xforce=   0.0000E+00   yforce=   0.0000E+00  zforce=   0.0000E+00   energy=   0.0000E+00   setid =     822 xmoment=   0.0000E+00 ymoment=   0.0000E+00 zmoment=   0.0000E+00
 nd#     823  xforce=   0.0000E+00   yforce=   0.0000E+00  zforce=   0.0000E+00   energy=   0.0000E+00   setid =     823 xmoment=   0.0000E+00 ymoment=   0.0000E+00 zmoment=   0.0000E+00
 nd#     824  xforce=   0.0000E+00   yforce=   0.0000E+00  zforce=   0.0000E+00   energy=   0.0000E+00   setid =     824 xmoment=   0.0000E+00 ymoment=   0.0000E+00 zmoment=   0.0000E+00
 nd#     850  xforce=   0.0000E+00   yforce=   0.0000E+00  zforce=   0.0000E+00   energy=   0.0000E+00   setid =     850 xmoment=   0.0000E+00 ymoment=   0.0000E+00 zmoment=   0.0000E+00
 nd#     852  xforce=   0.0000E+00   yforce=   0.0000E+00  zforce=   0.0000E+00   energy=   0.0000E+00   setid =     852 xmoment=   0.0000E+00 ymoment=   0.0000E+00 zmoment=   0.0000E+00
 nd#     854  xforce=   0.0000E+00   yforce=   0.0000E+00  zforce=   0.0000E+00   energy=   0.0000E+00   setid =     854 xmoment=   0.0000E+00 ymoment=   0.0000E+00 zmoment=   0.0000E+00
 nd#     856  xforce=   0.0000E+00   yforce=   0.0000E+00  zforce=   0.0000E+00   energy=   0.0000E+00   setid =     856 xmoment=   0.0000E+00 ymoment=   0.0000E+00 zmoment=   0.0000E+00
              xtotal=   0.0000E+00   ytotal=   0.0000E+00  ztotal=   0.0000E+00   etotal=   0.0000E+00

 n o d a l   f o r c e/e n e r g y    o u t p u t  t=   1.29245E+00

 velocity boundary condition forces/rigid body moments 

 nd#     220  xforce=   0.0000E+00   yforce=   0.0000E+00  zforce=  -1.4005E+01   energy=   8.9493E-05   setid =     220 xmoment=   0.0000E+00 ymoment=   0.0000E+00 zmoment=   0.0000E+00
 nd#     221  xforce=   0.0000E+00   yforce=   0.0000E+00  zforce=  -1.9136E+01   energy=   1.2898E-04   setid =     221 xmoment=   0.0000E+00 ymoment=   0.0000E+00 zmoment=   0.0000E+00
 nd#     222  xforce=   0.0000E+00   yforce=   0.0000E+00  zforce=  -2.9374E+01   energy=   1.9109E-04   setid =     222 xmoment=   0.0000E+00 ymoment=   0.0000E+00 zmoment=   0.0000E+00
 nd#     223  xforce=   0.0000E+00   yforce=   0.0000E+00  zforce=  -1.7577E+01   energy=   1.1220E-04   setid =     223 xmoment=   0.0000E+00 ymoment=   0.0000E+00 zmoment=   0.0000E+00
 nd#     248  xforce=   0.0000E+00   yforce=   0.0000E+00  zforce=  -2.6580E+01   energy=   1.7172E-04   setid =     248 xmoment=   0.0000E+00 ymoment=   0.0000E+00 zmoment=   0.0000E+00
 nd#     249  xforce=   0.0000E+00   yforce=   0.0000E+00  zforce=  -1.5619E+01   energy=   9.9474E-05   setid =     249 xmoment=   0.0000E+00 ymoment=   0.0000E+00 zmoment=   0.0000E+00
 nd#     286  xforce=   0.0000E+00   yforce=   0.0000E+00  zforce=  -2.7562E+01   energy=   1.7928E-04   setid =     286 xmoment=   0.0000E+00 ymoment=   0.0000E+00 zmoment=   0.0000E+00
 nd#     287  xforce=   0.0000E+00   yforce=   0.0000E+00  zforce=  -1.4601E+01   energy=   9.6168E-05   setid =     287 xmoment=   0.0000E+00 ymoment=   0.0000E+00 zmoment=   0.0000E+00
 nd#     288  xforce=   0.0000E+00   yforce=   0.0000E+00  zforce=  -2.6605E+01   energy=   1.7302E-04   setid =     288 xmoment=   0.0000E+00 ymoment=   0.0000E+00 zmoment=   0.0000E+00
 nd#     301  xforce=   0.0000E+00   yforce=   0.0000E+00  zforce=  -2.8971E+01   energy=   1.8822E-04   setid =     301 xmoment=   0.0000E+00 ymoment=   0.0000E+00 zmoment=   0.0000E+00
 nd#     314  xforce=   0.0000E+00   yforce=   0.0000E+00  zforce=  -2.5515E+01   energy=   1.6569E-04   setid =     314 xmoment=   0.0000E+00 ymoment=   0.0000E+00 zmoment=   0.0000E+00
 nd#     363  xforce=   0.0000E+00   yforce=   0.0000E+00  zforce=  -2.6885E+01   energy=   1.7423E-04   setid =     363 xmoment=   0.0000E+00 ymoment=   0.0000E+00 zmoment=   0.0000E+00
 nd#     364  xforce=   0.0000E+00   yforce=   0.0000E+00  zforce=  -3.3594E+01   energy=   2.1697E-04   setid =     364 xmoment=   0.0000E+00 ymoment=   0.0000E+00 zmoment=   0.0000E+00
 nd#     365  xforce=   0.0000E+00   yforce=   0.0000E+00  zforce=  -1.9898E+01   energy=   1.2488E-04   setid =     365 xmoment=   0.0000E+00 ymoment=   0.0000E+00 zmoment=   0.0000E+00
 nd#     366  xforce=   0.0000E+00   yforce=   0.0000E+00  zforce=  -1.4782E+01   energy=   9.4343E-05   setid =     366 xmoment=   0.0000E+00 ymoment=   0.0000E+00 zmoment=   0.0000E+00
 nd#     379  xforce=   0.0000E+00   yforce=   0.0000E+00  zforce=  -1.8162E+01   energy=   1.1358E-04   setid =     379 xmoment=   0.0000E+00 ymoment=   0.0000E+00 zmoment=   0.0000E+00
 nd#     404  xforce=   0.0000E+00   yforce=   0.0000E+00  zforce=  -1.6752E+01   energy=   1.0352E-04   setid =     404 xmoment=   0.0000E+00 ymoment=   0.0000E+00 zmoment=   0.0000E+00
 nd#     405  xforce=   0.0000E+00   yforce=   0.0000E+00  zforce=  -1.1276E+01   energy=   6.8330E-05   setid =     405 xmoment=   0.0000E+00 ymoment=   0.0000E+00 zmoment=   0.0000E+00
 nd#     418  xforce=   0.0000E+00   yforce=   0.0000E+00  zforce=  -1.9632E+01   energy=   1.2109E-04   setid =     418 xmoment=   0.0000E+00 ymoment=   0.0000E+00 zmoment=   0.0000E+00
 nd#     438  xforce=   0.0000E+00   yforce=   0.0000E+00  zforce=  -2.5428E+00   energy=   1.7335E-05   setid =     438 xmoment=   0.0000E+00 ymoment=   0.0000E+00 zmoment=   0.0000E+00
 nd#     439  xforce=   0.0000E+00   yforce=   0.0000E+00  zforce=  -1.3070E+01   energy=   8.5508E-05   setid =     439 xmoment=   0.0000E+00 ymoment=   0.0000E+00 zmoment=   0.0000E+00
 nd#     440  xforce=   0.0000E+00   yforce=   0.0000E+00  zforce=  -1.2991E+01   energy=   8.4486E-05   setid =     440 xmoment=   0.0000E+00 ymoment=   0.0000E+00 zmoment=   0.0000E+00
 nd#     441  xforce=   0.0000E+00   yforce=   0.0000E+00  zforce=  -1.2704E+01   energy=   8.2297E-05   setid =     441 xmoment=   0.0000E+00 ymoment=   0.0000E+00 zmoment=   0.0000E+00
 nd#     442  xforce=   0.0000E+00   yforce=   0.0000E+00  zforce=  -1.2390E+01   energy=   7.9977E-05   setid =     442 xmoment=   0.0000E+00 ymoment=   0.0000E+00 zmoment=   0.0000E+00
 nd#     443  xforce=   0.0000E+00   yforce=   0.0000E+00  zforce=  -1.2014E+01   energy=   7.7310E-05   setid =     443 xmoment=   0.0000E+00 ymoment=   0.0000E+00 zmoment=   0.0000E+00
 nd#     444  xforce=   0.0000E+00   yforce=   0.0000E+00  zforce=  -1.1385E+01   energy=   7.3063E-05   setid =     444 xmoment=   0.0000E+00 ymoment=   0.0000E+00 zmoment=   0.0000E+00
 nd#     591  xforce=   0.0000E+00   yforce=   0.0000E+00  zforce=  -2.3653E+01   energy=   1.5325E-04   setid =     591 xmoment=   0.0000E+00 ymoment=   0.0000E+00 zmoment=   0.0000E+00
 nd#     592  xforce=   0.0000E+00   yforce=   0.0000E+00  zforce=  -2.4623E+01   energy=   1.5971E-04   setid =     592 xmoment=   0.0000E+00 ymoment=   0.0000E+00 zmoment=   0.0000E+00
 nd#     595  xforce=   0.0000E+00   yforce=   0.0000E+00  zforce=  -2.3235E+01   energy=   1.5054E-04   setid =     595 xmoment=   0.0000E+00 ymoment=   0.0000E+00 zmoment=   0.0000E+00
 nd#     596  xforce=   0.0000E+00   yforce=   0.0000E+00  zforce=  -2.4460E+01   energy=   1.5857E-04   setid =     596 xmoment=   0.0000E+00 ymoment=   0.0000E+00 zmoment=   0.0000E+00
 nd#     599  xforce=   0.0000E+00   yforce=   0.0000E+00  zforce=  -2.3391E+01   energy=   1.5120E-04   setid =     599 xmoment=   0.0000E+00 ymoment=   0.0000E+00 zmoment=   0.0000E+00
 nd#     600  xforce=   0.0000E+00   yforce=   0.0000E+00  zforce=  -2.4725E+01   energy=   1.5985E-04   setid =     600 xmoment=   0.0000E+00 ymoment=   0.0000E+00 zmoment=   0.0000E+00
 nd#     603  xforce=   0.0000E+00   yforce=   0.0000E+00  zforce=  -1.2319E+01   energy=   7.9062E-05   setid =     603 xmoment=   0.0000E+00 ymoment=   0.0000E+00 zmoment=   0.0000E+00
 nd#     604  xforce=   0.0000E+00   yforce=   0.0000E+00  zforce=  -1.2918E+01   energy=   8.2991E-05   setid =     604 xmoment=   0.0000E+00 ymoment=   0.0000E+00 zmoment=   0.0000E+00
 nd#     638  xforce=   0.0000E+00   yforce=   0.0000E+00  zforce=  -2.6128E+01   energy=   1.7025E-04   setid =     638 xmoment=   0.0000E+00 ymoment=   0.0000E+00 zmoment=   0.0000E+00
 nd#     639  xforce=   0.0000E+00   yforce=   0.0000E+00  zforce=  -2.6313E+01   energy=   1.7234E-04   setid =     639 xmoment=   0.0000E+00 ymoment=   0.0000E+00 zmoment=   0.0000E+00
 nd#     641  xforce=   0.0000E+00   yforce=   0.0000E+00  zforce=  -2.6371E+01   energy=   1.7155E-04   setid =     641 xmoment=   0.0000E+00 ymoment=   0.0000E+00 zmoment=   0.0000E+00
 nd#     642  xforce=   0.0000E+00   yforce=   0.0000E+00  zforce=  -2.6598E+01   energy=   1.7388E-04   setid =     642 xmoment=   0.0000E+00 ymoment=   0.0000E+00 zmoment=   0.0000E+00
 nd#     644  xforce=   0.0000E+00   yforce=   0.0000E+00  zforce=  -2.6830E+01   energy=   1.7387E-04   setid =     644 xmoment=   0.0000E+00 ymoment=   0.0000E+00 zmoment=   0.0000E+00
 nd#     645  xforce=   0.0000E+00   yforce=   0.0000E+00  zforce=  -2.7234E+01   energy=   1.7725E-04   setid =     645 xmoment=   0.0000E+00 ymoment=   0.0000E+00 zmoment=   0.0000E+00
 nd#     647  xforce=   0.0000E+00   yforce=   0.0000E+00  zforce=  -1.3828E+01   energy=   8.9185E-05   setid =     647 xmoment=   0.0000E+00 ymoment=   0.0000E+00 zmoment=   0.0000E+00
 nd#     648  xforce=   0.0000E+00   yforce=   0.0000E+00  zforce=  -1.4002E+01   energy=   9.0725E-05   setid =     648 xmoment=   0.0000E+00 ymoment=   0.0000E+00 zmoment=   0.0000E+00
 nd#     674  xforce=   0.0000E+00   yforce=   0.0000E+00  zforce=  -2.2338E+01   energy=   1.4462E-04   setid =     674 xmoment=   0.0000E+00 ymoment=   0.0000E+00 zmoment=   0.0000E+00
 nd#     676  xforce=   0.0000E+00   yforce=   0.0000E+00  zforce=  -2.1774E+01   energy=   1.4099E-04   setid =     676 xmoment=   0.0000E+00 ymoment=   0.0000E+00 zmoment=   0.0000E+00
 nd#     678  xforce=   0.0000E+00   yforce=   0.0000E+00  zforce=  -2.2013E+01   energy=   1.4218E-04   setid =     678 xmoment=   0.0000E+00 ymoment=   0.0000E+00 zmoment=   0.0000E+00
 nd#     680  xforce=   0.0000E+00   yforce=   0.0000E+00  zforce=  -1.1700E+01   energy=   7.4950E-05   setid =     680 xmoment=   0.0000E+00 ymoment=   0.0000E+00 zmoment=   0.0000E+00
 nd#     821  xforce=   0.0000E+00   yforce=   0.0000E+00  zforce=  -2.5436E+01   energy=   1.6530E-04   setid =     821 xmoment=   0.0000E+00 ymoment=   0.0000E+00 zmoment=   0.0000E+00
 nd#     822  xforce=   0.0000E+00   yforce=   0.0000E+00  zforce=  -2.5507E+01   energy=   1.6557E-04   setid =     822 xmoment=   0.0000E+00 ymoment=   0.0000E+00 zmoment=   0.0000E+00
 nd#     823  xforce=   0.0000E+00   yforce=   0.0000E+00  zforce=  -2.5865E+01   energy=   1.6734E-04   setid =     823 xmoment=   0.0000E+00 ymoment=   0.0000E+00 zmoment=   0.0000E+00
 nd#     824  xforce=   0.0000E+00   yforce=   0.0000E+00  zforce=  -1.3411E+01   energy=   8.6293E-05   setid =     824 xmoment=   0.0000E+00 ymoment=   0.0000E+00 zmoment=   0.0000E+00
 nd#     850  xforce=   0.0000E+00   yforce=   0.0000E+00  zforce=  -4.2793E+00   energy=   3.0418E-05   setid =     850 xmoment=   0.0000E+00 ymoment=   0.0000E+00 zmoment=   0.0000E+00
 nd#     852  xforce=   0.0000E+00   yforce=   0.0000E+00  zforce=  -2.5031E+00   energy=   2.0323E-05   setid =     852 xmoment=   0.0000E+00 ymoment=   0.0000E+00 zmoment=   0.0000E+00
 nd#     854  xforce=   0.0000E+00   yforce=   0.0000E+00  zforce=  -6.1608E-01   energy=   9.9206E-06   setid =     854 xmoment=   0.0000E+00 ymoment=   0.0000E+00 zmoment=   0.0000E+00
 nd#     856  xforce=   0.0000E+00   yforce=   0.0000E+00  zforce=  -1.4138E-01   energy=   4.2560E-06   setid =     856 xmoment=   0.0000E+00 ymoment=   0.0000E+00 zmoment=   0.0000E+00
              xtotal=   0.0000E+00   ytotal=   0.0000E+00  ztotal=  -1.0158E+03   etotal=   6.5786E-03

 n o d a l   f o r c e/e n e r g y    o u t p u t  t=   2.54839E+00

 velocity boundary condition forces/rigid body moments 

 nd#     220  xforce=   0.0000E+00   yforce=   0.0000E+00  zforce=  -2.8612E+01   energy=   3.5711E-04   setid =     220 xmoment=   0.0000E+00 ymoment=   0.0000E+00 zmoment=   0.0000E+00
 nd#     221  xforce=   0.0000E+00   yforce=   0.0000E+00  zforce=  -3.5353E+01   energy=   4.7116E-04   setid =     221 xmoment=   0.0000E+00 ymoment=   0.0000E+00 zmoment=   0.0000E+00
 nd#     222  xforce=   0.0000E+00   yforce=   0.0000E+00  zforce=  -5.7377E+01   energy=   7.3586E-04   setid =     222 xmoment=   0.0000E+00 ymoment=   0.0000E+00 zmoment=   0.0000E+00
 nd#     223  xforce=   0.0000E+00   yforce=   0.0000E+00  zforce=  -3.5492E+01   energy=   4.4546E-04   setid =     223 xmoment=   0.0000E+00 ymoment=   0.0000E+00 zmoment=   0.0000E+00
 nd#     248  xforce=   0.0000E+00   yforce=   0.0000E+00  zforce=  -5.2351E+01   energy=   6.6738E-04   setid =     248 xmoment=   0.0000E+00 ymoment=   0.0000E+00 zmoment=   0.0000E+00
 nd#     249  xforce=   0.0000E+00   yforce=   0.0000E+00  zforce=  -3.1501E+01   energy=   3.9537E-04   setid =     249 xmoment=   0.0000E+00 ymoment=   0.0000E+00 zmoment=   0.0000E+00
 nd#     286  xforce=   0.0000E+00   yforce=   0.0000E+00  zforce=  -5.1765E+01   energy=   6.7743E-04   setid =     286 xmoment=   0.0000E+00 ymoment=   0.0000E+00 zmoment=   0.0000E+00
 nd#     287  xforce=   0.0000E+00   yforce=   0.0000E+00  zforce=  -2.7858E+01   energy=   3.6280E-04   setid =     287 xmoment=   0.0000E+00 ymoment=   0.0000E+00 zmoment=   0.0000E+00
 nd#     288  xforce=   0.0000E+00   yforce=   0.0000E+00  zforce=  -5.0960E+01   energy=   6.6011E-04   setid =     288 xmoment=   0.0000E+00 ymoment=   0.0000E+00 zmoment=   0.0000E+00
 nd#     301  xforce=   0.0000E+00   yforce=   0.0000E+00  zforce=  -5.6854E+01   energy=   7.2718E-04   setid =     301 xmoment=   0.0000E+00 ymoment=   0.0000E+00 zmoment=   0.0000E+00
 nd#     314  xforce=   0.0000E+00   yforce=   0.0000E+00  zforce=  -4.9969E+01   energy=   6.3970E-04   setid =     314 xmoment=   0.0000E+00 ymoment=   0.0000E+00 zmoment=   0.0000E+00
 nd#     363  xforce=   0.0000E+00   yforce=   0.0000E+00  zforce=  -5.2256E+01   energy=   6.7121E-04   setid =     363 xmoment=   0.0000E+00 ymoment=   0.0000E+00 zmoment=   0.0000E+00
 nd#     364  xforce=   0.0000E+00   yforce=   0.0000E+00  zforce=  -6.5470E+01   energy=   8.3906E-04   setid =     364 xmoment=   0.0000E+00 ymoment=   0.0000E+00 zmoment=   0.0000E+00
 nd#     365  xforce=   0.0000E+00   yforce=   0.0000E+00  zforce=  -4.1769E+01   energy=   5.1213E-04   setid =     365 xmoment=   0.0000E+00 ymoment=   0.0000E+00 zmoment=   0.0000E+00
 nd#     366  xforce=   0.0000E+00   yforce=   0.0000E+00  zforce=  -3.0005E+01   energy=   3.7560E-04   setid =     366 xmoment=   0.0000E+00 ymoment=   0.0000E+00 zmoment=   0.0000E+00
 nd#     379  xforce=   0.0000E+00   yforce=   0.0000E+00  zforce=  -3.7414E+01   energy=   4.6258E-04   setid =     379 xmoment=   0.0000E+00 ymoment=   0.0000E+00 zmoment=   0.0000E+00
 nd#     404  xforce=   0.0000E+00   yforce=   0.0000E+00  zforce=  -3.6793E+01   energy=   4.3977E-04   setid =     404 xmoment=   0.0000E+00 ymoment=   0.0000E+00 zmoment=   0.0000E+00
 nd#     405  xforce=   0.0000E+00   yforce=   0.0000E+00  zforce=  -2.5239E+01   energy=   2.9763E-04   setid =     405 xmoment=   0.0000E+00 ymoment=   0.0000E+00 zmoment=   0.0000E+00
 nd#     418  xforce=   0.0000E+00   yforce=   0.0000E+00  zforce=  -4.2161E+01   energy=   5.0913E-04   setid =     418 xmoment=   0.0000E+00 ymoment=   0.0000E+00 zmoment=   0.0000E+00
 nd#     438  xforce=   0.0000E+00   yforce=   0.0000E+00  zforce=  -4.4912E+00   energy=   6.1507E-05   setid =     438 xmoment=   0.0000E+00 ymoment=   0.0000E+00 zmoment=   0.0000E+00
 nd#     439  xforce=   0.0000E+00   yforce=   0.0000E+00  zforce=  -2.5238E+01   energy=   3.2607E-04   setid =     439 xmoment=   0.0000E+00 ymoment=   0.0000E+00 zmoment=   0.0000E+00
 nd#     440  xforce=   0.0000E+00   yforce=   0.0000E+00  zforce=  -2.5369E+01   energy=   3.2538E-04   setid =     440 xmoment=   0.0000E+00 ymoment=   0.0000E+00 zmoment=   0.0000E+00
 nd#     441  xforce=   0.0000E+00   yforce=   0.0000E+00  zforce=  -2.4985E+01   energy=   3.1897E-04   setid =     441 xmoment=   0.0000E+00 ymoment=   0.0000E+00 zmoment=   0.0000E+00
 nd#     442  xforce=   0.0000E+00   yforce=   0.0000E+00  zforce=  -2.4521E+01   energy=   3.1176E-04   setid =     442 xmoment=   0.0000E+00 ymoment=   0.0000E+00 zmoment=   0.0000E+00
 nd#     443  xforce=   0.0000E+00   yforce=   0.0000E+00  zforce=  -2.3919E+01   energy=   3.0296E-04   setid =     443 xmoment=   0.0000E+00 ymoment=   0.0000E+00 zmoment=   0.0000E+00
 nd#     444  xforce=   0.0000E+00   yforce=   0.0000E+00  zforce=  -2.2800E+01   energy=   2.8773E-04   setid =     444 xmoment=   0.0000E+00 ymoment=   0.0000E+00 zmoment=   0.0000E+00
 nd#     591  xforce=   0.0000E+00   yforce=   0.0000E+00  zforce=  -4.6102E+01   energy=   5.9129E-04   setid =     591 xmoment=   0.0000E+00 ymoment=   0.0000E+00 zmoment=   0.0000E+00
 nd#     592  xforce=   0.0000E+00   yforce=   0.0000E+00  zforce=  -4.7965E+01   energy=   6.1554E-04   setid =     592 xmoment=   0.0000E+00 ymoment=   0.0000E+00 zmoment=   0.0000E+00
 nd#     595  xforce=   0.0000E+00   yforce=   0.0000E+00  zforce=  -4.5614E+01   energy=   5.8290E-04   setid =     595 xmoment=   0.0000E+00 ymoment=   0.0000E+00 zmoment=   0.0000E+00
 nd#     596  xforce=   0.0000E+00   yforce=   0.0000E+00  zforce=  -4.7947E+01   energy=   6.1327E-04   setid =     596 xmoment=   0.0000E+00 ymoment=   0.0000E+00 zmoment=   0.0000E+00
 nd#     599  xforce=   0.0000E+00   yforce=   0.0000E+00  zforce=  -4.6064E+01   energy=   5.8735E-04   setid =     599 xmoment=   0.0000E+00 ymoment=   0.0000E+00 zmoment=   0.0000E+00
 nd#     600  xforce=   0.0000E+00   yforce=   0.0000E+00  zforce=  -4.8683E+01   energy=   6.2083E-04   setid =     600 xmoment=   0.0000E+00 ymoment=   0.0000E+00 zmoment=   0.0000E+00
 nd#     603  xforce=   0.0000E+00   yforce=   0.0000E+00  zforce=  -2.4565E+01   energy=   3.1068E-04   setid =     603 xmoment=   0.0000E+00 ymoment=   0.0000E+00 zmoment=   0.0000E+00
 nd#     604  xforce=   0.0000E+00   yforce=   0.0000E+00  zforce=  -2.5713E+01   energy=   3.2559E-04   setid =     604 xmoment=   0.0000E+00 ymoment=   0.0000E+00 zmoment=   0.0000E+00
 nd#     638  xforce=   0.0000E+00   yforce=   0.0000E+00  zforce=  -5.0634E+01   energy=   6.5229E-04   setid =     638 xmoment=   0.0000E+00 ymoment=   0.0000E+00 zmoment=   0.0000E+00
 nd#     639  xforce=   0.0000E+00   yforce=   0.0000E+00  zforce=  -5.0543E+01   energy=   6.5498E-04   setid =     639 xmoment=   0.0000E+00 ymoment=   0.0000E+00 zmoment=   0.0000E+00
 nd#     641  xforce=   0.0000E+00   yforce=   0.0000E+00  zforce=  -5.1399E+01   energy=   6.5992E-04   setid =     641 xmoment=   0.0000E+00 ymoment=   0.0000E+00 zmoment=   0.0000E+00
 nd#     642  xforce=   0.0000E+00   yforce=   0.0000E+00  zforce=  -5.1413E+01   energy=   6.6377E-04   setid =     642 xmoment=   0.0000E+00 ymoment=   0.0000E+00 zmoment=   0.0000E+00
 nd#     644  xforce=   0.0000E+00   yforce=   0.0000E+00  zforce=  -5.2675E+01   energy=   6.7314E-04   setid =     644 xmoment=   0.0000E+00 ymoment=   0.0000E+00 zmoment=   0.0000E+00
 nd#     645  xforce=   0.0000E+00   yforce=   0.0000E+00  zforce=  -5.3073E+01   energy=   6.8156E-04   setid =     645 xmoment=   0.0000E+00 ymoment=   0.0000E+00 zmoment=   0.0000E+00
 nd#     647  xforce=   0.0000E+00   yforce=   0.0000E+00  zforce=  -2.7366E+01   energy=   3.4787E-04   setid =     647 xmoment=   0.0000E+00 ymoment=   0.0000E+00 zmoment=   0.0000E+00
 nd#     648  xforce=   0.0000E+00   yforce=   0.0000E+00  zforce=  -2.7503E+01   energy=   3.5136E-04   setid =     648 xmoment=   0.0000E+00 ymoment=   0.0000E+00 zmoment=   0.0000E+00
 nd#     674  xforce=   0.0000E+00   yforce=   0.0000E+00  zforce=  -4.3546E+01   energy=   5.5835E-04   setid =     674 xmoment=   0.0000E+00 ymoment=   0.0000E+00 zmoment=   0.0000E+00
 nd#     676  xforce=   0.0000E+00   yforce=   0.0000E+00  zforce=  -4.2818E+01   energy=   5.4661E-04   setid =     676 xmoment=   0.0000E+00 ymoment=   0.0000E+00 zmoment=   0.0000E+00
 nd#     678  xforce=   0.0000E+00   yforce=   0.0000E+00  zforce=  -4.3408E+01   energy=   5.5300E-04   setid =     678 xmoment=   0.0000E+00 ymoment=   0.0000E+00 zmoment=   0.0000E+00
 nd#     680  xforce=   0.0000E+00   yforce=   0.0000E+00  zforce=  -2.3407E+01   energy=   2.9541E-04   setid =     680 xmoment=   0.0000E+00 ymoment=   0.0000E+00 zmoment=   0.0000E+00
 nd#     821  xforce=   0.0000E+00   yforce=   0.0000E+00  zforce=  -4.9459E+01   energy=   6.3562E-04   setid =     821 xmoment=   0.0000E+00 ymoment=   0.0000E+00 zmoment=   0.0000E+00
 nd#     822  xforce=   0.0000E+00   yforce=   0.0000E+00  zforce=  -4.9892E+01   energy=   6.3905E-04   setid =     822 xmoment=   0.0000E+00 ymoment=   0.0000E+00 zmoment=   0.0000E+00
 nd#     823  xforce=   0.0000E+00   yforce=   0.0000E+00  zforce=  -5.0895E+01   energy=   6.4937E-04   setid =     823 xmoment=   0.0000E+00 ymoment=   0.0000E+00 zmoment=   0.0000E+00
 nd#     824  xforce=   0.0000E+00   yforce=   0.0000E+00  zforce=  -2.6631E+01   energy=   3.3774E-04   setid =     824 xmoment=   0.0000E+00 ymoment=   0.0000E+00 zmoment=   0.0000E+00
 nd#     850  xforce=   0.0000E+00   yforce=   0.0000E+00  zforce=  -6.7947E+00   energy=   9.9960E-05   setid =     850 xmoment=   0.0000E+00 ymoment=   0.0000E+00 zmoment=   0.0000E+00
 nd#     852  xforce=   0.0000E+00   yforce=   0.0000E+00  zforce=  -2.7136E+00   energy=   5.3082E-05   setid =     852 xmoment=   0.0000E+00 ymoment=   0.0000E+00 zmoment=   0.0000E+00
 nd#     854  xforce=   0.0000E+00   yforce=   0.0000E+00  zforce=   1.9423E+00   energy=   1.5921E-06   setid =     854 xmoment=   0.0000E+00 ymoment=   0.0000E+00 zmoment=   0.0000E+00
 nd#     856  xforce=   0.0000E+00   yforce=   0.0000E+00  zforce=   1.7264E+00   energy=  -5.6972E-06   setid =     856 xmoment=   0.0000E+00 ymoment=   0.0000E+00 zmoment=   0.0000E+00
              xtotal=   0.0000E+00   ytotal=   0.0000E+00  ztotal=  -1.9937E+03   etotal=   2.5477E-02

 n o d a l   f o r c e/e n e r g y    o u t p u t  t=   3.47231E+00

 velocity boundary condition forces/rigid body moments 

 nd#     220  xforce=   0.0000E+00   yforce=   0.0000E+00  zforce=  -1.1334E+02   energy=   1.0129E-03   setid =     220 xmoment=   0.0000E+00 ymoment=   0.0000E+00 zmoment=   0.0000E+00
 nd#     221  xforce=   0.0000E+00   yforce=   0.0000E+00  zforce=  -7.2316E+01   energy=   9.6855E-04   setid =     221 xmoment=   0.0000E+00 ymoment=   0.0000E+00 zmoment=   0.0000E+00
 nd#     222  xforce=   0.0000E+00   yforce=   0.0000E+00  zforce=  -6.3387E+01   energy=   1.2937E-03   setid =     222 xmoment=   0.0000E+00 ymoment=   0.0000E+00 zmoment=   0.0000E+00
 nd#     223  xforce=   0.0000E+00   yforce=   0.0000E+00  zforce=  -7.4934E+01   energy=   9.5559E-04   setid =     223 xmoment=   0.0000E+00 ymoment=   0.0000E+00 zmoment=   0.0000E+00
 nd#     248  xforce=   0.0000E+00   yforce=   0.0000E+00  zforce=  -4.1012E+01   energy=   1.0987E-03   setid =     248 xmoment=   0.0000E+00 ymoment=   0.0000E+00 zmoment=   0.0000E+00
 nd#     249  xforce=   0.0000E+00   yforce=   0.0000E+00  zforce=  -4.0021E+01   energy=   7.2578E-04   setid =     249 xmoment=   0.0000E+00 ymoment=   0.0000E+00 zmoment=   0.0000E+00
 nd#     286  xforce=   0.0000E+00   yforce=   0.0000E+00  zforce=   2.5111E+02   energy=  -2.4347E-04   setid =     286 xmoment=   0.0000E+00 ymoment=   0.0000E+00 zmoment=   0.0000E+00
 nd#     287  xforce=   0.0000E+00   yforce=   0.0000E+00  zforce=  -6.7104E+01   energy=   8.0148E-04   setid =     287 xmoment=   0.0000E+00 ymoment=   0.0000E+00 zmoment=   0.0000E+00
 nd#     288  xforce=   0.0000E+00   yforce=   0.0000E+00  zforce=   9.5360E+01   energy=   4.5500E-04   setid =     288 xmoment=   0.0000E+00 ymoment=   0.0000E+00 zmoment=   0.0000E+00
 nd#     301  xforce=   0.0000E+00   yforce=   0.0000E+00  zforce=  -1.6332E+02   energy=   1.7443E-03   setid =     301 xmoment=   0.0000E+00 ymoment=   0.0000E+00 zmoment=   0.0000E+00
 nd#     314  xforce=   0.0000E+00   yforce=   0.0000E+00  zforce=  -6.8564E+01   energy=   1.1873E-03   setid =     314 xmoment=   0.0000E+00 ymoment=   0.0000E+00 zmoment=   0.0000E+00
 nd#     363  xforce=   0.0000E+00   yforce=   0.0000E+00  zforce=   2.1251E+01   energy=   8.1444E-04   setid =     363 xmoment=   0.0000E+00 ymoment=   0.0000E+00 zmoment=   0.0000E+00
 nd#     364  xforce=   0.0000E+00   yforce=   0.0000E+00  zforce=  -1.8860E+01   energy=   1.2286E-03   setid =     364 xmoment=   0.0000E+00 ymoment=   0.0000E+00 zmoment=   0.0000E+00
 nd#     365  xforce=   0.0000E+00   yforce=   0.0000E+00  zforce=  -1.8048E+02   energy=   1.5388E-03   setid =     365 xmoment=   0.0000E+00 ymoment=   0.0000E+00 zmoment=   0.0000E+00
 nd#     366  xforce=   0.0000E+00   yforce=   0.0000E+00  zforce=  -6.7582E+01   energy=   8.2641E-04   setid =     366 xmoment=   0.0000E+00 ymoment=   0.0000E+00 zmoment=   0.0000E+00
 nd#     379  xforce=   0.0000E+00   yforce=   0.0000E+00  zforce=  -1.6257E+01   energy=   7.1052E-04   setid =     379 xmoment=   0.0000E+00 ymoment=   0.0000E+00 zmoment=   0.0000E+00
 nd#     404  xforce=   0.0000E+00   yforce=   0.0000E+00  zforce=  -2.4169E+02   energy=   1.7263E-03   setid =     404 xmoment=   0.0000E+00 ymoment=   0.0000E+00 zmoment=   0.0000E+00
 nd#     405  xforce=   0.0000E+00   yforce=   0.0000E+00  zforce=  -1.6007E+02   energy=   1.1537E-03   setid =     405 xmoment=   0.0000E+00 ymoment=   0.0000E+00 zmoment=   0.0000E+00
 nd#     418  xforce=   0.0000E+00   yforce=   0.0000E+00  zforce=  -1.3534E+02   energy=   1.3291E-03   setid =     418 xmoment=   0.0000E+00 ymoment=   0.0000E+00 zmoment=   0.0000E+00
 nd#     438  xforce=   0.0000E+00   yforce=   0.0000E+00  zforce=   8.3831E+00   energy=   4.3528E-05   setid =     438 xmoment=   0.0000E+00 ymoment=   0.0000E+00 zmoment=   0.0000E+00
 nd#     439  xforce=   0.0000E+00   yforce=   0.0000E+00  zforce=  -2.7871E+01   energy=   5.7142E-04   setid =     439 xmoment=   0.0000E+00 ymoment=   0.0000E+00 zmoment=   0.0000E+00
 nd#     440  xforce=   0.0000E+00   yforce=   0.0000E+00  zforce=  -3.3689E+01   energy=   5.9820E-04   setid =     440 xmoment=   0.0000E+00 ymoment=   0.0000E+00 zmoment=   0.0000E+00
 nd#     441  xforce=   0.0000E+00   yforce=   0.0000E+00  zforce=  -3.4945E+01   energy=   5.9582E-04   setid =     441 xmoment=   0.0000E+00 ymoment=   0.0000E+00 zmoment=   0.0000E+00
 nd#     442  xforce=   0.0000E+00   yforce=   0.0000E+00  zforce=  -3.8521E+01   energy=   6.0299E-04   setid =     442 xmoment=   0.0000E+00 ymoment=   0.0000E+00 zmoment=   0.0000E+00
 nd#     443  xforce=   0.0000E+00   yforce=   0.0000E+00  zforce=  -4.4983E+01   energy=   6.2126E-04   setid =     443 xmoment=   0.0000E+00 ymoment=   0.0000E+00 zmoment=   0.0000E+00
 nd#     444  xforce=   0.0000E+00   yforce=   0.0000E+00  zforce=  -5.2294E+01   energy=   6.3464E-04   setid =     444 xmoment=   0.0000E+00 ymoment=   0.0000E+00 zmoment=   0.0000E+00
 nd#     591  xforce=   0.0000E+00   yforce=   0.0000E+00  zforce=  -2.8415E+01   energy=   9.3553E-04   setid =     591 xmoment=   0.0000E+00 ymoment=   0.0000E+00 zmoment=   0.0000E+00
 nd#     592  xforce=   0.0000E+00   yforce=   0.0000E+00  zforce=  -3.1001E+01   energy=   9.8033E-04   setid =     592 xmoment=   0.0000E+00 ymoment=   0.0000E+00 zmoment=   0.0000E+00
 nd#     595  xforce=   0.0000E+00   yforce=   0.0000E+00  zforce=  -6.7793E+01   energy=   1.1068E-03   setid =     595 xmoment=   0.0000E+00 ymoment=   0.0000E+00 zmoment=   0.0000E+00
 nd#     596  xforce=   0.0000E+00   yforce=   0.0000E+00  zforce=  -6.2252E+01   energy=   1.1223E-03   setid =     596 xmoment=   0.0000E+00 ymoment=   0.0000E+00 zmoment=   0.0000E+00
 nd#     599  xforce=   0.0000E+00   yforce=   0.0000E+00  zforce=  -5.0140E+01   energy=   1.0318E-03   setid =     599 xmoment=   0.0000E+00 ymoment=   0.0000E+00 zmoment=   0.0000E+00
 nd#     600  xforce=   0.0000E+00   yforce=   0.0000E+00  zforce=  -5.7645E+01   energy=   1.1120E-03   setid =     600 xmoment=   0.0000E+00 ymoment=   0.0000E+00 zmoment=   0.0000E+00
 nd#     603  xforce=   0.0000E+00   yforce=   0.0000E+00  zforce=  -3.8235E+01   energy=   6.0080E-04   setid =     603 xmoment=   0.0000E+00 ymoment=   0.0000E+00 zmoment=   0.0000E+00
 nd#     604  xforce=   0.0000E+00   yforce=   0.0000E+00  zforce=  -3.8270E+01   energy=   6.2117E-04   setid =     604 xmoment=   0.0000E+00 ymoment=   0.0000E+00 zmoment=   0.0000E+00
 nd#     638  xforce=   0.0000E+00   yforce=   0.0000E+00  zforce=  -4.4419E+01   energy=   1.0914E-03   setid =     638 xmoment=   0.0000E+00 ymoment=   0.0000E+00 zmoment=   0.0000E+00
 nd#     639  xforce=   0.0000E+00   yforce=   0.0000E+00  zforce=  -3.3919E+01   energy=   1.0452E-03   setid =     639 xmoment=   0.0000E+00 ymoment=   0.0000E+00 zmoment=   0.0000E+00
 nd#     641  xforce=   0.0000E+00   yforce=   0.0000E+00  zforce=  -5.9338E+01   energy=   1.1715E-03   setid =     641 xmoment=   0.0000E+00 ymoment=   0.0000E+00 zmoment=   0.0000E+00
 nd#     642  xforce=   0.0000E+00   yforce=   0.0000E+00  zforce=  -5.2202E+01   energy=   1.1424E-03   setid =     642 xmoment=   0.0000E+00 ymoment=   0.0000E+00 zmoment=   0.0000E+00
 nd#     644  xforce=   0.0000E+00   yforce=   0.0000E+00  zforce=  -6.9246E+01   energy=   1.2364E-03   setid =     644 xmoment=   0.0000E+00 ymoment=   0.0000E+00 zmoment=   0.0000E+00
 nd#     645  xforce=   0.0000E+00   yforce=   0.0000E+00  zforce=  -6.7223E+01   energy=   1.2373E-03   setid =     645 xmoment=   0.0000E+00 ymoment=   0.0000E+00 zmoment=   0.0000E+00
 nd#     647  xforce=   0.0000E+00   yforce=   0.0000E+00  zforce=  -2.8883E+01   energy=   6.0772E-04   setid =     647 xmoment=   0.0000E+00 ymoment=   0.0000E+00 zmoment=   0.0000E+00
 nd#     648  xforce=   0.0000E+00   yforce=   0.0000E+00  zforce=  -1.0194E+01   energy=   5.2550E-04   setid =     648 xmoment=   0.0000E+00 ymoment=   0.0000E+00 zmoment=   0.0000E+00
 nd#     674  xforce=   0.0000E+00   yforce=   0.0000E+00  zforce=  -2.6875E+01   energy=   8.8367E-04   setid =     674 xmoment=   0.0000E+00 ymoment=   0.0000E+00 zmoment=   0.0000E+00
 nd#     676  xforce=   0.0000E+00   yforce=   0.0000E+00  zforce=  -7.6571E+01   energy=   1.0981E-03   setid =     676 xmoment=   0.0000E+00 ymoment=   0.0000E+00 zmoment=   0.0000E+00
 nd#     678  xforce=   0.0000E+00   yforce=   0.0000E+00  zforce=  -4.8280E+01   energy=   9.7657E-04   setid =     678 xmoment=   0.0000E+00 ymoment=   0.0000E+00 zmoment=   0.0000E+00
 nd#     680  xforce=   0.0000E+00   yforce=   0.0000E+00  zforce=  -4.3210E+01   energy=   6.0316E-04   setid =     680 xmoment=   0.0000E+00 ymoment=   0.0000E+00 zmoment=   0.0000E+00
 nd#     821  xforce=   0.0000E+00   yforce=   0.0000E+00  zforce=  -3.7198E+01   energy=   1.0359E-03   setid =     821 xmoment=   0.0000E+00 ymoment=   0.0000E+00 zmoment=   0.0000E+00
 nd#     822  xforce=   0.0000E+00   yforce=   0.0000E+00  zforce=  -5.9831E+01   energy=   1.1459E-03   setid =     822 xmoment=   0.0000E+00 ymoment=   0.0000E+00 zmoment=   0.0000E+00
 nd#     823  xforce=   0.0000E+00   yforce=   0.0000E+00  zforce=  -6.2094E+01   energy=   1.1713E-03   setid =     823 xmoment=   0.0000E+00 ymoment=   0.0000E+00 zmoment=   0.0000E+00
 nd#     824  xforce=   0.0000E+00   yforce=   0.0000E+00  zforce=  -3.4124E+01   energy=   6.1841E-04   setid =     824 xmoment=   0.0000E+00 ymoment=   0.0000E+00 zmoment=   0.0000E+00
 nd#     850  xforce=   0.0000E+00   yforce=   0.0000E+00  zforce=   3.7135E+01   energy=  -4.0200E-05   setid =     850 xmoment=   0.0000E+00 ymoment=   0.0000E+00 zmoment=   0.0000E+00
 nd#     852  xforce=   0.0000E+00   yforce=   0.0000E+00  zforce=   4.3257E+01   energy=  -1.3421E-04   setid =     852 xmoment=   0.0000E+00 ymoment=   0.0000E+00 zmoment=   0.0000E+00
 nd#     854  xforce=   0.0000E+00   yforce=   0.0000E+00  zforce=   5.3829E+01   energy=  -2.5605E-04   setid =     854 xmoment=   0.0000E+00 ymoment=   0.0000E+00 zmoment=   0.0000E+00
 nd#     856  xforce=   0.0000E+00   yforce=   0.0000E+00  zforce=   6.6438E+01   energy=  -3.2059E-04   setid =     856 xmoment=   0.0000E+00 ymoment=   0.0000E+00 zmoment=   0.0000E+00
              xtotal=   0.0000E+00   ytotal=   0.0000E+00  ztotal=  -2.3072E+03   etotal=   4.5346E-02

 n o d a l   f o r c e/e n e r g y    o u t p u t  t=   4.39624E+00

 velocity boundary condition forces/rigid body moments 

 nd#     220  xforce=   0.0000E+00   yforce=   0.0000E+00  zforce=  -1.1043E+02   energy=   2.0466E-03   setid =     220 xmoment=   0.0000E+00 ymoment=   0.0000E+00 zmoment=   0.0000E+00
 nd#     221  xforce=   0.0000E+00   yforce=   0.0000E+00  zforce=  -6.7063E+01   energy=   1.6124E-03   setid =     221 xmoment=   0.0000E+00 ymoment=   0.0000E+00 zmoment=   0.0000E+00
 nd#     222  xforce=   0.0000E+00   yforce=   0.0000E+00  zforce=  -6.1479E+01   energy=   1.8706E-03   setid =     222 xmoment=   0.0000E+00 ymoment=   0.0000E+00 zmoment=   0.0000E+00
 nd#     223  xforce=   0.0000E+00   yforce=   0.0000E+00  zforce=  -7.2438E+01   energy=   1.6364E-03   setid =     223 xmoment=   0.0000E+00 ymoment=   0.0000E+00 zmoment=   0.0000E+00
 nd#     248  xforce=   0.0000E+00   yforce=   0.0000E+00  zforce=  -4.7680E+01   energy=   1.5084E-03   setid =     248 xmoment=   0.0000E+00 ymoment=   0.0000E+00 zmoment=   0.0000E+00
 nd#     249  xforce=   0.0000E+00   yforce=   0.0000E+00  zforce=  -4.0729E+01   energy=   1.0988E-03   setid =     249 xmoment=   0.0000E+00 ymoment=   0.0000E+00 zmoment=   0.0000E+00
 nd#     286  xforce=   0.0000E+00   yforce=   0.0000E+00  zforce=   2.5664E+02   energy=  -2.5891E-03   setid =     286 xmoment=   0.0000E+00 ymoment=   0.0000E+00 zmoment=   0.0000E+00
 nd#     287  xforce=   0.0000E+00   yforce=   0.0000E+00  zforce=  -6.4036E+01   energy=   1.4073E-03   setid =     287 xmoment=   0.0000E+00 ymoment=   0.0000E+00 zmoment=   0.0000E+00
 nd#     288  xforce=   0.0000E+00   yforce=   0.0000E+00  zforce=   8.0074E+01   energy=  -3.5544E-04   setid =     288 xmoment=   0.0000E+00 ymoment=   0.0000E+00 zmoment=   0.0000E+00
 nd#     301  xforce=   0.0000E+00   yforce=   0.0000E+00  zforce=  -1.5325E+02   energy=   3.2068E-03   setid =     301 xmoment=   0.0000E+00 ymoment=   0.0000E+00 zmoment=   0.0000E+00
 nd#     314  xforce=   0.0000E+00   yforce=   0.0000E+00  zforce=  -6.1808E+01   energy=   1.7896E-03   setid =     314 xmoment=   0.0000E+00 ymoment=   0.0000E+00 zmoment=   0.0000E+00
 nd#     363  xforce=   0.0000E+00   yforce=   0.0000E+00  zforce=   5.7219E+00   energy=   6.8984E-04   setid =     363 xmoment=   0.0000E+00 ymoment=   0.0000E+00 zmoment=   0.0000E+00
 nd#     364  xforce=   0.0000E+00   yforce=   0.0000E+00  zforce=  -3.2367E+01   energy=   1.4653E-03   setid =     364 xmoment=   0.0000E+00 ymoment=   0.0000E+00 zmoment=   0.0000E+00
 nd#     365  xforce=   0.0000E+00   yforce=   0.0000E+00  zforce=  -1.7524E+02   energy=   3.1821E-03   setid =     365 xmoment=   0.0000E+00 ymoment=   0.0000E+00 zmoment=   0.0000E+00
 nd#     366  xforce=   0.0000E+00   yforce=   0.0000E+00  zforce=  -6.6864E+01   energy=   1.4475E-03   setid =     366 xmoment=   0.0000E+00 ymoment=   0.0000E+00 zmoment=   0.0000E+00
 nd#     379  xforce=   0.0000E+00   yforce=   0.0000E+00  zforce=  -2.7921E+01   energy=   9.1460E-04   setid =     379 xmoment=   0.0000E+00 ymoment=   0.0000E+00 zmoment=   0.0000E+00
 nd#     404  xforce=   0.0000E+00   yforce=   0.0000E+00  zforce=  -2.4459E+02   energy=   3.9727E-03   setid =     404 xmoment=   0.0000E+00 ymoment=   0.0000E+00 zmoment=   0.0000E+00
 nd#     405  xforce=   0.0000E+00   yforce=   0.0000E+00  zforce=  -1.5919E+02   energy=   2.6285E-03   setid =     405 xmoment=   0.0000E+00 ymoment=   0.0000E+00 zmoment=   0.0000E+00
 nd#     418  xforce=   0.0000E+00   yforce=   0.0000E+00  zforce=  -1.3459E+02   energy=   2.5761E-03   setid =     418 xmoment=   0.0000E+00 ymoment=   0.0000E+00 zmoment=   0.0000E+00
 nd#     438  xforce=   0.0000E+00   yforce=   0.0000E+00  zforce=   7.0912E+00   energy=  -2.7957E-05   setid =     438 xmoment=   0.0000E+00 ymoment=   0.0000E+00 zmoment=   0.0000E+00
 nd#     439  xforce=   0.0000E+00   yforce=   0.0000E+00  zforce=  -2.7987E+01   energy=   8.2946E-04   setid =     439 xmoment=   0.0000E+00 ymoment=   0.0000E+00 zmoment=   0.0000E+00
 nd#     440  xforce=   0.0000E+00   yforce=   0.0000E+00  zforce=  -3.4327E+01   energy=   9.1242E-04   setid =     440 xmoment=   0.0000E+00 ymoment=   0.0000E+00 zmoment=   0.0000E+00
 nd#     441  xforce=   0.0000E+00   yforce=   0.0000E+00  zforce=  -3.7636E+01   energy=   9.3111E-04   setid =     441 xmoment=   0.0000E+00 ymoment=   0.0000E+00 zmoment=   0.0000E+00
 nd#     442  xforce=   0.0000E+00   yforce=   0.0000E+00  zforce=  -4.0957E+01   energy=   9.7015E-04   setid =     442 xmoment=   0.0000E+00 ymoment=   0.0000E+00 zmoment=   0.0000E+00
 nd#     443  xforce=   0.0000E+00   yforce=   0.0000E+00  zforce=  -4.4084E+01   energy=   1.0327E-03   setid =     443 xmoment=   0.0000E+00 ymoment=   0.0000E+00 zmoment=   0.0000E+00
 nd#     444  xforce=   0.0000E+00   yforce=   0.0000E+00  zforce=  -4.8663E+01   energy=   1.1010E-03   setid =     444 xmoment=   0.0000E+00 ymoment=   0.0000E+00 zmoment=   0.0000E+00
 nd#     591  xforce=   0.0000E+00   yforce=   0.0000E+00  zforce=  -3.2263E+01   energy=   1.2158E-03   setid =     591 xmoment=   0.0000E+00 ymoment=   0.0000E+00 zmoment=   0.0000E+00
 nd#     592  xforce=   0.0000E+00   yforce=   0.0000E+00  zforce=  -3.6326E+01   energy=   1.2914E-03   setid =     592 xmoment=   0.0000E+00 ymoment=   0.0000E+00 zmoment=   0.0000E+00
 nd#     595  xforce=   0.0000E+00   yforce=   0.0000E+00  zforce=  -6.4973E+01   energy=   1.7201E-03   setid =     595 xmoment=   0.0000E+00 ymoment=   0.0000E+00 zmoment=   0.0000E+00
 nd#     596  xforce=   0.0000E+00   yforce=   0.0000E+00  zforce=  -6.2376E+01   energy=   1.6981E-03   setid =     596 xmoment=   0.0000E+00 ymoment=   0.0000E+00 zmoment=   0.0000E+00
 nd#     599  xforce=   0.0000E+00   yforce=   0.0000E+00  zforce=  -5.6291E+01   energy=   1.5234E-03   setid =     599 xmoment=   0.0000E+00 ymoment=   0.0000E+00 zmoment=   0.0000E+00
 nd#     600  xforce=   0.0000E+00   yforce=   0.0000E+00  zforce=  -6.2525E+01   energy=   1.6672E-03   setid =     600 xmoment=   0.0000E+00 ymoment=   0.0000E+00 zmoment=   0.0000E+00
 nd#     603  xforce=   0.0000E+00   yforce=   0.0000E+00  zforce=  -4.2219E+01   energy=   9.7246E-04   setid =     603 xmoment=   0.0000E+00 ymoment=   0.0000E+00 zmoment=   0.0000E+00
 nd#     604  xforce=   0.0000E+00   yforce=   0.0000E+00  zforce=  -4.0714E+01   energy=   9.8604E-04   setid =     604 xmoment=   0.0000E+00 ymoment=   0.0000E+00 zmoment=   0.0000E+00
 nd#     638  xforce=   0.0000E+00   yforce=   0.0000E+00  zforce=  -4.5278E+01   energy=   1.5058E-03   setid =     638 xmoment=   0.0000E+00 ymoment=   0.0000E+00 zmoment=   0.0000E+00
 nd#     639  xforce=   0.0000E+00   yforce=   0.0000E+00  zforce=  -3.7212E+01   energy=   1.3738E-03   setid =     639 xmoment=   0.0000E+00 ymoment=   0.0000E+00 zmoment=   0.0000E+00
 nd#     641  xforce=   0.0000E+00   yforce=   0.0000E+00  zforce=  -5.8960E+01   energy=   1.7180E-03   setid =     641 xmoment=   0.0000E+00 ymoment=   0.0000E+00 zmoment=   0.0000E+00
 nd#     642  xforce=   0.0000E+00   yforce=   0.0000E+00  zforce=  -5.8423E+01   energy=   1.6535E-03   setid =     642 xmoment=   0.0000E+00 ymoment=   0.0000E+00 zmoment=   0.0000E+00
 nd#     644  xforce=   0.0000E+00   yforce=   0.0000E+00  zforce=  -6.9031E+01   energy=   1.8752E-03   setid =     644 xmoment=   0.0000E+00 ymoment=   0.0000E+00 zmoment=   0.0000E+00
 nd#     645  xforce=   0.0000E+00   yforce=   0.0000E+00  zforce=  -7.0504E+01   energy=   1.8735E-03   setid =     645 xmoment=   0.0000E+00 ymoment=   0.0000E+00 zmoment=   0.0000E+00
 nd#     647  xforce=   0.0000E+00   yforce=   0.0000E+00  zforce=  -3.3381E+01   energy=   8.9536E-04   setid =     647 xmoment=   0.0000E+00 ymoment=   0.0000E+00 zmoment=   0.0000E+00
 nd#     648  xforce=   0.0000E+00   yforce=   0.0000E+00  zforce=  -1.4006E+01   energy=   6.3730E-04   setid =     648 xmoment=   0.0000E+00 ymoment=   0.0000E+00 zmoment=   0.0000E+00
 nd#     674  xforce=   0.0000E+00   yforce=   0.0000E+00  zforce=  -3.1260E+01   energy=   1.1522E-03   setid =     674 xmoment=   0.0000E+00 ymoment=   0.0000E+00 zmoment=   0.0000E+00
 nd#     676  xforce=   0.0000E+00   yforce=   0.0000E+00  zforce=  -6.9568E+01   energy=   1.7733E-03   setid =     676 xmoment=   0.0000E+00 ymoment=   0.0000E+00 zmoment=   0.0000E+00
 nd#     678  xforce=   0.0000E+00   yforce=   0.0000E+00  zforce=  -5.0374E+01   energy=   1.4323E-03   setid =     678 xmoment=   0.0000E+00 ymoment=   0.0000E+00 zmoment=   0.0000E+00
 nd#     680  xforce=   0.0000E+00   yforce=   0.0000E+00  zforce=  -4.4635E+01   energy=   1.0090E-03   setid =     680 xmoment=   0.0000E+00 ymoment=   0.0000E+00 zmoment=   0.0000E+00
 nd#     821  xforce=   0.0000E+00   yforce=   0.0000E+00  zforce=  -4.0754E+01   energy=   1.3961E-03   setid =     821 xmoment=   0.0000E+00 ymoment=   0.0000E+00 zmoment=   0.0000E+00
 nd#     822  xforce=   0.0000E+00   yforce=   0.0000E+00  zforce=  -6.0547E+01   energy=   1.7020E-03   setid =     822 xmoment=   0.0000E+00 ymoment=   0.0000E+00 zmoment=   0.0000E+00
 nd#     823  xforce=   0.0000E+00   yforce=   0.0000E+00  zforce=  -6.7012E+01   energy=   1.7678E-03   setid =     823 xmoment=   0.0000E+00 ymoment=   0.0000E+00 zmoment=   0.0000E+00
 nd#     824  xforce=   0.0000E+00   yforce=   0.0000E+00  zforce=  -3.7647E+01   energy=   9.4997E-04   setid =     824 xmoment=   0.0000E+00 ymoment=   0.0000E+00 zmoment=   0.0000E+00
 nd#     850  xforce=   0.0000E+00   yforce=   0.0000E+00  zforce=   3.5574E+01   energy=  -3.7609E-04   setid =     850 xmoment=   0.0000E+00 ymoment=   0.0000E+00 zmoment=   0.0000E+00
 nd#     852  xforce=   0.0000E+00   yforce=   0.0000E+00  zforce=   4.6193E+01   energy=  -5.4744E-04   setid =     852 xmoment=   0.0000E+00 ymoment=   0.0000E+00 zmoment=   0.0000E+00
 nd#     854  xforce=   0.0000E+00   yforce=   0.0000E+00  zforce=   6.2812E+01   energy=  -7.9489E-04   setid =     854 xmoment=   0.0000E+00 ymoment=   0.0000E+00 zmoment=   0.0000E+00
 nd#     856  xforce=   0.0000E+00   yforce=   0.0000E+00  zforce=   6.2355E+01   energy=  -9.1556E-04   setid =     856 xmoment=   0.0000E+00 ymoment=   0.0000E+00 zmoment=   0.0000E+00
              xtotal=   0.0000E+00   ytotal=   0.0000E+00  ztotal=  -2.3831E+03   etotal=   6.7013E-02

 n o d a l   f o r c e/e n e r g y    o u t p u t  t=   5.86056E+00

 velocity boundary condition forces/rigid body moments 

 nd#     220  xforce=   0.0000E+00   yforce=   0.0000E+00  zforce=  -1.1394E+02   energy=   3.6894E-03   setid =     220 xmoment=   0.0000E+00 ymoment=   0.0000E+00 zmoment=   0.0000E+00
 nd#     221  xforce=   0.0000E+00   yforce=   0.0000E+00  zforce=  -7.4985E+01   energy=   2.6525E-03   setid =     221 xmoment=   0.0000E+00 ymoment=   0.0000E+00 zmoment=   0.0000E+00
 nd#     222  xforce=   0.0000E+00   yforce=   0.0000E+00  zforce=  -6.9896E+01   energy=   2.8325E-03   setid =     222 xmoment=   0.0000E+00 ymoment=   0.0000E+00 zmoment=   0.0000E+00
 nd#     223  xforce=   0.0000E+00   yforce=   0.0000E+00  zforce=  -7.4378E+01   energy=   2.7113E-03   setid =     223 xmoment=   0.0000E+00 ymoment=   0.0000E+00 zmoment=   0.0000E+00
 nd#     248  xforce=   0.0000E+00   yforce=   0.0000E+00  zforce=  -5.6469E+01   energy=   2.2709E-03   setid =     248 xmoment=   0.0000E+00 ymoment=   0.0000E+00 zmoment=   0.0000E+00
 nd#     249  xforce=   0.0000E+00   yforce=   0.0000E+00  zforce=  -4.5624E+01   energy=   1.7311E-03   setid =     249 xmoment=   0.0000E+00 ymoment=   0.0000E+00 zmoment=   0.0000E+00
 nd#     286  xforce=   0.0000E+00   yforce=   0.0000E+00  zforce=   3.3232E+02   energy=  -6.9013E-03   setid =     286 xmoment=   0.0000E+00 ymoment=   0.0000E+00 zmoment=   0.0000E+00
 nd#     287  xforce=   0.0000E+00   yforce=   0.0000E+00  zforce=  -7.9136E+01   energy=   2.4555E-03   setid =     287 xmoment=   0.0000E+00 ymoment=   0.0000E+00 zmoment=   0.0000E+00
 nd#     288  xforce=   0.0000E+00   yforce=   0.0000E+00  zforce=   1.0535E+02   energy=  -1.7130E-03   setid =     288 xmoment=   0.0000E+00 ymoment=   0.0000E+00 zmoment=   0.0000E+00
 nd#     301  xforce=   0.0000E+00   yforce=   0.0000E+00  zforce=  -1.9059E+02   energy=   5.7243E-03   setid =     301 xmoment=   0.0000E+00 ymoment=   0.0000E+00 zmoment=   0.0000E+00
 nd#     314  xforce=   0.0000E+00   yforce=   0.0000E+00  zforce=  -8.1808E+01   energy=   2.8411E-03   setid =     314 xmoment=   0.0000E+00 ymoment=   0.0000E+00 zmoment=   0.0000E+00
 nd#     363  xforce=   0.0000E+00   yforce=   0.0000E+00  zforce=   8.0337E+00   energy=   5.8913E-04   setid =     363 xmoment=   0.0000E+00 ymoment=   0.0000E+00 zmoment=   0.0000E+00
 nd#     364  xforce=   0.0000E+00   yforce=   0.0000E+00  zforce=  -2.1233E+01   energy=   1.8577E-03   setid =     364 xmoment=   0.0000E+00 ymoment=   0.0000E+00 zmoment=   0.0000E+00
 nd#     365  xforce=   0.0000E+00   yforce=   0.0000E+00  zforce=  -1.9875E+02   energy=   5.9203E-03   setid =     365 xmoment=   0.0000E+00 ymoment=   0.0000E+00 zmoment=   0.0000E+00
 nd#     366  xforce=   0.0000E+00   yforce=   0.0000E+00  zforce=  -7.4951E+01   energy=   2.4858E-03   setid =     366 xmoment=   0.0000E+00 ymoment=   0.0000E+00 zmoment=   0.0000E+00
 nd#     379  xforce=   0.0000E+00   yforce=   0.0000E+00  zforce=  -2.8326E+01   energy=   1.3264E-03   setid =     379 xmoment=   0.0000E+00 ymoment=   0.0000E+00 zmoment=   0.0000E+00
 nd#     404  xforce=   0.0000E+00   yforce=   0.0000E+00  zforce=  -2.9711E+02   energy=   7.9387E-03   setid =     404 xmoment=   0.0000E+00 ymoment=   0.0000E+00 zmoment=   0.0000E+00
 nd#     405  xforce=   0.0000E+00   yforce=   0.0000E+00  zforce=  -1.8552E+02   energy=   5.1523E-03   setid =     405 xmoment=   0.0000E+00 ymoment=   0.0000E+00 zmoment=   0.0000E+00
 nd#     418  xforce=   0.0000E+00   yforce=   0.0000E+00  zforce=  -1.4897E+02   energy=   4.6522E-03   setid =     418 xmoment=   0.0000E+00 ymoment=   0.0000E+00 zmoment=   0.0000E+00
 nd#     438  xforce=   0.0000E+00   yforce=   0.0000E+00  zforce=   7.4231E+00   energy=  -1.3423E-04   setid =     438 xmoment=   0.0000E+00 ymoment=   0.0000E+00 zmoment=   0.0000E+00
 nd#     439  xforce=   0.0000E+00   yforce=   0.0000E+00  zforce=  -3.2753E+01   energy=   1.2742E-03   setid =     439 xmoment=   0.0000E+00 ymoment=   0.0000E+00 zmoment=   0.0000E+00
 nd#     440  xforce=   0.0000E+00   yforce=   0.0000E+00  zforce=  -3.8401E+01   energy=   1.4449E-03   setid =     440 xmoment=   0.0000E+00 ymoment=   0.0000E+00 zmoment=   0.0000E+00
 nd#     441  xforce=   0.0000E+00   yforce=   0.0000E+00  zforce=  -4.2684E+01   energy=   1.5192E-03   setid =     441 xmoment=   0.0000E+00 ymoment=   0.0000E+00 zmoment=   0.0000E+00
 nd#     442  xforce=   0.0000E+00   yforce=   0.0000E+00  zforce=  -4.6460E+01   energy=   1.6102E-03   setid =     442 xmoment=   0.0000E+00 ymoment=   0.0000E+00 zmoment=   0.0000E+00
 nd#     443  xforce=   0.0000E+00   yforce=   0.0000E+00  zforce=  -4.9929E+01   energy=   1.7210E-03   setid =     443 xmoment=   0.0000E+00 ymoment=   0.0000E+00 zmoment=   0.0000E+00
 nd#     444  xforce=   0.0000E+00   yforce=   0.0000E+00  zforce=  -5.4470E+01   energy=   1.8561E-03   setid =     444 xmoment=   0.0000E+00 ymoment=   0.0000E+00 zmoment=   0.0000E+00
 nd#     591  xforce=   0.0000E+00   yforce=   0.0000E+00  zforce=  -3.8333E+01   energy=   1.7327E-03   setid =     591 xmoment=   0.0000E+00 ymoment=   0.0000E+00 zmoment=   0.0000E+00
 nd#     592  xforce=   0.0000E+00   yforce=   0.0000E+00  zforce=  -4.2951E+01   energy=   1.8718E-03   setid =     592 xmoment=   0.0000E+00 ymoment=   0.0000E+00 zmoment=   0.0000E+00
 nd#     595  xforce=   0.0000E+00   yforce=   0.0000E+00  zforce=  -7.5877E+01   energy=   2.7514E-03   setid =     595 xmoment=   0.0000E+00 ymoment=   0.0000E+00 zmoment=   0.0000E+00
 nd#     596  xforce=   0.0000E+00   yforce=   0.0000E+00  zforce=  -7.2247E+01   energy=   2.6837E-03   setid =     596 xmoment=   0.0000E+00 ymoment=   0.0000E+00 zmoment=   0.0000E+00
 nd#     599  xforce=   0.0000E+00   yforce=   0.0000E+00  zforce=  -6.4263E+01   energy=   2.4061E-03   setid =     599 xmoment=   0.0000E+00 ymoment=   0.0000E+00 zmoment=   0.0000E+00
 nd#     600  xforce=   0.0000E+00   yforce=   0.0000E+00  zforce=  -6.9612E+01   energy=   2.6346E-03   setid =     600 xmoment=   0.0000E+00 ymoment=   0.0000E+00 zmoment=   0.0000E+00
 nd#     603  xforce=   0.0000E+00   yforce=   0.0000E+00  zforce=  -4.6139E+01   energy=   1.6194E-03   setid =     603 xmoment=   0.0000E+00 ymoment=   0.0000E+00 zmoment=   0.0000E+00
 nd#     604  xforce=   0.0000E+00   yforce=   0.0000E+00  zforce=  -4.2651E+01   energy=   1.5964E-03   setid =     604 xmoment=   0.0000E+00 ymoment=   0.0000E+00 zmoment=   0.0000E+00
 nd#     638  xforce=   0.0000E+00   yforce=   0.0000E+00  zforce=  -5.2323E+01   energy=   2.2204E-03   setid =     638 xmoment=   0.0000E+00 ymoment=   0.0000E+00 zmoment=   0.0000E+00
 nd#     639  xforce=   0.0000E+00   yforce=   0.0000E+00  zforce=  -4.6049E+01   energy=   1.9834E-03   setid =     639 xmoment=   0.0000E+00 ymoment=   0.0000E+00 zmoment=   0.0000E+00
 nd#     641  xforce=   0.0000E+00   yforce=   0.0000E+00  zforce=  -6.7752E+01   energy=   2.6457E-03   setid =     641 xmoment=   0.0000E+00 ymoment=   0.0000E+00 zmoment=   0.0000E+00
 nd#     642  xforce=   0.0000E+00   yforce=   0.0000E+00  zforce=  -6.8348E+01   energy=   2.5816E-03   setid =     642 xmoment=   0.0000E+00 ymoment=   0.0000E+00 zmoment=   0.0000E+00
 nd#     644  xforce=   0.0000E+00   yforce=   0.0000E+00  zforce=  -7.7406E+01   energy=   2.9473E-03   setid =     644 xmoment=   0.0000E+00 ymoment=   0.0000E+00 zmoment=   0.0000E+00
 nd#     645  xforce=   0.0000E+00   yforce=   0.0000E+00  zforce=  -8.0020E+01   energy=   2.9756E-03   setid =     645 xmoment=   0.0000E+00 ymoment=   0.0000E+00 zmoment=   0.0000E+00
 nd#     647  xforce=   0.0000E+00   yforce=   0.0000E+00  zforce=  -3.6830E+01   energy=   1.4094E-03   setid =     647 xmoment=   0.0000E+00 ymoment=   0.0000E+00 zmoment=   0.0000E+00
 nd#     648  xforce=   0.0000E+00   yforce=   0.0000E+00  zforce=  -1.7109E+01   energy=   8.6511E-04   setid =     648 xmoment=   0.0000E+00 ymoment=   0.0000E+00 zmoment=   0.0000E+00
 nd#     674  xforce=   0.0000E+00   yforce=   0.0000E+00  zforce=  -3.6922E+01   energy=   1.6514E-03   setid =     674 xmoment=   0.0000E+00 ymoment=   0.0000E+00 zmoment=   0.0000E+00
 nd#     676  xforce=   0.0000E+00   yforce=   0.0000E+00  zforce=  -8.1112E+01   energy=   2.8765E-03   setid =     676 xmoment=   0.0000E+00 ymoment=   0.0000E+00 zmoment=   0.0000E+00
 nd#     678  xforce=   0.0000E+00   yforce=   0.0000E+00  zforce=  -5.6816E+01   energy=   2.2171E-03   setid =     678 xmoment=   0.0000E+00 ymoment=   0.0000E+00 zmoment=   0.0000E+00
 nd#     680  xforce=   0.0000E+00   yforce=   0.0000E+00  zforce=  -4.8607E+01   energy=   1.6917E-03   setid =     680 xmoment=   0.0000E+00 ymoment=   0.0000E+00 zmoment=   0.0000E+00
 nd#     821  xforce=   0.0000E+00   yforce=   0.0000E+00  zforce=  -4.7946E+01   energy=   2.0455E-03   setid =     821 xmoment=   0.0000E+00 ymoment=   0.0000E+00 zmoment=   0.0000E+00
 nd#     822  xforce=   0.0000E+00   yforce=   0.0000E+00  zforce=  -7.0496E+01   energy=   2.6615E-03   setid =     822 xmoment=   0.0000E+00 ymoment=   0.0000E+00 zmoment=   0.0000E+00
 nd#     823  xforce=   0.0000E+00   yforce=   0.0000E+00  zforce=  -7.5819E+01   energy=   2.8135E-03   setid =     823 xmoment=   0.0000E+00 ymoment=   0.0000E+00 zmoment=   0.0000E+00
 nd#     824  xforce=   0.0000E+00   yforce=   0.0000E+00  zforce=  -4.2016E+01   energy=   1.5332E-03   setid =     824 xmoment=   0.0000E+00 ymoment=   0.0000E+00 zmoment=   0.0000E+00
 nd#     850  xforce=   0.0000E+00   yforce=   0.0000E+00  zforce=   3.6730E+01   energy=  -9.0547E-04   setid =     850 xmoment=   0.0000E+00 ymoment=   0.0000E+00 zmoment=   0.0000E+00
 nd#     852  xforce=   0.0000E+00   yforce=   0.0000E+00  zforce=   4.6865E+01   energy=  -1.2288E-03   setid =     852 xmoment=   0.0000E+00 ymoment=   0.0000E+00 zmoment=   0.0000E+00
 nd#     854  xforce=   0.0000E+00   yforce=   0.0000E+00  zforce=   6.0907E+01   energy=  -1.7007E-03   setid =     854 xmoment=   0.0000E+00 ymoment=   0.0000E+00 zmoment=   0.0000E+00
 nd#     856  xforce=   0.0000E+00   yforce=   0.0000E+00  zforce=   6.1853E+01   energy=  -1.8250E-03   setid =     856 xmoment=   0.0000E+00 ymoment=   0.0000E+00 zmoment=   0.0000E+00
              xtotal=   0.0000E+00   ytotal=   0.0000E+00  ztotal=  -2.7046E+03   etotal=   1.0426E-01

 n o d a l   f o r c e/e n e r g y    o u t p u t  t=   7.32488E+00

 velocity boundary condition forces/rigid body moments 

 nd#     220  xforce=   0.0000E+00   yforce=   0.0000E+00  zforce=  -1.0937E+02   energy=   5.3244E-03   setid =     220 xmoment=   0.0000E+00 ymoment=   0.0000E+00 zmoment=   0.0000E+00
 nd#     221  xforce=   0.0000E+00   yforce=   0.0000E+00  zforce=  -6.1630E+01   energy=   3.6527E-03   setid =     221 xmoment=   0.0000E+00 ymoment=   0.0000E+00 zmoment=   0.0000E+00
 nd#     222  xforce=   0.0000E+00   yforce=   0.0000E+00  zforce=  -6.5863E+01   energy=   3.8264E-03   setid =     222 xmoment=   0.0000E+00 ymoment=   0.0000E+00 zmoment=   0.0000E+00
 nd#     223  xforce=   0.0000E+00   yforce=   0.0000E+00  zforce=  -7.4034E+01   energy=   3.7979E-03   setid =     223 xmoment=   0.0000E+00 ymoment=   0.0000E+00 zmoment=   0.0000E+00
 nd#     248  xforce=   0.0000E+00   yforce=   0.0000E+00  zforce=  -5.7257E+01   energy=   3.1036E-03   setid =     248 xmoment=   0.0000E+00 ymoment=   0.0000E+00 zmoment=   0.0000E+00
 nd#     249  xforce=   0.0000E+00   yforce=   0.0000E+00  zforce=  -4.6824E+01   energy=   2.4079E-03   setid =     249 xmoment=   0.0000E+00 ymoment=   0.0000E+00 zmoment=   0.0000E+00
 nd#     286  xforce=   0.0000E+00   yforce=   0.0000E+00  zforce=   3.1450E+02   energy=  -1.1637E-02   setid =     286 xmoment=   0.0000E+00 ymoment=   0.0000E+00 zmoment=   0.0000E+00
 nd#     287  xforce=   0.0000E+00   yforce=   0.0000E+00  zforce=  -6.3423E+01   energy=   3.4993E-03   setid =     287 xmoment=   0.0000E+00 ymoment=   0.0000E+00 zmoment=   0.0000E+00
 nd#     288  xforce=   0.0000E+00   yforce=   0.0000E+00  zforce=   8.0286E+01   energy=  -3.0721E-03   setid =     288 xmoment=   0.0000E+00 ymoment=   0.0000E+00 zmoment=   0.0000E+00
 nd#     301  xforce=   0.0000E+00   yforce=   0.0000E+00  zforce=  -1.7716E+02   energy=   8.4168E-03   setid =     301 xmoment=   0.0000E+00 ymoment=   0.0000E+00 zmoment=   0.0000E+00
 nd#     314  xforce=   0.0000E+00   yforce=   0.0000E+00  zforce=  -7.9001E+01   energy=   4.0184E-03   setid =     314 xmoment=   0.0000E+00 ymoment=   0.0000E+00 zmoment=   0.0000E+00
 nd#     363  xforce=   0.0000E+00   yforce=   0.0000E+00  zforce=  -5.4774E-01   energy=   5.3432E-04   setid =     363 xmoment=   0.0000E+00 ymoment=   0.0000E+00 zmoment=   0.0000E+00
 nd#     364  xforce=   0.0000E+00   yforce=   0.0000E+00  zforce=  -2.2155E+01   energy=   2.1754E-03   setid =     364 xmoment=   0.0000E+00 ymoment=   0.0000E+00 zmoment=   0.0000E+00
 nd#     365  xforce=   0.0000E+00   yforce=   0.0000E+00  zforce=  -1.9422E+02   energy=   8.7976E-03   setid =     365 xmoment=   0.0000E+00 ymoment=   0.0000E+00 zmoment=   0.0000E+00
 nd#     366  xforce=   0.0000E+00   yforce=   0.0000E+00  zforce=  -7.6021E+01   energy=   3.5912E-03   setid =     366 xmoment=   0.0000E+00 ymoment=   0.0000E+00 zmoment=   0.0000E+00
 nd#     379  xforce=   0.0000E+00   yforce=   0.0000E+00  zforce=  -4.4846E+01   energy=   1.8622E-03   setid =     379 xmoment=   0.0000E+00 ymoment=   0.0000E+00 zmoment=   0.0000E+00
 nd#     404  xforce=   0.0000E+00   yforce=   0.0000E+00  zforce=  -2.8609E+02   energy=   1.2209E-02   setid =     404 xmoment=   0.0000E+00 ymoment=   0.0000E+00 zmoment=   0.0000E+00
 nd#     405  xforce=   0.0000E+00   yforce=   0.0000E+00  zforce=  -1.8088E+02   energy=   7.8350E-03   setid =     405 xmoment=   0.0000E+00 ymoment=   0.0000E+00 zmoment=   0.0000E+00
 nd#     418  xforce=   0.0000E+00   yforce=   0.0000E+00  zforce=  -1.6037E+02   energy=   6.9171E-03   setid =     418 xmoment=   0.0000E+00 ymoment=   0.0000E+00 zmoment=   0.0000E+00
 nd#     438  xforce=   0.0000E+00   yforce=   0.0000E+00  zforce=   7.6245E+00   energy=  -2.4440E-04   setid =     438 xmoment=   0.0000E+00 ymoment=   0.0000E+00 zmoment=   0.0000E+00
 nd#     439  xforce=   0.0000E+00   yforce=   0.0000E+00  zforce=  -3.1247E+01   energy=   1.7428E-03   setid =     439 xmoment=   0.0000E+00 ymoment=   0.0000E+00 zmoment=   0.0000E+00
 nd#     440  xforce=   0.0000E+00   yforce=   0.0000E+00  zforce=  -3.8097E+01   energy=   2.0050E-03   setid =     440 xmoment=   0.0000E+00 ymoment=   0.0000E+00 zmoment=   0.0000E+00
 nd#     441  xforce=   0.0000E+00   yforce=   0.0000E+00  zforce=  -4.2368E+01   energy=   2.1419E-03   setid =     441 xmoment=   0.0000E+00 ymoment=   0.0000E+00 zmoment=   0.0000E+00
 nd#     442  xforce=   0.0000E+00   yforce=   0.0000E+00  zforce=  -4.5659E+01   energy=   2.2846E-03   setid =     442 xmoment=   0.0000E+00 ymoment=   0.0000E+00 zmoment=   0.0000E+00
 nd#     443  xforce=   0.0000E+00   yforce=   0.0000E+00  zforce=  -4.9313E+01   energy=   2.4477E-03   setid =     443 xmoment=   0.0000E+00 ymoment=   0.0000E+00 zmoment=   0.0000E+00
 nd#     444  xforce=   0.0000E+00   yforce=   0.0000E+00  zforce=  -5.4196E+01   energy=   2.6517E-03   setid =     444 xmoment=   0.0000E+00 ymoment=   0.0000E+00 zmoment=   0.0000E+00
 nd#     591  xforce=   0.0000E+00   yforce=   0.0000E+00  zforce=  -3.9385E+01   energy=   2.3017E-03   setid =     591 xmoment=   0.0000E+00 ymoment=   0.0000E+00 zmoment=   0.0000E+00
 nd#     592  xforce=   0.0000E+00   yforce=   0.0000E+00  zforce=  -4.3233E+01   energy=   2.5028E-03   setid =     592 xmoment=   0.0000E+00 ymoment=   0.0000E+00 zmoment=   0.0000E+00
 nd#     595  xforce=   0.0000E+00   yforce=   0.0000E+00  zforce=  -7.4793E+01   energy=   3.8545E-03   setid =     595 xmoment=   0.0000E+00 ymoment=   0.0000E+00 zmoment=   0.0000E+00
 nd#     596  xforce=   0.0000E+00   yforce=   0.0000E+00  zforce=  -7.1806E+01   energy=   3.7384E-03   setid =     596 xmoment=   0.0000E+00 ymoment=   0.0000E+00 zmoment=   0.0000E+00
 nd#     599  xforce=   0.0000E+00   yforce=   0.0000E+00  zforce=  -6.3810E+01   energy=   3.3438E-03   setid =     599 xmoment=   0.0000E+00 ymoment=   0.0000E+00 zmoment=   0.0000E+00
 nd#     600  xforce=   0.0000E+00   yforce=   0.0000E+00  zforce=  -7.0366E+01   energy=   3.6595E-03   setid =     600 xmoment=   0.0000E+00 ymoment=   0.0000E+00 zmoment=   0.0000E+00
 nd#     603  xforce=   0.0000E+00   yforce=   0.0000E+00  zforce=  -4.5736E+01   energy=   2.2921E-03   setid =     603 xmoment=   0.0000E+00 ymoment=   0.0000E+00 zmoment=   0.0000E+00
 nd#     604  xforce=   0.0000E+00   yforce=   0.0000E+00  zforce=  -4.3034E+01   energy=   2.2238E-03   setid =     604 xmoment=   0.0000E+00 ymoment=   0.0000E+00 zmoment=   0.0000E+00
 nd#     638  xforce=   0.0000E+00   yforce=   0.0000E+00  zforce=  -5.1984E+01   energy=   2.9841E-03   setid =     638 xmoment=   0.0000E+00 ymoment=   0.0000E+00 zmoment=   0.0000E+00
 nd#     639  xforce=   0.0000E+00   yforce=   0.0000E+00  zforce=  -4.3164E+01   energy=   2.6366E-03   setid =     639 xmoment=   0.0000E+00 ymoment=   0.0000E+00 zmoment=   0.0000E+00
 nd#     641  xforce=   0.0000E+00   yforce=   0.0000E+00  zforce=  -6.8045E+01   energy=   3.6400E-03   setid =     641 xmoment=   0.0000E+00 ymoment=   0.0000E+00 zmoment=   0.0000E+00
 nd#     642  xforce=   0.0000E+00   yforce=   0.0000E+00  zforce=  -6.6335E+01   energy=   3.5677E-03   setid =     642 xmoment=   0.0000E+00 ymoment=   0.0000E+00 zmoment=   0.0000E+00
 nd#     644  xforce=   0.0000E+00   yforce=   0.0000E+00  zforce=  -7.7010E+01   energy=   4.0779E-03   setid =     644 xmoment=   0.0000E+00 ymoment=   0.0000E+00 zmoment=   0.0000E+00
 nd#     645  xforce=   0.0000E+00   yforce=   0.0000E+00  zforce=  -7.9381E+01   energy=   4.1427E-03   setid =     645 xmoment=   0.0000E+00 ymoment=   0.0000E+00 zmoment=   0.0000E+00
 nd#     647  xforce=   0.0000E+00   yforce=   0.0000E+00  zforce=  -3.5970E+01   energy=   1.9424E-03   setid =     647 xmoment=   0.0000E+00 ymoment=   0.0000E+00 zmoment=   0.0000E+00
 nd#     648  xforce=   0.0000E+00   yforce=   0.0000E+00  zforce=  -1.6929E+01   energy=   1.1143E-03   setid =     648 xmoment=   0.0000E+00 ymoment=   0.0000E+00 zmoment=   0.0000E+00
 nd#     674  xforce=   0.0000E+00   yforce=   0.0000E+00  zforce=  -3.8444E+01   energy=   2.2032E-03   setid =     674 xmoment=   0.0000E+00 ymoment=   0.0000E+00 zmoment=   0.0000E+00
 nd#     676  xforce=   0.0000E+00   yforce=   0.0000E+00  zforce=  -7.9540E+01   energy=   4.0527E-03   setid =     676 xmoment=   0.0000E+00 ymoment=   0.0000E+00 zmoment=   0.0000E+00
 nd#     678  xforce=   0.0000E+00   yforce=   0.0000E+00  zforce=  -5.6708E+01   energy=   3.0483E-03   setid =     678 xmoment=   0.0000E+00 ymoment=   0.0000E+00 zmoment=   0.0000E+00
 nd#     680  xforce=   0.0000E+00   yforce=   0.0000E+00  zforce=  -4.8351E+01   energy=   2.4015E-03   setid =     680 xmoment=   0.0000E+00 ymoment=   0.0000E+00 zmoment=   0.0000E+00
 nd#     821  xforce=   0.0000E+00   yforce=   0.0000E+00  zforce=  -4.8014E+01   energy=   2.7481E-03   setid =     821 xmoment=   0.0000E+00 ymoment=   0.0000E+00 zmoment=   0.0000E+00
 nd#     822  xforce=   0.0000E+00   yforce=   0.0000E+00  zforce=  -7.0128E+01   energy=   3.6911E-03   setid =     822 xmoment=   0.0000E+00 ymoment=   0.0000E+00 zmoment=   0.0000E+00
 nd#     823  xforce=   0.0000E+00   yforce=   0.0000E+00  zforce=  -7.5764E+01   energy=   3.9233E-03   setid =     823 xmoment=   0.0000E+00 ymoment=   0.0000E+00 zmoment=   0.0000E+00
 nd#     824  xforce=   0.0000E+00   yforce=   0.0000E+00  zforce=  -4.1982E+01   energy=   2.1482E-03   setid =     824 xmoment=   0.0000E+00 ymoment=   0.0000E+00 zmoment=   0.0000E+00
 nd#     850  xforce=   0.0000E+00   yforce=   0.0000E+00  zforce=   3.7799E+01   energy=  -1.4511E-03   setid =     850 xmoment=   0.0000E+00 ymoment=   0.0000E+00 zmoment=   0.0000E+00
 nd#     852  xforce=   0.0000E+00   yforce=   0.0000E+00  zforce=   4.8541E+01   energy=  -1.9273E-03   setid =     852 xmoment=   0.0000E+00 ymoment=   0.0000E+00 zmoment=   0.0000E+00
 nd#     854  xforce=   0.0000E+00   yforce=   0.0000E+00  zforce=   6.8338E+01   energy=  -2.6470E-03   setid =     854 xmoment=   0.0000E+00 ymoment=   0.0000E+00 zmoment=   0.0000E+00
 nd#     856  xforce=   0.0000E+00   yforce=   0.0000E+00  zforce=   6.3449E+01   energy=  -2.7424E-03   setid =     856 xmoment=   0.0000E+00 ymoment=   0.0000E+00 zmoment=   0.0000E+00
              xtotal=   0.0000E+00   ytotal=   0.0000E+00  ztotal=  -2.6900E+03   etotal=   1.4376E-01

 n o d a l   f o r c e/e n e r g y    o u t p u t  t=   9.64568E+00

 velocity boundary condition forces/rigid body moments 

 nd#     220  xforce=   0.0000E+00   yforce=   0.0000E+00  zforce=  -1.1305E+02   energy=   7.9054E-03   setid =     220 xmoment=   0.0000E+00 ymoment=   0.0000E+00 zmoment=   0.0000E+00
 nd#     221  xforce=   0.0000E+00   yforce=   0.0000E+00  zforce=  -5.8311E+01   energy=   5.0445E-03   setid =     221 xmoment=   0.0000E+00 ymoment=   0.0000E+00 zmoment=   0.0000E+00
 nd#     222  xforce=   0.0000E+00   yforce=   0.0000E+00  zforce=  -7.3846E+01   energy=   5.4476E-03   setid =     222 xmoment=   0.0000E+00 ymoment=   0.0000E+00 zmoment=   0.0000E+00
 nd#     223  xforce=   0.0000E+00   yforce=   0.0000E+00  zforce=  -7.7228E+01   energy=   5.5532E-03   setid =     223 xmoment=   0.0000E+00 ymoment=   0.0000E+00 zmoment=   0.0000E+00
 nd#     248  xforce=   0.0000E+00   yforce=   0.0000E+00  zforce=  -6.8981E+01   energy=   4.5685E-03   setid =     248 xmoment=   0.0000E+00 ymoment=   0.0000E+00 zmoment=   0.0000E+00
 nd#     249  xforce=   0.0000E+00   yforce=   0.0000E+00  zforce=  -5.4224E+01   energy=   3.5805E-03   setid =     249 xmoment=   0.0000E+00 ymoment=   0.0000E+00 zmoment=   0.0000E+00
 nd#     286  xforce=   0.0000E+00   yforce=   0.0000E+00  zforce=   3.2158E+02   energy=  -1.9018E-02   setid =     286 xmoment=   0.0000E+00 ymoment=   0.0000E+00 zmoment=   0.0000E+00
 nd#     287  xforce=   0.0000E+00   yforce=   0.0000E+00  zforce=  -5.9495E+01   energy=   4.9256E-03   setid =     287 xmoment=   0.0000E+00 ymoment=   0.0000E+00 zmoment=   0.0000E+00
 nd#     288  xforce=   0.0000E+00   yforce=   0.0000E+00  zforce=   7.8050E+01   energy=  -4.9095E-03   setid =     288 xmoment=   0.0000E+00 ymoment=   0.0000E+00 zmoment=   0.0000E+00
 nd#     301  xforce=   0.0000E+00   yforce=   0.0000E+00  zforce=  -1.9349E+02   energy=   1.2718E-02   setid =     301 xmoment=   0.0000E+00 ymoment=   0.0000E+00 zmoment=   0.0000E+00
 nd#     314  xforce=   0.0000E+00   yforce=   0.0000E+00  zforce=  -9.6074E+01   energy=   6.0500E-03   setid =     314 xmoment=   0.0000E+00 ymoment=   0.0000E+00 zmoment=   0.0000E+00
 nd#     363  xforce=   0.0000E+00   yforce=   0.0000E+00  zforce=  -1.1542E+01   energy=   6.7461E-04   setid =     363 xmoment=   0.0000E+00 ymoment=   0.0000E+00 zmoment=   0.0000E+00
 nd#     364  xforce=   0.0000E+00   yforce=   0.0000E+00  zforce=  -3.0449E+01   energy=   2.7858E-03   setid =     364 xmoment=   0.0000E+00 ymoment=   0.0000E+00 zmoment=   0.0000E+00
 nd#     365  xforce=   0.0000E+00   yforce=   0.0000E+00  zforce=  -2.0518E+02   energy=   1.3432E-02   setid =     365 xmoment=   0.0000E+00 ymoment=   0.0000E+00 zmoment=   0.0000E+00
 nd#     366  xforce=   0.0000E+00   yforce=   0.0000E+00  zforce=  -8.1280E+01   energy=   5.4165E-03   setid =     366 xmoment=   0.0000E+00 ymoment=   0.0000E+00 zmoment=   0.0000E+00
 nd#     379  xforce=   0.0000E+00   yforce=   0.0000E+00  zforce=  -5.9951E+01   energy=   3.0782E-03   setid =     379 xmoment=   0.0000E+00 ymoment=   0.0000E+00 zmoment=   0.0000E+00
 nd#     404  xforce=   0.0000E+00   yforce=   0.0000E+00  zforce=  -3.0271E+02   energy=   1.9041E-02   setid =     404 xmoment=   0.0000E+00 ymoment=   0.0000E+00 zmoment=   0.0000E+00
 nd#     405  xforce=   0.0000E+00   yforce=   0.0000E+00  zforce=  -1.9451E+02   energy=   1.2191E-02   setid =     405 xmoment=   0.0000E+00 ymoment=   0.0000E+00 zmoment=   0.0000E+00
 nd#     418  xforce=   0.0000E+00   yforce=   0.0000E+00  zforce=  -1.6427E+02   energy=   1.0684E-02   setid =     418 xmoment=   0.0000E+00 ymoment=   0.0000E+00 zmoment=   0.0000E+00
 nd#     438  xforce=   0.0000E+00   yforce=   0.0000E+00  zforce=   7.1554E+00   energy=  -4.1590E-04   setid =     438 xmoment=   0.0000E+00 ymoment=   0.0000E+00 zmoment=   0.0000E+00
 nd#     439  xforce=   0.0000E+00   yforce=   0.0000E+00  zforce=  -3.5488E+01   energy=   2.5172E-03   setid =     439 xmoment=   0.0000E+00 ymoment=   0.0000E+00 zmoment=   0.0000E+00
 nd#     440  xforce=   0.0000E+00   yforce=   0.0000E+00  zforce=  -4.1745E+01   energy=   2.9315E-03   setid =     440 xmoment=   0.0000E+00 ymoment=   0.0000E+00 zmoment=   0.0000E+00
 nd#     441  xforce=   0.0000E+00   yforce=   0.0000E+00  zforce=  -4.5739E+01   energy=   3.1643E-03   setid =     441 xmoment=   0.0000E+00 ymoment=   0.0000E+00 zmoment=   0.0000E+00
 nd#     442  xforce=   0.0000E+00   yforce=   0.0000E+00  zforce=  -4.8584E+01   energy=   3.3782E-03   setid =     442 xmoment=   0.0000E+00 ymoment=   0.0000E+00 zmoment=   0.0000E+00
 nd#     443  xforce=   0.0000E+00   yforce=   0.0000E+00  zforce=  -5.2484E+01   energy=   3.6289E-03   setid =     443 xmoment=   0.0000E+00 ymoment=   0.0000E+00 zmoment=   0.0000E+00
 nd#     444  xforce=   0.0000E+00   yforce=   0.0000E+00  zforce=  -5.8187E+01   energy=   3.9558E-03   setid =     444 xmoment=   0.0000E+00 ymoment=   0.0000E+00 zmoment=   0.0000E+00
 nd#     591  xforce=   0.0000E+00   yforce=   0.0000E+00  zforce=  -4.7378E+01   energy=   3.3085E-03   setid =     591 xmoment=   0.0000E+00 ymoment=   0.0000E+00 zmoment=   0.0000E+00
 nd#     592  xforce=   0.0000E+00   yforce=   0.0000E+00  zforce=  -4.9870E+01   energy=   3.5832E-03   setid =     592 xmoment=   0.0000E+00 ymoment=   0.0000E+00 zmoment=   0.0000E+00
 nd#     595  xforce=   0.0000E+00   yforce=   0.0000E+00  zforce=  -8.4024E+01   energy=   5.6974E-03   setid =     595 xmoment=   0.0000E+00 ymoment=   0.0000E+00 zmoment=   0.0000E+00
 nd#     596  xforce=   0.0000E+00   yforce=   0.0000E+00  zforce=  -8.0595E+01   energy=   5.5069E-03   setid =     596 xmoment=   0.0000E+00 ymoment=   0.0000E+00 zmoment=   0.0000E+00
 nd#     599  xforce=   0.0000E+00   yforce=   0.0000E+00  zforce=  -7.1832E+01   energy=   4.9178E-03   setid =     599 xmoment=   0.0000E+00 ymoment=   0.0000E+00 zmoment=   0.0000E+00
 nd#     600  xforce=   0.0000E+00   yforce=   0.0000E+00  zforce=  -7.9407E+01   energy=   5.3974E-03   setid =     600 xmoment=   0.0000E+00 ymoment=   0.0000E+00 zmoment=   0.0000E+00
 nd#     603  xforce=   0.0000E+00   yforce=   0.0000E+00  zforce=  -4.8036E+01   energy=   3.3802E-03   setid =     603 xmoment=   0.0000E+00 ymoment=   0.0000E+00 zmoment=   0.0000E+00
 nd#     604  xforce=   0.0000E+00   yforce=   0.0000E+00  zforce=  -4.7185E+01   energy=   3.2706E-03   setid =     604 xmoment=   0.0000E+00 ymoment=   0.0000E+00 zmoment=   0.0000E+00
 nd#     638  xforce=   0.0000E+00   yforce=   0.0000E+00  zforce=  -5.9396E+01   energy=   4.2765E-03   setid =     638 xmoment=   0.0000E+00 ymoment=   0.0000E+00 zmoment=   0.0000E+00
 nd#     639  xforce=   0.0000E+00   yforce=   0.0000E+00  zforce=  -5.1066E+01   energy=   3.7300E-03   setid =     639 xmoment=   0.0000E+00 ymoment=   0.0000E+00 zmoment=   0.0000E+00
 nd#     641  xforce=   0.0000E+00   yforce=   0.0000E+00  zforce=  -7.6964E+01   energy=   5.3226E-03   setid =     641 xmoment=   0.0000E+00 ymoment=   0.0000E+00 zmoment=   0.0000E+00
 nd#     642  xforce=   0.0000E+00   yforce=   0.0000E+00  zforce=  -7.3416E+01   energy=   5.1894E-03   setid =     642 xmoment=   0.0000E+00 ymoment=   0.0000E+00 zmoment=   0.0000E+00
 nd#     644  xforce=   0.0000E+00   yforce=   0.0000E+00  zforce=  -8.8132E+01   energy=   5.9942E-03   setid =     644 xmoment=   0.0000E+00 ymoment=   0.0000E+00 zmoment=   0.0000E+00
[...]
 nd#     223  xforce=   0.0000E+00   yforce=   0.0000E+00  zforce=  -2.1369E+01   energy=   4.7901E-02   setid =     223 xmoment=   0.0000E+00 ymoment=   0.0000E+00 zmoment=   0.0000E+00
 nd#     248  xforce=   0.0000E+00   yforce=   0.0000E+00  zforce=  -4.2282E+01   energy=   6.2381E-02   setid =     248 xmoment=   0.0000E+00 ymoment=   0.0000E+00 zmoment=   0.0000E+00
 nd#     249  xforce=   0.0000E+00   yforce=   0.0000E+00  zforce=  -2.4328E+01   energy=   3.8803E-02   setid =     249 xmoment=   0.0000E+00 ymoment=   0.0000E+00 zmoment=   0.0000E+00
 nd#     286  xforce=   0.0000E+00   yforce=   0.0000E+00  zforce=   1.0224E+02   energy=  -1.5162E-01   setid =     286 xmoment=   0.0000E+00 ymoment=   0.0000E+00 zmoment=   0.0000E+00
 nd#     287  xforce=   0.0000E+00   yforce=   0.0000E+00  zforce=  -5.0913E+01   energy=   4.4620E-02   setid =     287 xmoment=   0.0000E+00 ymoment=   0.0000E+00 zmoment=   0.0000E+00
 nd#     288  xforce=   0.0000E+00   yforce=   0.0000E+00  zforce=   1.3624E+01   energy=  -2.0371E-03   setid =     288 xmoment=   0.0000E+00 ymoment=   0.0000E+00 zmoment=   0.0000E+00
 nd#     301  xforce=   0.0000E+00   yforce=   0.0000E+00  zforce=  -1.3607E+02   energy=   1.4255E-01   setid =     301 xmoment=   0.0000E+00 ymoment=   0.0000E+00 zmoment=   0.0000E+00
 nd#     314  xforce=   0.0000E+00   yforce=   0.0000E+00  zforce=  -5.7410E+01   energy=   7.8208E-02   setid =     314 xmoment=   0.0000E+00 ymoment=   0.0000E+00 zmoment=   0.0000E+00
 nd#     363  xforce=   0.0000E+00   yforce=   0.0000E+00  zforce=  -2.9193E+01   energy=   3.2194E-02   setid =     363 xmoment=   0.0000E+00 ymoment=   0.0000E+00 zmoment=   0.0000E+00
 nd#     364  xforce=   0.0000E+00   yforce=   0.0000E+00  zforce=  -7.2200E+01   energy=   5.1510E-02   setid =     364 xmoment=   0.0000E+00 ymoment=   0.0000E+00 zmoment=   0.0000E+00
 nd#     365  xforce=   0.0000E+00   yforce=   0.0000E+00  zforce=  -6.7287E+01   energy=   1.1517E-01   setid =     365 xmoment=   0.0000E+00 ymoment=   0.0000E+00 zmoment=   0.0000E+00
 nd#     366  xforce=   0.0000E+00   yforce=   0.0000E+00  zforce=  -1.2407E+01   energy=   4.7802E-02   setid =     366 xmoment=   0.0000E+00 ymoment=   0.0000E+00 zmoment=   0.0000E+00
 nd#     379  xforce=   0.0000E+00   yforce=   0.0000E+00  zforce=  -5.9703E+01   energy=   7.2734E-02   setid =     379 xmoment=   0.0000E+00 ymoment=   0.0000E+00 zmoment=   0.0000E+00
 nd#     404  xforce=   0.0000E+00   yforce=   0.0000E+00  zforce=  -7.7197E+01   energy=   1.6022E-01   setid =     404 xmoment=   0.0000E+00 ymoment=   0.0000E+00 zmoment=   0.0000E+00
 nd#     405  xforce=   0.0000E+00   yforce=   0.0000E+00  zforce=  -7.5668E+01   energy=   1.1290E-01   setid =     405 xmoment=   0.0000E+00 ymoment=   0.0000E+00 zmoment=   0.0000E+00
 nd#     418  xforce=   0.0000E+00   yforce=   0.0000E+00  zforce=  -8.7919E+00   energy=   7.9311E-02   setid =     418 xmoment=   0.0000E+00 ymoment=   0.0000E+00 zmoment=   0.0000E+00
 nd#     438  xforce=   0.0000E+00   yforce=   0.0000E+00  zforce=   6.2065E+00   energy=  -5.9777E-03   setid =     438 xmoment=   0.0000E+00 ymoment=   0.0000E+00 zmoment=   0.0000E+00
 nd#     439  xforce=   0.0000E+00   yforce=   0.0000E+00  zforce=  -1.2508E+01   energy=   2.4281E-02   setid =     439 xmoment=   0.0000E+00 ymoment=   0.0000E+00 zmoment=   0.0000E+00
 nd#     440  xforce=   0.0000E+00   yforce=   0.0000E+00  zforce=  -1.9090E+01   energy=   2.9501E-02   setid =     440 xmoment=   0.0000E+00 ymoment=   0.0000E+00 zmoment=   0.0000E+00
 nd#     441  xforce=   0.0000E+00   yforce=   0.0000E+00  zforce=  -2.2111E+01   energy=   3.1095E-02   setid =     441 xmoment=   0.0000E+00 ymoment=   0.0000E+00 zmoment=   0.0000E+00
 nd#     442  xforce=   0.0000E+00   yforce=   0.0000E+00  zforce=  -2.4453E+01   energy=   3.2414E-02   setid =     442 xmoment=   0.0000E+00 ymoment=   0.0000E+00 zmoment=   0.0000E+00
 nd#     443  xforce=   0.0000E+00   yforce=   0.0000E+00  zforce=  -2.2684E+01   energy=   3.3972E-02   setid =     443 xmoment=   0.0000E+00 ymoment=   0.0000E+00 zmoment=   0.0000E+00
 nd#     444  xforce=   0.0000E+00   yforce=   0.0000E+00  zforce=  -2.8665E+01   energy=   3.6871E-02   setid =     444 xmoment=   0.0000E+00 ymoment=   0.0000E+00 zmoment=   0.0000E+00
 nd#     591  xforce=   0.0000E+00   yforce=   0.0000E+00  zforce=  -4.6106E+01   energy=   4.3988E-02   setid =     591 xmoment=   0.0000E+00 ymoment=   0.0000E+00 zmoment=   0.0000E+00
 nd#     592  xforce=   0.0000E+00   yforce=   0.0000E+00  zforce=  -4.5878E+01   energy=   4.3291E-02   setid =     592 xmoment=   0.0000E+00 ymoment=   0.0000E+00 zmoment=   0.0000E+00
 nd#     595  xforce=   0.0000E+00   yforce=   0.0000E+00  zforce=  -5.0653E+01   energy=   6.3392E-02   setid =     595 xmoment=   0.0000E+00 ymoment=   0.0000E+00 zmoment=   0.0000E+00
 nd#     596  xforce=   0.0000E+00   yforce=   0.0000E+00  zforce=  -4.9972E+01   energy=   6.0487E-02   setid =     596 xmoment=   0.0000E+00 ymoment=   0.0000E+00 zmoment=   0.0000E+00
 nd#     599  xforce=   0.0000E+00   yforce=   0.0000E+00  zforce=  -3.9444E+01   energy=   5.7669E-02   setid =     599 xmoment=   0.0000E+00 ymoment=   0.0000E+00 zmoment=   0.0000E+00
 nd#     600  xforce=   0.0000E+00   yforce=   0.0000E+00  zforce=  -4.1396E+01   energy=   6.0888E-02   setid =     600 xmoment=   0.0000E+00 ymoment=   0.0000E+00 zmoment=   0.0000E+00
 nd#     603  xforce=   0.0000E+00   yforce=   0.0000E+00  zforce=  -2.2774E+01   energy=   3.4502E-02   setid =     603 xmoment=   0.0000E+00 ymoment=   0.0000E+00 zmoment=   0.0000E+00
 nd#     604  xforce=   0.0000E+00   yforce=   0.0000E+00  zforce=  -2.0092E+01   energy=   3.3558E-02   setid =     604 xmoment=   0.0000E+00 ymoment=   0.0000E+00 zmoment=   0.0000E+00
 nd#     638  xforce=   0.0000E+00   yforce=   0.0000E+00  zforce=  -4.0075E+01   energy=   4.8490E-02   setid =     638 xmoment=   0.0000E+00 ymoment=   0.0000E+00 zmoment=   0.0000E+00
 nd#     639  xforce=   0.0000E+00   yforce=   0.0000E+00  zforce=  -2.9136E+01   energy=   3.8936E-02   setid =     639 xmoment=   0.0000E+00 ymoment=   0.0000E+00 zmoment=   0.0000E+00
 nd#     641  xforce=   0.0000E+00   yforce=   0.0000E+00  zforce=  -4.6791E+01   energy=   6.0833E-02   setid =     641 xmoment=   0.0000E+00 ymoment=   0.0000E+00 zmoment=   0.0000E+00
 nd#     642  xforce=   0.0000E+00   yforce=   0.0000E+00  zforce=  -4.5987E+01   energy=   5.5516E-02   setid =     642 xmoment=   0.0000E+00 ymoment=   0.0000E+00 zmoment=   0.0000E+00
 nd#     644  xforce=   0.0000E+00   yforce=   0.0000E+00  zforce=  -5.2160E+01   energy=   7.0958E-02   setid =     644 xmoment=   0.0000E+00 ymoment=   0.0000E+00 zmoment=   0.0000E+00
 nd#     645  xforce=   0.0000E+00   yforce=   0.0000E+00  zforce=  -4.8700E+01   energy=   6.8632E-02   setid =     645 xmoment=   0.0000E+00 ymoment=   0.0000E+00 zmoment=   0.0000E+00
 nd#     647  xforce=   0.0000E+00   yforce=   0.0000E+00  zforce=  -1.3350E+01   energy=   2.5025E-02   setid =     647 xmoment=   0.0000E+00 ymoment=   0.0000E+00 zmoment=   0.0000E+00
 nd#     648  xforce=   0.0000E+00   yforce=   0.0000E+00  zforce=   6.1246E+00   energy=   7.1112E-03   setid =     648 xmoment=   0.0000E+00 ymoment=   0.0000E+00 zmoment=   0.0000E+00
 nd#     674  xforce=   0.0000E+00   yforce=   0.0000E+00  zforce=  -5.4567E+01   energy=   4.5281E-02   setid =     674 xmoment=   0.0000E+00 ymoment=   0.0000E+00 zmoment=   0.0000E+00
 nd#     676  xforce=   0.0000E+00   yforce=   0.0000E+00  zforce=  -5.5084E+01   energy=   6.9784E-02   setid =     676 xmoment=   0.0000E+00 ymoment=   0.0000E+00 zmoment=   0.0000E+00
 nd#     678  xforce=   0.0000E+00   yforce=   0.0000E+00  zforce=  -4.0839E+01   energy=   5.6224E-02   setid =     678 xmoment=   0.0000E+00 ymoment=   0.0000E+00 zmoment=   0.0000E+00
 nd#     680  xforce=   0.0000E+00   yforce=   0.0000E+00  zforce=  -2.8056E+01   energy=   3.6308E-02   setid =     680 xmoment=   0.0000E+00 ymoment=   0.0000E+00 zmoment=   0.0000E+00
 nd#     821  xforce=   0.0000E+00   yforce=   0.0000E+00  zforce=  -3.8899E+01   energy=   4.5631E-02   setid =     821 xmoment=   0.0000E+00 ymoment=   0.0000E+00 zmoment=   0.0000E+00
 nd#     822  xforce=   0.0000E+00   yforce=   0.0000E+00  zforce=  -4.1963E+01   energy=   5.9884E-02   setid =     822 xmoment=   0.0000E+00 ymoment=   0.0000E+00 zmoment=   0.0000E+00
 nd#     823  xforce=   0.0000E+00   yforce=   0.0000E+00  zforce=  -4.5847E+01   energy=   6.5241E-02   setid =     823 xmoment=   0.0000E+00 ymoment=   0.0000E+00 zmoment=   0.0000E+00
 nd#     824  xforce=   0.0000E+00   yforce=   0.0000E+00  zforce=  -2.1348E+01   energy=   3.1648E-02   setid =     824 xmoment=   0.0000E+00 ymoment=   0.0000E+00 zmoment=   0.0000E+00
 nd#     850  xforce=   0.0000E+00   yforce=   0.0000E+00  zforce=   2.1913E+01   energy=  -2.9733E-02   setid =     850 xmoment=   0.0000E+00 ymoment=   0.0000E+00 zmoment=   0.0000E+00
 nd#     852  xforce=   0.0000E+00   yforce=   0.0000E+00  zforce=   4.1624E+01   energy=  -3.8620E-02   setid =     852 xmoment=   0.0000E+00 ymoment=   0.0000E+00 zmoment=   0.0000E+00
 nd#     854  xforce=   0.0000E+00   yforce=   0.0000E+00  zforce=   5.3406E+01   energy=  -6.4458E-02   setid =     854 xmoment=   0.0000E+00 ymoment=   0.0000E+00 zmoment=   0.0000E+00
 nd#     856  xforce=   0.0000E+00   yforce=   0.0000E+00  zforce=   2.9025E+01   energy=  -4.2927E-02   setid =     856 xmoment=   0.0000E+00 ymoment=   0.0000E+00 zmoment=   0.0000E+00
              xtotal=   0.0000E+00   ytotal=   0.0000E+00  ztotal=  -1.5635E+03   etotal=   2.2450E+00

 n o d a l   f o r c e/e n e r g y    o u t p u t  t=   1.00000E+02

 velocity boundary condition forces/rigid body moments 

 nd#     220  xforce=   0.0000E+00   yforce=   0.0000E+00  zforce=  -3.0568E+01   energy=   5.1550E-02   setid =     220 xmoment=   0.0000E+00 ymoment=   0.0000E+00 zmoment=   0.0000E+00
 nd#     221  xforce=   0.0000E+00   yforce=   0.0000E+00  zforce=   2.3190E+01   energy=   1.0819E-02   setid =     221 xmoment=   0.0000E+00 ymoment=   0.0000E+00 zmoment=   0.0000E+00
 nd#     222  xforce=   0.0000E+00   yforce=   0.0000E+00  zforce=  -7.5865E+01   energy=   6.3655E-02   setid =     222 xmoment=   0.0000E+00 ymoment=   0.0000E+00 zmoment=   0.0000E+00
 nd#     223  xforce=   0.0000E+00   yforce=   0.0000E+00  zforce=  -5.1710E+01   energy=   4.9678E-02   setid =     223 xmoment=   0.0000E+00 ymoment=   0.0000E+00 zmoment=   0.0000E+00
 nd#     248  xforce=   0.0000E+00   yforce=   0.0000E+00  zforce=  -7.9446E+01   energy=   6.5341E-02   setid =     248 xmoment=   0.0000E+00 ymoment=   0.0000E+00 zmoment=   0.0000E+00
 nd#     249  xforce=   0.0000E+00   yforce=   0.0000E+00  zforce=  -4.5496E+01   energy=   4.0501E-02   setid =     249 xmoment=   0.0000E+00 ymoment=   0.0000E+00 zmoment=   0.0000E+00
 nd#     286  xforce=   0.0000E+00   yforce=   0.0000E+00  zforce=   1.0979E+02   energy=  -1.5677E-01   setid =     286 xmoment=   0.0000E+00 ymoment=   0.0000E+00 zmoment=   0.0000E+00
 nd#     287  xforce=   0.0000E+00   yforce=   0.0000E+00  zforce=  -2.8686E+01   energy=   4.6555E-02   setid =     287 xmoment=   0.0000E+00 ymoment=   0.0000E+00 zmoment=   0.0000E+00
 nd#     288  xforce=   0.0000E+00   yforce=   0.0000E+00  zforce=  -4.3812E+01   energy=  -1.3030E-03   setid =     288 xmoment=   0.0000E+00 ymoment=   0.0000E+00 zmoment=   0.0000E+00
 nd#     301  xforce=   0.0000E+00   yforce=   0.0000E+00  zforce=  -1.2692E+02   energy=   1.4895E-01   setid =     301 xmoment=   0.0000E+00 ymoment=   0.0000E+00 zmoment=   0.0000E+00
 nd#     314  xforce=   0.0000E+00   yforce=   0.0000E+00  zforce=  -8.0503E+01   energy=   8.1562E-02   setid =     314 xmoment=   0.0000E+00 ymoment=   0.0000E+00 zmoment=   0.0000E+00
 nd#     363  xforce=   0.0000E+00   yforce=   0.0000E+00  zforce=  -5.0998E+01   energy=   3.4144E-02   setid =     363 xmoment=   0.0000E+00 ymoment=   0.0000E+00 zmoment=   0.0000E+00
 nd#     364  xforce=   0.0000E+00   yforce=   0.0000E+00  zforce=  -6.0896E+01   energy=   5.4747E-02   setid =     364 xmoment=   0.0000E+00 ymoment=   0.0000E+00 zmoment=   0.0000E+00
 nd#     365  xforce=   0.0000E+00   yforce=   0.0000E+00  zforce=  -1.2075E+02   energy=   1.1974E-01   setid =     365 xmoment=   0.0000E+00 ymoment=   0.0000E+00 zmoment=   0.0000E+00
 nd#     366  xforce=   0.0000E+00   yforce=   0.0000E+00  zforce=  -5.2945E+01   energy=   4.9391E-02   setid =     366 xmoment=   0.0000E+00 ymoment=   0.0000E+00 zmoment=   0.0000E+00
 nd#     379  xforce=   0.0000E+00   yforce=   0.0000E+00  zforce=  -9.3931E+01   energy=   7.6470E-02   setid =     379 xmoment=   0.0000E+00 ymoment=   0.0000E+00 zmoment=   0.0000E+00
 nd#     404  xforce=   0.0000E+00   yforce=   0.0000E+00  zforce=  -1.5597E+02   energy=   1.6589E-01   setid =     404 xmoment=   0.0000E+00 ymoment=   0.0000E+00 zmoment=   0.0000E+00
 nd#     405  xforce=   0.0000E+00   yforce=   0.0000E+00  zforce=  -1.0581E+02   energy=   1.1731E-01   setid =     405 xmoment=   0.0000E+00 ymoment=   0.0000E+00 zmoment=   0.0000E+00
 nd#     418  xforce=   0.0000E+00   yforce=   0.0000E+00  zforce=  -1.0351E+02   energy=   8.2041E-02   setid =     418 xmoment=   0.0000E+00 ymoment=   0.0000E+00 zmoment=   0.0000E+00
 nd#     438  xforce=   0.0000E+00   yforce=   0.0000E+00  zforce=   5.6240E+00   energy=  -6.2654E-03   setid =     438 xmoment=   0.0000E+00 ymoment=   0.0000E+00 zmoment=   0.0000E+00
 nd#     439  xforce=   0.0000E+00   yforce=   0.0000E+00  zforce=  -2.4957E+01   energy=   2.5192E-02   setid =     439 xmoment=   0.0000E+00 ymoment=   0.0000E+00 zmoment=   0.0000E+00
 nd#     440  xforce=   0.0000E+00   yforce=   0.0000E+00  zforce=  -3.1352E+01   energy=   3.0727E-02   setid =     440 xmoment=   0.0000E+00 ymoment=   0.0000E+00 zmoment=   0.0000E+00
 nd#     441  xforce=   0.0000E+00   yforce=   0.0000E+00  zforce=  -3.3280E+01   energy=   3.2442E-02   setid =     441 xmoment=   0.0000E+00 ymoment=   0.0000E+00 zmoment=   0.0000E+00
 nd#     442  xforce=   0.0000E+00   yforce=   0.0000E+00  zforce=  -3.4711E+01   energy=   3.3852E-02   setid =     442 xmoment=   0.0000E+00 ymoment=   0.0000E+00 zmoment=   0.0000E+00
 nd#     443  xforce=   0.0000E+00   yforce=   0.0000E+00  zforce=  -3.4622E+01   energy=   3.5366E-02   setid =     443 xmoment=   0.0000E+00 ymoment=   0.0000E+00 zmoment=   0.0000E+00
 nd#     444  xforce=   0.0000E+00   yforce=   0.0000E+00  zforce=  -3.9335E+01   energy=   3.8524E-02   setid =     444 xmoment=   0.0000E+00 ymoment=   0.0000E+00 zmoment=   0.0000E+00
 nd#     591  xforce=   0.0000E+00   yforce=   0.0000E+00  zforce=  -4.8810E+01   energy=   4.6296E-02   setid =     591 xmoment=   0.0000E+00 ymoment=   0.0000E+00 zmoment=   0.0000E+00
 nd#     592  xforce=   0.0000E+00   yforce=   0.0000E+00  zforce=  -5.1546E+01   energy=   4.5660E-02   setid =     592 xmoment=   0.0000E+00 ymoment=   0.0000E+00 zmoment=   0.0000E+00
 nd#     595  xforce=   0.0000E+00   yforce=   0.0000E+00  zforce=  -6.2382E+01   energy=   6.6141E-02   setid =     595 xmoment=   0.0000E+00 ymoment=   0.0000E+00 zmoment=   0.0000E+00
 nd#     596  xforce=   0.0000E+00   yforce=   0.0000E+00  zforce=  -6.4887E+01   energy=   6.3280E-02   setid =     596 xmoment=   0.0000E+00 ymoment=   0.0000E+00 zmoment=   0.0000E+00
 nd#     599  xforce=   0.0000E+00   yforce=   0.0000E+00  zforce=  -6.7192E+01   energy=   6.0262E-02   setid =     599 xmoment=   0.0000E+00 ymoment=   0.0000E+00 zmoment=   0.0000E+00
 nd#     600  xforce=   0.0000E+00   yforce=   0.0000E+00  zforce=  -7.1145E+01   energy=   6.3624E-02   setid =     600 xmoment=   0.0000E+00 ymoment=   0.0000E+00 zmoment=   0.0000E+00
 nd#     603  xforce=   0.0000E+00   yforce=   0.0000E+00  zforce=  -3.8925E+01   energy=   3.6002E-02   setid =     603 xmoment=   0.0000E+00 ymoment=   0.0000E+00 zmoment=   0.0000E+00
 nd#     604  xforce=   0.0000E+00   yforce=   0.0000E+00  zforce=  -3.8785E+01   energy=   3.4990E-02   setid =     604 xmoment=   0.0000E+00 ymoment=   0.0000E+00 zmoment=   0.0000E+00
 nd#     638  xforce=   0.0000E+00   yforce=   0.0000E+00  zforce=  -5.5025E+01   energy=   5.0802E-02   setid =     638 xmoment=   0.0000E+00 ymoment=   0.0000E+00 zmoment=   0.0000E+00
 nd#     639  xforce=   0.0000E+00   yforce=   0.0000E+00  zforce=  -4.1456E+01   energy=   4.0652E-02   setid =     639 xmoment=   0.0000E+00 ymoment=   0.0000E+00 zmoment=   0.0000E+00
 nd#     641  xforce=   0.0000E+00   yforce=   0.0000E+00  zforce=  -6.8496E+01   energy=   6.3636E-02   setid =     641 xmoment=   0.0000E+00 ymoment=   0.0000E+00 zmoment=   0.0000E+00
 nd#     642  xforce=   0.0000E+00   yforce=   0.0000E+00  zforce=  -5.7587E+01   energy=   5.8035E-02   setid =     642 xmoment=   0.0000E+00 ymoment=   0.0000E+00 zmoment=   0.0000E+00
 nd#     644  xforce=   0.0000E+00   yforce=   0.0000E+00  zforce=  -8.4130E+01   energy=   7.4272E-02   setid =     644 xmoment=   0.0000E+00 ymoment=   0.0000E+00 zmoment=   0.0000E+00
 nd#     645  xforce=   0.0000E+00   yforce=   0.0000E+00  zforce=  -7.6897E+01   energy=   7.1686E-02   setid =     645 xmoment=   0.0000E+00 ymoment=   0.0000E+00 zmoment=   0.0000E+00
 nd#     647  xforce=   0.0000E+00   yforce=   0.0000E+00  zforce=  -3.1553E+01   energy=   2.6116E-02   setid =     647 xmoment=   0.0000E+00 ymoment=   0.0000E+00 zmoment=   0.0000E+00
 nd#     648  xforce=   0.0000E+00   yforce=   0.0000E+00  zforce=  -9.5891E+00   energy=   7.1954E-03   setid =     648 xmoment=   0.0000E+00 ymoment=   0.0000E+00 zmoment=   0.0000E+00
 nd#     674  xforce=   0.0000E+00   yforce=   0.0000E+00  zforce=  -5.6402E+01   energy=   4.7979E-02   setid =     674 xmoment=   0.0000E+00 ymoment=   0.0000E+00 zmoment=   0.0000E+00
 nd#     676  xforce=   0.0000E+00   yforce=   0.0000E+00  zforce=  -7.3352E+01   energy=   7.2907E-02   setid =     676 xmoment=   0.0000E+00 ymoment=   0.0000E+00 zmoment=   0.0000E+00
 nd#     678  xforce=   0.0000E+00   yforce=   0.0000E+00  zforce=  -7.0512E+01   energy=   5.8931E-02   setid =     678 xmoment=   0.0000E+00 ymoment=   0.0000E+00 zmoment=   0.0000E+00
 nd#     680  xforce=   0.0000E+00   yforce=   0.0000E+00  zforce=  -4.1922E+01   energy=   3.8009E-02   setid =     680 xmoment=   0.0000E+00 ymoment=   0.0000E+00 zmoment=   0.0000E+00
 nd#     821  xforce=   0.0000E+00   yforce=   0.0000E+00  zforce=  -5.1872E+01   energy=   4.7839E-02   setid =     821 xmoment=   0.0000E+00 ymoment=   0.0000E+00 zmoment=   0.0000E+00
 nd#     822  xforce=   0.0000E+00   yforce=   0.0000E+00  zforce=  -6.4993E+01   energy=   6.2484E-02   setid =     822 xmoment=   0.0000E+00 ymoment=   0.0000E+00 zmoment=   0.0000E+00
 nd#     823  xforce=   0.0000E+00   yforce=   0.0000E+00  zforce=  -7.6808E+01   energy=   6.8224E-02   setid =     823 xmoment=   0.0000E+00 ymoment=   0.0000E+00 zmoment=   0.0000E+00
 nd#     824  xforce=   0.0000E+00   yforce=   0.0000E+00  zforce=  -3.8074E+01   energy=   3.3093E-02   setid =     824 xmoment=   0.0000E+00 ymoment=   0.0000E+00 zmoment=   0.0000E+00
 nd#     850  xforce=   0.0000E+00   yforce=   0.0000E+00  zforce=   3.2722E+01   energy=  -3.1061E-02   setid =     850 xmoment=   0.0000E+00 ymoment=   0.0000E+00 zmoment=   0.0000E+00
 nd#     852  xforce=   0.0000E+00   yforce=   0.0000E+00  zforce=   4.6517E+01   energy=  -4.0764E-02   setid =     852 xmoment=   0.0000E+00 ymoment=   0.0000E+00 zmoment=   0.0000E+00
 nd#     854  xforce=   0.0000E+00   yforce=   0.0000E+00  zforce=   9.1002E+01   energy=  -6.7970E-02   setid =     854 xmoment=   0.0000E+00 ymoment=   0.0000E+00 zmoment=   0.0000E+00
 nd#     856  xforce=   0.0000E+00   yforce=   0.0000E+00  zforce=   4.4897E+01   energy=  -4.4725E-02   setid =     856 xmoment=   0.0000E+00 ymoment=   0.0000E+00 zmoment=   0.0000E+00
              xtotal=   0.0000E+00   ytotal=   0.0000E+00  ztotal=  -2.4947E+03   etotal=   2.3437E+00
