 LS-DYNA keyword deck by LS-PrePost                                      
                    ls-dyna smp d R14 R14.1.1s_1_ef50e1 date 06/16/2024

{BEGIN LEGEND}
 Entity #        Title
        1     Notched Bar                                                             
{END LEGEND}



 time =   0.0000E+00
 mat.#=    1             inten=  -2.0420E-12     kinen=   0.0000E+00     eroded_ie=   0.0000E+00     eroded_ke=   0.0000E+00
 x-mom=   0.0000E+00     y-mom=   0.0000E+00     z-mom=   0.0000E+00
 x-rbv=   0.0000E+00     y-rbv=   0.0000E+00     z-rbv=   0.0000E+00


 time =   1.2924E+00
 mat.#=    1             inten=   6.9393E-03     kinen=   0.0000E+00     eroded_ie=   0.0000E+00     eroded_ke=   0.0000E+00
 x-mom=   0.0000E+00     y-mom=   0.0000E+00     z-mom=   0.0000E+00
 x-rbv=   0.0000E+00     y-rbv=   0.0000E+00     z-rbv=   0.0000E+00


 time =   2.5484E+00
 mat.#=    1             inten=   2.7478E-02     kinen=   0.0000E+00     eroded_ie=   0.0000E+00     eroded_ke=   0.0000E+00
 x-mom=   0.0000E+00     y-mom=   0.0000E+00     z-mom=   0.0000E+00
 x-rbv=   0.0000E+00     y-rbv=   0.0000E+00     z-rbv=   0.0000E+00


 time =   3.4723E+00
 mat.#=    1             inten=   2.1042E-01     kinen=   0.0000E+00     eroded_ie=   0.0000E+00     eroded_ke=   0.0000E+00
 x-mom=   0.0000E+00     y-mom=   0.0000E+00     z-mom=   0.0000E+00
 x-rbv=   0.0000E+00     y-rbv=   0.0000E+00     z-rbv=   0.0000E+00


 time =   4.3962E+00
 mat.#=    1             inten=   2.5430E-01     kinen=   0.0000E+00     eroded_ie=   0.0000E+00     eroded_ke=   0.0000E+00
 x-mom=   0.0000E+00     y-mom=   0.0000E+00     z-mom=   0.0000E+00
 x-rbv=   0.0000E+00     y-rbv=   0.0000E+00     z-rbv=   0.0000E+00


 time =   5.8606E+00
 mat.#=    1             inten=   3.9565E-01     kinen=   0.0000E+00     eroded_ie=   0.0000E+00     eroded_ke=   0.0000E+00
 x-mom=   0.0000E+00     y-mom=   0.0000E+00     z-mom=   0.0000E+00
 x-rbv=   0.0000E+00     y-rbv=   0.0000E+00     z-rbv=   0.0000E+00


 time =   7.3249E+00
 mat.#=    1             inten=   4.3895E-01     kinen=   0.0000E+00     eroded_ie=   0.0000E+00     eroded_ke=   0.0000E+00
 x-mom=   0.0000E+00     y-mom=   0.0000E+00     z-mom=   0.0000E+00
 x-rbv=   0.0000E+00     y-rbv=   0.0000E+00     z-rbv=   0.0000E+00


 time =   9.6457E+00
 mat.#=    1             inten=   5.6537E-01     kinen=   0.0000E+00     eroded_ie=   0.0000E+00     eroded_ke=   0.0000E+00
 x-mom=   0.0000E+00     y-mom=   0.0000E+00     z-mom=   0.0000E+00
 x-rbv=   0.0000E+00     y-rbv=   0.0000E+00     z-rbv=   0.0000E+00


 time =   1.1966E+01
 mat.#=    1             inten=   6.3707E-01     kinen=   0.0000E+00     eroded_ie=   0.0000E+00     eroded_ke=   0.0000E+00
 x-mom=   0.0000E+00     y-mom=   0.0000E+00     z-mom=   0.0000E+00
 x-rbv=   0.0000E+00     y-rbv=   0.0000E+00     z-rbv=   0.0000E+00


 time =   1.4287E+01
 mat.#=    1             inten=   7.0876E-01     kinen=   0.0000E+00     eroded_ie=   0.0000E+00     eroded_ke=   0.0000E+00
 x-mom=   0.0000E+00     y-mom=   0.0000E+00     z-mom=   0.0000E+00
 x-rbv=   0.0000E+00     y-rbv=   0.0000E+00     z-rbv=   0.0000E+00


 time =   1.6608E+01
 mat.#=    1             inten=   7.7924E-01     kinen=   0.0000E+00     eroded_ie=   0.0000E+00     eroded_ke=   0.0000E+00
 x-mom=   0.0000E+00     y-mom=   0.0000E+00     z-mom=   0.0000E+00
 x-rbv=   0.0000E+00     y-rbv=   0.0000E+00     z-rbv=   0.0000E+00


 time =   1.8929E+01
 mat.#=    1             inten=   8.4858E-01     kinen=   0.0000E+00     eroded_ie=   0.0000E+00     eroded_ke=   0.0000E+00
 x-mom=   0.0000E+00     y-mom=   0.0000E+00     z-mom=   0.0000E+00
 x-rbv=   0.0000E+00     y-rbv=   0.0000E+00     z-rbv=   0.0000E+00


 time =   2.2607E+01
 mat.#=    1             inten=   9.6005E-01     kinen=   0.0000E+00     eroded_ie=   0.0000E+00     eroded_ke=   0.0000E+00
 x-mom=   0.0000E+00     y-mom=   0.0000E+00     z-mom=   0.0000E+00
 x-rbv=   0.0000E+00     y-rbv=   0.0000E+00     z-rbv=   0.0000E+00


 time =   2.6285E+01
 mat.#=    1             inten=   1.0503E+00     kinen=   0.0000E+00     eroded_ie=   0.0000E+00     eroded_ke=   0.0000E+00
 x-mom=   0.0000E+00     y-mom=   0.0000E+00     z-mom=   0.0000E+00
 x-rbv=   0.0000E+00     y-rbv=   0.0000E+00     z-rbv=   0.0000E+00


 time =   2.9963E+01
 mat.#=    1             inten=   1.1732E+00     kinen=   0.0000E+00     eroded_ie=   0.0000E+00     eroded_ke=   0.0000E+00
 x-mom=   0.0000E+00     y-mom=   0.0000E+00     z-mom=   0.0000E+00
 x-rbv=   0.0000E+00     y-rbv=   0.0000E+00     z-rbv=   0.0000E+00


 time =   3.3642E+01
 mat.#=    1             inten=   1.2643E+00     kinen=   0.0000E+00     eroded_ie=   0.0000E+00     eroded_ke=   0.0000E+00
 x-mom=   0.0000E+00     y-mom=   0.0000E+00     z-mom=   0.0000E+00
 x-rbv=   0.0000E+00     y-rbv=   0.0000E+00     z-rbv=   0.0000E+00


 time =   3.7320E+01
 mat.#=    1             inten=   1.3696E+00     kinen=   0.0000E+00     eroded_ie=   0.0000E+00     eroded_ke=   0.0000E+00
 x-mom=   0.0000E+00     y-mom=   0.0000E+00     z-mom=   0.0000E+00
 x-rbv=   0.0000E+00     y-rbv=   0.0000E+00     z-rbv=   0.0000E+00


 time =   4.0998E+01
 mat.#=    1             inten=   1.4887E+00     kinen=   0.0000E+00     eroded_ie=   0.0000E+00     eroded_ke=   0.0000E+00
 x-mom=   0.0000E+00     y-mom=   0.0000E+00     z-mom=   0.0000E+00
 x-rbv=   0.0000E+00     y-rbv=   0.0000E+00     z-rbv=   0.0000E+00


 time =   4.4676E+01
 mat.#=    1             inten=   1.5490E+00     kinen=   0.0000E+00     eroded_ie=   0.0000E+00     eroded_ke=   0.0000E+00
 x-mom=   0.0000E+00     y-mom=   0.0000E+00     z-mom=   0.0000E+00
 x-rbv=   0.0000E+00     y-rbv=   0.0000E+00     z-rbv=   0.0000E+00


 time =   4.8355E+01
 mat.#=    1             inten=   1.6622E+00     kinen=   0.0000E+00     eroded_ie=   0.0000E+00     eroded_ke=   0.0000E+00
 x-mom=   0.0000E+00     y-mom=   0.0000E+00     z-mom=   0.0000E+00
 x-rbv=   0.0000E+00     y-rbv=   0.0000E+00     z-rbv=   0.0000E+00


 time =   5.2033E+01
 mat.#=    1             inten=   1.7185E+00     kinen=   0.0000E+00     eroded_ie=   0.0000E+00     eroded_ke=   0.0000E+00
 x-mom=   0.0000E+00     y-mom=   0.0000E+00     z-mom=   0.0000E+00
 x-rbv=   0.0000E+00     y-rbv=   0.0000E+00     z-rbv=   0.0000E+00


 time =   5.5711E+01
 mat.#=    1             inten=   1.8103E+00     kinen=   0.0000E+00     eroded_ie=   0.0000E+00     eroded_ke=   0.0000E+00
 x-mom=   0.0000E+00     y-mom=   0.0000E+00     z-mom=   0.0000E+00
 x-rbv=   0.0000E+00     y-rbv=   0.0000E+00     z-rbv=   0.0000E+00


 time =   5.9389E+01
 mat.#=    1             inten=   1.8792E+00     kinen=   0.0000E+00     eroded_ie=   0.0000E+00     eroded_ke=   0.0000E+00
 x-mom=   0.0000E+00     y-mom=   0.0000E+00     z-mom=   0.0000E+00
 x-rbv=   0.0000E+00     y-rbv=   0.0000E+00     z-rbv=   0.0000E+00


 time =   6.3067E+01
 mat.#=    1             inten=   1.9631E+00     kinen=   0.0000E+00     eroded_ie=   0.0000E+00     eroded_ke=   0.0000E+00
 x-mom=   0.0000E+00     y-mom=   0.0000E+00     z-mom=   0.0000E+00
 x-rbv=   0.0000E+00     y-rbv=   0.0000E+00     z-rbv=   0.0000E+00


 time =   6.6746E+01
 mat.#=    1             inten=   2.0447E+00     kinen=   0.0000E+00     eroded_ie=   0.0000E+00     eroded_ke=   0.0000E+00
 x-mom=   0.0000E+00     y-mom=   0.0000E+00     z-mom=   0.0000E+00
 x-rbv=   0.0000E+00     y-rbv=   0.0000E+00     z-rbv=   0.0000E+00


 time =   7.0424E+01
 mat.#=    1             inten=   2.0979E+00     kinen=   0.0000E+00     eroded_ie=   0.0000E+00     eroded_ke=   0.0000E+00
 x-mom=   0.0000E+00     y-mom=   0.0000E+00     z-mom=   0.0000E+00
 x-rbv=   0.0000E+00     y-rbv=   0.0000E+00     z-rbv=   0.0000E+00


 time =   7.4102E+01
 mat.#=    1             inten=   2.1841E+00     kinen=   0.0000E+00     eroded_ie=   0.0000E+00     eroded_ke=   0.0000E+00
 x-mom=   0.0000E+00     y-mom=   0.0000E+00     z-mom=   0.0000E+00
 x-rbv=   0.0000E+00     y-rbv=   0.0000E+00     z-rbv=   0.0000E+00


 time =   7.7780E+01
 mat.#=    1             inten=   2.2665E+00     kinen=   0.0000E+00     eroded_ie=   0.0000E+00     eroded_ke=   0.0000E+00
 x-mom=   0.0000E+00     y-mom=   0.0000E+00     z-mom=   0.0000E+00
 x-rbv=   0.0000E+00     y-rbv=   0.0000E+00     z-rbv=   0.0000E+00


 time =   8.1458E+01
 mat.#=    1             inten=   2.3136E+00     kinen=   0.0000E+00     eroded_ie=   0.0000E+00     eroded_ke=   0.0000E+00
 x-mom=   0.0000E+00     y-mom=   0.0000E+00     z-mom=   0.0000E+00
 x-rbv=   0.0000E+00     y-rbv=   0.0000E+00     z-rbv=   0.0000E+00


 time =   8.5137E+01
 mat.#=    1             inten=   2.4016E+00     kinen=   0.0000E+00     eroded_ie=   0.0000E+00     eroded_ke=   0.0000E+00
 x-mom=   0.0000E+00     y-mom=   0.0000E+00     z-mom=   0.0000E+00
 x-rbv=   0.0000E+00     y-rbv=   0.0000E+00     z-rbv=   0.0000E+00


 time =   9.0137E+01
 mat.#=    1             inten=   2.5192E+00     kinen=   0.0000E+00     eroded_ie=   0.0000E+00     eroded_ke=   0.0000E+00
 x-mom=   0.0000E+00     y-mom=   0.0000E+00     z-mom=   0.0000E+00
 x-rbv=   0.0000E+00     y-rbv=   0.0000E+00     z-rbv=   0.0000E+00


 time =   9.5137E+01
 mat.#=    1             inten=   2.5859E+00     kinen=   0.0000E+00     eroded_ie=   0.0000E+00     eroded_ke=   0.0000E+00
 x-mom=   0.0000E+00     y-mom=   0.0000E+00     z-mom=   0.0000E+00
 x-rbv=   0.0000E+00     y-rbv=   0.0000E+00     z-rbv=   0.0000E+00


 time =   1.0000E+02
 mat.#=    1             inten=   2.7238E+00     kinen=   0.0000E+00     eroded_ie=   0.0000E+00     eroded_ke=   0.0000E+00
 x-mom=   0.0000E+00     y-mom=   0.0000E+00     z-mom=   0.0000E+00
 x-rbv=   0.0000E+00     y-rbv=   0.0000E+00     z-rbv=   0.0000E+00
