 LS-DYNA keyword deck by LS-PrePost                                      
                    ls-dyna smp d R14 R14.1.1s_1_ef50e1 date 06/16/2024

{BEGIN LEGEND}
 Entity #        Title
        1                                                                                     
        2                                                                                     
        3                                                                                     
        4                                                                                     
        5                                                                                     
        6                                                                                     
        7                                                                                     
        8                                                                                     
        9                                                                                     
       10                                                                                     
       11                                                                                     
       12                                                                                     
       13                                                                                     
       14                                                                                     
       15                                                                                     
       16                                                                                     
       17                                                                                     
       18                                                                                     
       19                                                                                     
      220                                                                                     
      221                                                                                     
      222                                                                                     
      223                                                                                     
      248                                                                                     
      249                                                                                     
      286                                                                                     
      287                                                                                     
      288                                                                                     
      301                                                                                     
      314                                                                                     
      363                                                                                     
      364                                                                                     
      365                                                                                     
      366                                                                                     
      379                                                                                     
      404                                                                                     
      405                                                                                     
      418                                                                                     
      438                                                                                     
      439                                                                                     
      440                                                                                     
      441                                                                                     
      442                                                                                     
      443                                                                                     
      444                                                                                     
      591                                                                                     
      592                                                                                     
      595                                                                                     
      596                                                                                     
      599                                                                                     
      600                                                                                     
      603                                                                                     
      604                                                                                     
      638                                                                                     
      639                                                                                     
      641                                                                                     
      642                                                                                     
      644                                                                                     
      645                                                                                     
      647                                                                                     
      648                                                                                     
      674                                                                                     
      676                                                                                     
      678                                                                                     
      680                                                                                     
      821                                                                                     
      822                                                                                     
      823                                                                                     
      824                                                                                     
      850                                                                                     
      852                                                                                     
      854                                                                                     
      856                                                                                     
{END LEGEND}




 n o d a l   p r i n t   o u t   f o r   t i m e  s t e p       1                              ( at time 0.0000000E+00 )

 nodal point  x-disp     y-disp      z-disp      x-vel       y-vel       z-vel      x-accl      y-accl      z-accl      x-coor      y-coor      z-coor
        1  0.00000E+00 0.00000E+00 0.00000E+00 0.00000E+00 0.00000E+00 0.00000E+00 0.00000E+00 0.00000E+00 0.00000E+00 3.17500E-03 0.00000E+00-1.78000E-18
        2  0.00000E+00 0.00000E+00 0.00000E+00 0.00000E+00 0.00000E+00 0.00000E+00 0.00000E+00 0.00000E+00 0.00000E+00 2.38130E-03 0.00000E+00 0.00000E+00
        3  0.00000E+00 0.00000E+00 0.00000E+00 0.00000E+00 0.00000E+00 0.00000E+00 0.00000E+00 0.00000E+00 0.00000E+00 1.58750E-03 0.00000E+00 0.00000E+00
        4  0.00000E+00 0.00000E+00 0.00000E+00 0.00000E+00 0.00000E+00 0.00000E+00 0.00000E+00 0.00000E+00 0.00000E+00 7.93750E-04 0.00000E+00 0.00000E+00
        5  0.00000E+00 0.00000E+00 0.00000E+00 0.00000E+00 0.00000E+00 0.00000E+00 0.00000E+00 0.00000E+00 0.00000E+00 0.00000E+00 0.00000E+00 0.00000E+00
        6  0.00000E+00 0.00000E+00 0.00000E+00 0.00000E+00 0.00000E+00 0.00000E+00 0.00000E+00 0.00000E+00 0.00000E+00 4.86000E-20 7.93750E-04 0.00000E+00
        7  0.00000E+00 0.00000E+00 0.00000E+00 0.00000E+00 0.00000E+00 0.00000E+00 0.00000E+00 0.00000E+00 0.00000E+00 9.72100E-20 1.58750E-03 0.00000E+00
        8  0.00000E+00 0.00000E+00 0.00000E+00 0.00000E+00 0.00000E+00 0.00000E+00 0.00000E+00 0.00000E+00 0.00000E+00 1.45800E-19 2.38130E-03 0.00000E+00
        9  0.00000E+00 0.00000E+00 0.00000E+00 0.00000E+00 0.00000E+00 0.00000E+00 0.00000E+00 0.00000E+00 0.00000E+00 1.94400E-19 3.17500E-03 0.00000E+00
       10  0.00000E+00 0.00000E+00 0.00000E+00 0.00000E+00 0.00000E+00 0.00000E+00 0.00000E+00 0.00000E+00 0.00000E+00 1.21500E-03 2.93330E-03 0.00000E+00
       11  0.00000E+00 0.00000E+00 0.00000E+00 0.00000E+00 0.00000E+00 0.00000E+00 0.00000E+00 0.00000E+00 0.00000E+00 2.24510E-03 2.24510E-03 0.00000E+00
       12  0.00000E+00 0.00000E+00 0.00000E+00 0.00000E+00 0.00000E+00 0.00000E+00 0.00000E+00 0.00000E+00 0.00000E+00 2.93330E-03 1.21500E-03 0.00000E+00
       13  0.00000E+00 0.00000E+00 0.00000E+00 0.00000E+00 0.00000E+00 0.00000E+00 0.00000E+00 0.00000E+00 0.00000E+00 1.30830E-03 1.35190E-03 0.00000E+00
       14  0.00000E+00 0.00000E+00 0.00000E+00 0.00000E+00 0.00000E+00 0.00000E+00 0.00000E+00 0.00000E+00 0.00000E+00 1.48830E-03 7.06977E-04 0.00000E+00
       15  0.00000E+00 0.00000E+00 0.00000E+00 0.00000E+00 0.00000E+00 0.00000E+00 0.00000E+00 0.00000E+00 0.00000E+00 6.69510E-04 1.50700E-03 0.00000E+00
       16  0.00000E+00 0.00000E+00 0.00000E+00 0.00000E+00 0.00000E+00 0.00000E+00 0.00000E+00 0.00000E+00 0.00000E+00 7.53638E-04 7.82337E-04 0.00000E+00
       17  0.00000E+00 0.00000E+00 0.00000E+00 0.00000E+00 0.00000E+00 0.00000E+00 0.00000E+00 0.00000E+00 0.00000E+00 1.73630E-03 1.76750E-03 0.00000E+00
       18  0.00000E+00 0.00000E+00 0.00000E+00 0.00000E+00 0.00000E+00 0.00000E+00 0.00000E+00 0.00000E+00 0.00000E+00 9.20131E-04 2.19110E-03 0.00000E+00
       19  0.00000E+00 0.00000E+00 0.00000E+00 0.00000E+00 0.00000E+00 0.00000E+00 0.00000E+00 0.00000E+00 0.00000E+00 2.16330E-03 9.50859E-04 0.00000E+00
      220  0.00000E+00 0.00000E+00 0.00000E+00 0.00000E+00 0.00000E+00 0.00000E+00 0.00000E+00 0.00000E+00 0.00000E+00 2.13900E-19 3.49250E-03 2.54000E-02
      221  0.00000E+00 0.00000E+00 0.00000E+00 0.00000E+00 0.00000E+00 0.00000E+00 0.00000E+00 0.00000E+00 0.00000E+00 1.47250E-03 3.31440E-03 2.54000E-02
      222  0.00000E+00 0.00000E+00 0.00000E+00 0.00000E+00 0.00000E+00 0.00000E+00 0.00000E+00 0.00000E+00 0.00000E+00 2.02380E-03 4.81920E-03 2.54000E-02
      223  0.00000E+00 0.00000E+00 0.00000E+00 0.00000E+00 0.00000E+00 0.00000E+00 0.00000E+00 0.00000E+00 0.00000E+00 3.20800E-19 5.23880E-03 2.54000E-02
      248  0.00000E+00 0.00000E+00 0.00000E+00 0.00000E+00 0.00000E+00 0.00000E+00 0.00000E+00 0.00000E+00 0.00000E+00 2.67340E-03 6.45320E-03 2.54000E-02
      249  0.00000E+00 0.00000E+00 0.00000E+00 0.00000E+00 0.00000E+00 0.00000E+00 0.00000E+00 0.00000E+00 0.00000E+00 4.27700E-19 6.98500E-03 2.54000E-02
      286  0.00000E+00 0.00000E+00 0.00000E+00 0.00000E+00 0.00000E+00 0.00000E+00 0.00000E+00 0.00000E+00 0.00000E+00 3.27330E-03 1.55480E-03 2.54000E-02
      287  0.00000E+00 0.00000E+00 0.00000E+00 0.00000E+00 0.00000E+00 0.00000E+00 0.00000E+00 0.00000E+00 0.00000E+00 2.87770E-03 2.97340E-03 2.54000E-02
      288  0.00000E+00 0.00000E+00 0.00000E+00 0.00000E+00 0.00000E+00 0.00000E+00 0.00000E+00 0.00000E+00 0.00000E+00 1.65770E-03 1.72080E-03 2.54000E-02
      301  0.00000E+00 0.00000E+00 0.00000E+00 0.00000E+00 0.00000E+00 0.00000E+00 0.00000E+00 0.00000E+00 0.00000E+00 3.81930E-03 3.88770E-03 2.54000E-02
      314  0.00000E+00 0.00000E+00 0.00000E+00 0.00000E+00 0.00000E+00 0.00000E+00 0.00000E+00 0.00000E+00 0.00000E+00 4.93910E-03 4.93910E-03 2.54000E-02
      363  0.00000E+00 0.00000E+00 0.00000E+00 0.00000E+00 0.00000E+00 0.00000E+00 0.00000E+00 0.00000E+00 0.00000E+00 6.45340E-03 2.67290E-03 2.54000E-02
      364  0.00000E+00 0.00000E+00 0.00000E+00 0.00000E+00 0.00000E+00 0.00000E+00 0.00000E+00 0.00000E+00 0.00000E+00 4.75810E-03 2.09120E-03 2.54000E-02
      365  0.00000E+00 0.00000E+00 0.00000E+00 0.00000E+00 0.00000E+00 0.00000E+00 0.00000E+00 0.00000E+00 0.00000E+00 5.23880E-03 0.00000E+00 2.54000E-02
      366  0.00000E+00 0.00000E+00 0.00000E+00 0.00000E+00 0.00000E+00 0.00000E+00 0.00000E+00 0.00000E+00 0.00000E+00 6.98500E-03 0.00000E+00 2.54000E-02
      379  0.00000E+00 0.00000E+00 0.00000E+00 0.00000E+00 0.00000E+00 0.00000E+00 0.00000E+00 0.00000E+00 0.00000E+00 1.06900E-19 1.74630E-03 2.54000E-02
      404  0.00000E+00 0.00000E+00 0.00000E+00 0.00000E+00 0.00000E+00 0.00000E+00 0.00000E+00 0.00000E+00 0.00000E+00 1.74630E-03 0.00000E+00 2.54000E-02
      405  0.00000E+00 0.00000E+00 0.00000E+00 0.00000E+00 0.00000E+00 0.00000E+00 0.00000E+00 0.00000E+00 0.00000E+00 0.00000E+00 0.00000E+00 2.54000E-02
      418  0.00000E+00 0.00000E+00 0.00000E+00 0.00000E+00 0.00000E+00 0.00000E+00 0.00000E+00 0.00000E+00 0.00000E+00 3.49250E-03 0.00000E+00 2.54000E-02
      438  0.00000E+00 0.00000E+00 0.00000E+00 0.00000E+00 0.00000E+00 0.00000E+00 0.00000E+00 0.00000E+00 0.00000E+00 1.27000E-02 0.00000E+00 2.54000E-02
      439  0.00000E+00 0.00000E+00 0.00000E+00 0.00000E+00 0.00000E+00 0.00000E+00 0.00000E+00 0.00000E+00 0.00000E+00 1.18836E-02 0.00000E+00 2.54000E-02
      440  0.00000E+00 0.00000E+00 0.00000E+00 0.00000E+00 0.00000E+00 0.00000E+00 0.00000E+00 0.00000E+00 0.00000E+00 1.10671E-02 0.00000E+00 2.54000E-02
      441  0.00000E+00 0.00000E+00 0.00000E+00 0.00000E+00 0.00000E+00 0.00000E+00 0.00000E+00 0.00000E+00 0.00000E+00 1.02507E-02 0.00000E+00 2.54000E-02
      442  0.00000E+00 0.00000E+00 0.00000E+00 0.00000E+00 0.00000E+00 0.00000E+00 0.00000E+00 0.00000E+00 0.00000E+00 9.43430E-03 0.00000E+00 2.54000E-02
      443  0.00000E+00 0.00000E+00 0.00000E+00 0.00000E+00 0.00000E+00 0.00000E+00 0.00000E+00 0.00000E+00 0.00000E+00 8.61790E-03 0.00000E+00 2.54000E-02
      444  0.00000E+00 0.00000E+00 0.00000E+00 0.00000E+00 0.00000E+00 0.00000E+00 0.00000E+00 0.00000E+00 0.00000E+00 7.80140E-03 0.00000E+00 2.54000E-02
      591  0.00000E+00 0.00000E+00 0.00000E+00 0.00000E+00 0.00000E+00 0.00000E+00 0.00000E+00 0.00000E+00 0.00000E+00 7.97270E-03 3.27150E-03 2.54000E-02
      592  0.00000E+00 0.00000E+00 0.00000E+00 0.00000E+00 0.00000E+00 0.00000E+00 0.00000E+00 0.00000E+00 0.00000E+00 8.73230E-03 3.57080E-03 2.54000E-02
      595  0.00000E+00 0.00000E+00 0.00000E+00 0.00000E+00 0.00000E+00 0.00000E+00 0.00000E+00 0.00000E+00 0.00000E+00 6.09600E-03 6.09150E-03 2.54000E-02
      596  0.00000E+00 0.00000E+00 0.00000E+00 0.00000E+00 0.00000E+00 0.00000E+00 0.00000E+00 0.00000E+00 0.00000E+00 6.67450E-03 6.66760E-03 2.54000E-02
      599  0.00000E+00 0.00000E+00 0.00000E+00 0.00000E+00 0.00000E+00 0.00000E+00 0.00000E+00 0.00000E+00 0.00000E+00 3.27630E-03 7.97070E-03 2.54000E-02
      600  0.00000E+00 0.00000E+00 0.00000E+00 0.00000E+00 0.00000E+00 0.00000E+00 0.00000E+00 0.00000E+00 0.00000E+00 3.57780E-03 8.72950E-03 2.54000E-02
      603  0.00000E+00 0.00000E+00 0.00000E+00 0.00000E+00 0.00000E+00 0.00000E+00 0.00000E+00 0.00000E+00 0.00000E+00 5.27700E-19 8.61790E-03 2.54000E-02
      604  0.00000E+00 0.00000E+00 0.00000E+00 0.00000E+00 0.00000E+00 0.00000E+00 0.00000E+00 0.00000E+00 0.00000E+00 5.77700E-19 9.43430E-03 2.54000E-02
      638  0.00000E+00 0.00000E+00 0.00000E+00 0.00000E+00 0.00000E+00 0.00000E+00 0.00000E+00 0.00000E+00 0.00000E+00 1.02517E-02 4.16940E-03 2.54000E-02
      639  0.00000E+00 0.00000E+00 0.00000E+00 0.00000E+00 0.00000E+00 0.00000E+00 0.00000E+00 0.00000E+00 0.00000E+00 1.10113E-02 4.46870E-03 2.54000E-02
      641  0.00000E+00 0.00000E+00 0.00000E+00 0.00000E+00 0.00000E+00 0.00000E+00 0.00000E+00 0.00000E+00 0.00000E+00 7.83140E-03 7.81990E-03 2.54000E-02
      642  0.00000E+00 0.00000E+00 0.00000E+00 0.00000E+00 0.00000E+00 0.00000E+00 0.00000E+00 0.00000E+00 0.00000E+00 8.40990E-03 8.39600E-03 2.54000E-02
      644  0.00000E+00 0.00000E+00 0.00000E+00 0.00000E+00 0.00000E+00 0.00000E+00 0.00000E+00 0.00000E+00 0.00000E+00 4.18070E-03 1.02471E-02 2.54000E-02
      645  0.00000E+00 0.00000E+00 0.00000E+00 0.00000E+00 0.00000E+00 0.00000E+00 0.00000E+00 0.00000E+00 0.00000E+00 4.48220E-03 1.10058E-02 2.54000E-02
      647  0.00000E+00 0.00000E+00 0.00000E+00 0.00000E+00 0.00000E+00 0.00000E+00 0.00000E+00 0.00000E+00 0.00000E+00 6.77700E-19 1.10671E-02 2.54000E-02
      648  0.00000E+00 0.00000E+00 0.00000E+00 0.00000E+00 0.00000E+00 0.00000E+00 0.00000E+00 0.00000E+00 0.00000E+00 7.27700E-19 1.18836E-02 2.54000E-02
      674  0.00000E+00 0.00000E+00 0.00000E+00 0.00000E+00 0.00000E+00 0.00000E+00 0.00000E+00 0.00000E+00 0.00000E+00 7.21300E-03 2.97220E-03 2.54000E-02
      676  0.00000E+00 0.00000E+00 0.00000E+00 0.00000E+00 0.00000E+00 0.00000E+00 0.00000E+00 0.00000E+00 0.00000E+00 5.51760E-03 5.51530E-03 2.54000E-02
      678  0.00000E+00 0.00000E+00 0.00000E+00 0.00000E+00 0.00000E+00 0.00000E+00 0.00000E+00 0.00000E+00 0.00000E+00 2.97480E-03 7.21200E-03 2.54000E-02
      680  0.00000E+00 0.00000E+00 0.00000E+00 0.00000E+00 0.00000E+00 0.00000E+00 0.00000E+00 0.00000E+00 0.00000E+00 4.77700E-19 7.80140E-03 2.54000E-02
      821  0.00000E+00 0.00000E+00 0.00000E+00 0.00000E+00 0.00000E+00 0.00000E+00 0.00000E+00 0.00000E+00 0.00000E+00 9.49200E-03 3.87010E-03 2.54000E-02
      822  0.00000E+00 0.00000E+00 0.00000E+00 0.00000E+00 0.00000E+00 0.00000E+00 0.00000E+00 0.00000E+00 0.00000E+00 7.25290E-03 7.24380E-03 2.54000E-02
      823  0.00000E+00 0.00000E+00 0.00000E+00 0.00000E+00 0.00000E+00 0.00000E+00 0.00000E+00 0.00000E+00 0.00000E+00 3.87930E-03 9.48830E-03 2.54000E-02
      824  0.00000E+00 0.00000E+00 0.00000E+00 0.00000E+00 0.00000E+00 0.00000E+00 0.00000E+00 0.00000E+00 0.00000E+00 6.27700E-19 1.02507E-02 2.54000E-02
      850  0.00000E+00 0.00000E+00 0.00000E+00 0.00000E+00 0.00000E+00 0.00000E+00 0.00000E+00 0.00000E+00 0.00000E+00 1.17710E-02 4.76810E-03 2.54000E-02
      852  0.00000E+00 0.00000E+00 0.00000E+00 0.00000E+00 0.00000E+00 0.00000E+00 0.00000E+00 0.00000E+00 0.00000E+00 8.98830E-03 8.97220E-03 2.54000E-02
      854  0.00000E+00 0.00000E+00 0.00000E+00 0.00000E+00 0.00000E+00 0.00000E+00 0.00000E+00 0.00000E+00 0.00000E+00 4.78370E-03 1.17646E-02 2.54000E-02
      856  0.00000E+00 0.00000E+00 0.00000E+00 0.00000E+00 0.00000E+00 0.00000E+00 0.00000E+00 0.00000E+00 0.00000E+00 7.77700E-19 1.27000E-02 2.54000E-02



 n o d a l   p r i n t   o u t   f o r   t i m e  s t e p      10                              ( at time 1.2924466E+00 )

 nodal point  x-disp     y-disp      z-disp      x-vel       y-vel       z-vel      x-accl      y-accl      z-accl      x-coor      y-coor      z-coor
        1  1.59199E-06 0.00000E+00 0.00000E+00 0.00000E+00 0.00000E+00 0.00000E+00 0.00000E+00 0.00000E+00 0.00000E+00 3.17659E-03 0.00000E+00-1.78000E-18
        2  1.04492E-06 0.00000E+00 0.00000E+00 0.00000E+00 0.00000E+00 0.00000E+00 0.00000E+00 0.00000E+00 0.00000E+00 2.38234E-03 0.00000E+00 0.00000E+00
        3  6.40703E-07 0.00000E+00 0.00000E+00 0.00000E+00 0.00000E+00 0.00000E+00 0.00000E+00 0.00000E+00 0.00000E+00 1.58814E-03 0.00000E+00 0.00000E+00
        4  3.06230E-07 0.00000E+00 0.00000E+00 0.00000E+00 0.00000E+00 0.00000E+00 0.00000E+00 0.00000E+00 0.00000E+00 7.94056E-04 0.00000E+00 0.00000E+00
        5  0.00000E+00 0.00000E+00 0.00000E+00 0.00000E+00 0.00000E+00 0.00000E+00 0.00000E+00 0.00000E+00 0.00000E+00 0.00000E+00 0.00000E+00 0.00000E+00
        6  0.00000E+00 3.09131E-07 0.00000E+00 0.00000E+00 0.00000E+00 0.00000E+00 0.00000E+00 0.00000E+00 0.00000E+00 4.86000E-20 7.94059E-04 0.00000E+00
        7  0.00000E+00 6.59973E-07 0.00000E+00 0.00000E+00 0.00000E+00 0.00000E+00 0.00000E+00 0.00000E+00 0.00000E+00 9.72100E-20 1.58816E-03 0.00000E+00
        8  0.00000E+00 1.10934E-06 0.00000E+00 0.00000E+00 0.00000E+00 0.00000E+00 0.00000E+00 0.00000E+00 0.00000E+00 1.45800E-19 2.38241E-03 0.00000E+00
        9  0.00000E+00 1.69823E-06 0.00000E+00 0.00000E+00 0.00000E+00 0.00000E+00 0.00000E+00 0.00000E+00 0.00000E+00 1.94400E-19 3.17670E-03 0.00000E+00
       10  5.95009E-07 1.56643E-06 0.00000E+00 0.00000E+00 0.00000E+00 0.00000E+00 0.00000E+00 0.00000E+00 0.00000E+00 1.21560E-03 2.93487E-03 0.00000E+00
       11  1.19066E-06 1.35100E-06 0.00000E+00 0.00000E+00 0.00000E+00 0.00000E+00 0.00000E+00 0.00000E+00 0.00000E+00 2.24629E-03 2.24645E-03 0.00000E+00
       12  1.51890E-06 7.60900E-07 0.00000E+00 0.00000E+00 0.00000E+00 0.00000E+00 0.00000E+00 0.00000E+00 0.00000E+00 2.93482E-03 1.21576E-03 0.00000E+00
       13  6.14046E-07 6.29548E-07 0.00000E+00 0.00000E+00 0.00000E+00 0.00000E+00 0.00000E+00 0.00000E+00 0.00000E+00 1.30891E-03 1.35253E-03 0.00000E+00
       14  6.39783E-07 3.16752E-07 0.00000E+00 0.00000E+00 0.00000E+00 0.00000E+00 0.00000E+00 0.00000E+00 0.00000E+00 1.48894E-03 7.07294E-04 0.00000E+00
       15  2.98150E-07 6.27076E-07 0.00000E+00 0.00000E+00 0.00000E+00 0.00000E+00 0.00000E+00 0.00000E+00 0.00000E+00 6.69808E-04 1.50763E-03 0.00000E+00
       16  3.08816E-07 3.10862E-07 0.00000E+00 0.00000E+00 0.00000E+00 0.00000E+00 0.00000E+00 0.00000E+00 0.00000E+00 7.53946E-04 7.82648E-04 0.00000E+00
       17  9.04199E-07 8.58771E-07 0.00000E+00 0.00000E+00 0.00000E+00 0.00000E+00 0.00000E+00 0.00000E+00 0.00000E+00 1.73720E-03 1.76836E-03 0.00000E+00
       18  4.55561E-07 9.93203E-07 0.00000E+00 0.00000E+00 0.00000E+00 0.00000E+00 0.00000E+00 0.00000E+00 0.00000E+00 9.20586E-04 2.19209E-03 0.00000E+00
       19  1.01793E-06 4.26578E-07 0.00000E+00 0.00000E+00 0.00000E+00 0.00000E+00 0.00000E+00 0.00000E+00 0.00000E+00 2.16432E-03 9.51285E-04 0.00000E+00
      220  0.00000E+00 1.89282E-07-1.29245E-05 0.00000E+00 0.00000E+00 0.00000E+00 0.00000E+00 0.00000E+00 0.00000E+00 2.13900E-19 3.49269E-03 2.53871E-02
      221  5.09638E-08 1.59451E-07-1.29245E-05 0.00000E+00 0.00000E+00 0.00000E+00 0.00000E+00 0.00000E+00 0.00000E+00 1.47255E-03 3.31456E-03 2.53871E-02
      222  9.13738E-08 2.30690E-07-1.29245E-05 0.00000E+00 0.00000E+00 0.00000E+00 0.00000E+00 0.00000E+00 0.00000E+00 2.02389E-03 4.81943E-03 2.53871E-02
      223  0.00000E+00 2.99135E-07-1.29245E-05 0.00000E+00 0.00000E+00 0.00000E+00 0.00000E+00 0.00000E+00 0.00000E+00 3.20800E-19 5.23910E-03 2.53871E-02
      248  1.30032E-07 3.79435E-07-1.29245E-05 0.00000E+00 0.00000E+00 0.00000E+00 0.00000E+00 0.00000E+00 0.00000E+00 2.67353E-03 6.45358E-03 2.53871E-02
      249  0.00000E+00 4.39238E-07-1.29245E-05 0.00000E+00 0.00000E+00 0.00000E+00 0.00000E+00 0.00000E+00 0.00000E+00 4.27700E-19 6.98544E-03 2.53871E-02
      286  1.36661E-07 6.17328E-08-1.29245E-05 0.00000E+00 0.00000E+00 0.00000E+00 0.00000E+00 0.00000E+00 0.00000E+00 3.27344E-03 1.55486E-03 2.53871E-02
      287  1.26289E-07 1.53278E-07-1.29245E-05 0.00000E+00 0.00000E+00 0.00000E+00 0.00000E+00 0.00000E+00 0.00000E+00 2.87783E-03 2.97355E-03 2.53871E-02
      288  8.21469E-08 1.08151E-07-1.29245E-05 0.00000E+00 0.00000E+00 0.00000E+00 0.00000E+00 0.00000E+00 0.00000E+00 1.65778E-03 1.72091E-03 2.53871E-02
      301  1.81260E-07 2.22365E-07-1.29245E-05 0.00000E+00 0.00000E+00 0.00000E+00 0.00000E+00 0.00000E+00 0.00000E+00 3.81948E-03 3.88792E-03 2.53871E-02
      314  2.39806E-07 2.88588E-07-1.29245E-05 0.00000E+00 0.00000E+00 0.00000E+00 0.00000E+00 0.00000E+00 0.00000E+00 4.93934E-03 4.93939E-03 2.53871E-02
      363  3.05900E-07 1.58943E-07-1.29245E-05 0.00000E+00 0.00000E+00 0.00000E+00 0.00000E+00 0.00000E+00 0.00000E+00 6.45371E-03 2.67306E-03 2.53871E-02
      364  1.88725E-07 1.19588E-07-1.29245E-05 0.00000E+00 0.00000E+00 0.00000E+00 0.00000E+00 0.00000E+00 0.00000E+00 4.75829E-03 2.09132E-03 2.53871E-02
      365  2.42074E-07 0.00000E+00-1.29245E-05 0.00000E+00 0.00000E+00 0.00000E+00 0.00000E+00 0.00000E+00 0.00000E+00 5.23904E-03 0.00000E+00 2.53871E-02
      366  3.34193E-07 0.00000E+00-1.29245E-05 0.00000E+00 0.00000E+00 0.00000E+00 0.00000E+00 0.00000E+00 0.00000E+00 6.98533E-03 0.00000E+00 2.53871E-02
      379  0.00000E+00 9.68153E-08-1.29245E-05 0.00000E+00 0.00000E+00 0.00000E+00 0.00000E+00 0.00000E+00 0.00000E+00 1.06900E-19 1.74640E-03 2.53871E-02
      404  7.80099E-08 0.00000E+00-1.29245E-05 0.00000E+00 0.00000E+00 0.00000E+00 0.00000E+00 0.00000E+00 0.00000E+00 1.74638E-03 0.00000E+00 2.53871E-02
      405  0.00000E+00 0.00000E+00-1.29245E-05 0.00000E+00 0.00000E+00 0.00000E+00 0.00000E+00 0.00000E+00 0.00000E+00 0.00000E+00 0.00000E+00 2.53871E-02
      418  1.55123E-07 0.00000E+00-1.29245E-05 0.00000E+00 0.00000E+00 0.00000E+00 0.00000E+00 0.00000E+00 0.00000E+00 3.49266E-03 0.00000E+00 2.53871E-02
      438  4.81605E-07 0.00000E+00-1.29245E-05 0.00000E+00 0.00000E+00 0.00000E+00 0.00000E+00 0.00000E+00 0.00000E+00 1.27005E-02 0.00000E+00 2.53871E-02
      439  4.54797E-07 0.00000E+00-1.29245E-05 0.00000E+00 0.00000E+00 0.00000E+00 0.00000E+00 0.00000E+00 0.00000E+00 1.18841E-02 0.00000E+00 2.53871E-02
      440  4.31818E-07 0.00000E+00-1.29245E-05 0.00000E+00 0.00000E+00 0.00000E+00 0.00000E+00 0.00000E+00 0.00000E+00 1.10675E-02 0.00000E+00 2.53871E-02
      441  4.08515E-07 0.00000E+00-1.29245E-05 0.00000E+00 0.00000E+00 0.00000E+00 0.00000E+00 0.00000E+00 0.00000E+00 1.02511E-02 0.00000E+00 2.53871E-02
      442  3.84429E-07 0.00000E+00-1.29245E-05 0.00000E+00 0.00000E+00 0.00000E+00 0.00000E+00 0.00000E+00 0.00000E+00 9.43468E-03 0.00000E+00 2.53871E-02
      443  3.59659E-07 0.00000E+00-1.29245E-05 0.00000E+00 0.00000E+00 0.00000E+00 0.00000E+00 0.00000E+00 0.00000E+00 8.61826E-03 0.00000E+00 2.53871E-02
      444  3.36343E-07 0.00000E+00-1.29245E-05 0.00000E+00 0.00000E+00 0.00000E+00 0.00000E+00 0.00000E+00 0.00000E+00 7.80174E-03 0.00000E+00 2.53871E-02
      591  3.38598E-07 1.74006E-07-1.29245E-05 0.00000E+00 0.00000E+00 0.00000E+00 0.00000E+00 0.00000E+00 0.00000E+00 7.97304E-03 3.27167E-03 2.53871E-02
      592  3.62512E-07 1.84099E-07-1.29245E-05 0.00000E+00 0.00000E+00 0.00000E+00 0.00000E+00 0.00000E+00 0.00000E+00 8.73266E-03 3.57098E-03 2.53871E-02
      595  2.67748E-07 3.17818E-07-1.29245E-05 0.00000E+00 0.00000E+00 0.00000E+00 0.00000E+00 0.00000E+00 0.00000E+00 6.09627E-03 6.09182E-03 2.53871E-02
      596  2.87381E-07 3.37752E-07-1.29245E-05 0.00000E+00 0.00000E+00 0.00000E+00 0.00000E+00 0.00000E+00 0.00000E+00 6.67479E-03 6.66794E-03 2.53871E-02
      599  1.44862E-07 4.08666E-07-1.29245E-05 0.00000E+00 0.00000E+00 0.00000E+00 0.00000E+00 0.00000E+00 0.00000E+00 3.27644E-03 7.97111E-03 2.53871E-02
      600  1.55954E-07 4.32718E-07-1.29245E-05 0.00000E+00 0.00000E+00 0.00000E+00 0.00000E+00 0.00000E+00 0.00000E+00 3.57796E-03 8.72993E-03 2.53871E-02
      603  0.00000E+00 4.42019E-07-1.29245E-05 0.00000E+00 0.00000E+00 0.00000E+00 0.00000E+00 0.00000E+00 0.00000E+00 5.27700E-19 8.61834E-03 2.53871E-02
      604  0.00000E+00 4.64942E-07-1.29245E-05 0.00000E+00 0.00000E+00 0.00000E+00 0.00000E+00 0.00000E+00 0.00000E+00 5.77700E-19 9.43476E-03 2.53871E-02
      638  4.10346E-07 2.02719E-07-1.29245E-05 0.00000E+00 0.00000E+00 0.00000E+00 0.00000E+00 0.00000E+00 0.00000E+00 1.02521E-02 4.16960E-03 2.53871E-02
      639  4.33624E-07 2.11155E-07-1.29245E-05 0.00000E+00 0.00000E+00 0.00000E+00 0.00000E+00 0.00000E+00 0.00000E+00 1.10117E-02 4.46891E-03 2.53871E-02
      641  3.28032E-07 3.78161E-07-1.29245E-05 0.00000E+00 0.00000E+00 0.00000E+00 0.00000E+00 0.00000E+00 0.00000E+00 7.83173E-03 7.82028E-03 2.53871E-02
      642  3.48245E-07 3.97944E-07-1.29245E-05 0.00000E+00 0.00000E+00 0.00000E+00 0.00000E+00 0.00000E+00 0.00000E+00 8.41025E-03 8.39640E-03 2.53871E-02
      644  1.78764E-07 4.83270E-07-1.29245E-05 0.00000E+00 0.00000E+00 0.00000E+00 0.00000E+00 0.00000E+00 0.00000E+00 4.18088E-03 1.02476E-02 2.53871E-02
      645  1.90232E-07 5.10520E-07-1.29245E-05 0.00000E+00 0.00000E+00 0.00000E+00 0.00000E+00 0.00000E+00 0.00000E+00 4.48239E-03 1.10063E-02 2.53871E-02
      647  0.00000E+00 5.15685E-07-1.29245E-05 0.00000E+00 0.00000E+00 0.00000E+00 0.00000E+00 0.00000E+00 0.00000E+00 6.77700E-19 1.10676E-02 2.53871E-02
      648  0.00000E+00 5.46318E-07-1.29245E-05 0.00000E+00 0.00000E+00 0.00000E+00 0.00000E+00 0.00000E+00 0.00000E+00 7.27700E-19 1.18841E-02 2.53871E-02
      674  3.15920E-07 1.65507E-07-1.29245E-05 0.00000E+00 0.00000E+00 0.00000E+00 0.00000E+00 0.00000E+00 0.00000E+00 7.21332E-03 2.97237E-03 2.53871E-02
      676  2.48624E-07 3.00910E-07-1.29245E-05 0.00000E+00 0.00000E+00 0.00000E+00 0.00000E+00 0.00000E+00 0.00000E+00 5.51785E-03 5.51560E-03 2.53871E-02
      678  1.34204E-07 3.89868E-07-1.29245E-05 0.00000E+00 0.00000E+00 0.00000E+00 0.00000E+00 0.00000E+00 0.00000E+00 2.97493E-03 7.21239E-03 2.53871E-02
      680  0.00000E+00 4.29291E-07-1.29245E-05 0.00000E+00 0.00000E+00 0.00000E+00 0.00000E+00 0.00000E+00 0.00000E+00 4.77700E-19 7.80183E-03 2.53871E-02
      821  3.86458E-07 1.93768E-07-1.29245E-05 0.00000E+00 0.00000E+00 0.00000E+00 0.00000E+00 0.00000E+00 0.00000E+00 9.49239E-03 3.87029E-03 2.53871E-02
      822  3.07507E-07 3.57998E-07-1.29245E-05 0.00000E+00 0.00000E+00 0.00000E+00 0.00000E+00 0.00000E+00 0.00000E+00 7.25321E-03 7.24416E-03 2.53871E-02
      823  1.67372E-07 4.57875E-07-1.29245E-05 0.00000E+00 0.00000E+00 0.00000E+00 0.00000E+00 0.00000E+00 0.00000E+00 3.87947E-03 9.48876E-03 2.53871E-02
      824  0.00000E+00 4.90161E-07-1.29245E-05 0.00000E+00 0.00000E+00 0.00000E+00 0.00000E+00 0.00000E+00 0.00000E+00 6.27700E-19 1.02512E-02 2.53871E-02
      850  4.46527E-07 2.19105E-07-1.29245E-05 0.00000E+00 0.00000E+00 0.00000E+00 0.00000E+00 0.00000E+00 0.00000E+00 1.17714E-02 4.76832E-03 2.53871E-02
      852  3.48188E-07 4.10282E-07-1.29245E-05 0.00000E+00 0.00000E+00 0.00000E+00 0.00000E+00 0.00000E+00 0.00000E+00 8.98865E-03 8.97261E-03 2.53871E-02
      854  1.98273E-07 5.58897E-07-1.29245E-05 0.00000E+00 0.00000E+00 0.00000E+00 0.00000E+00 0.00000E+00 0.00000E+00 4.78390E-03 1.17652E-02 2.53871E-02
      856  0.00000E+00 6.17743E-07-1.29245E-05 0.00000E+00 0.00000E+00 0.00000E+00 0.00000E+00 0.00000E+00 0.00000E+00 7.77700E-19 1.27006E-02 2.53871E-02



 n o d a l   p r i n t   o u t   f o r   t i m e  s t e p      14                              ( at time 2.5483898E+00 )

 nodal point  x-disp     y-disp      z-disp      x-vel       y-vel       z-vel      x-accl      y-accl      z-accl      x-coor      y-coor      z-coor
        1  3.14468E-06 0.00000E+00 0.00000E+00 0.00000E+00 0.00000E+00 0.00000E+00 0.00000E+00 0.00000E+00 0.00000E+00 3.17814E-03 0.00000E+00-1.78000E-18
        2  2.02345E-06 0.00000E+00 0.00000E+00 0.00000E+00 0.00000E+00 0.00000E+00 0.00000E+00 0.00000E+00 0.00000E+00 2.38332E-03 0.00000E+00 0.00000E+00
        3  1.23420E-06 0.00000E+00 0.00000E+00 0.00000E+00 0.00000E+00 0.00000E+00 0.00000E+00 0.00000E+00 0.00000E+00 1.58873E-03 0.00000E+00 0.00000E+00
        4  5.90103E-07 0.00000E+00 0.00000E+00 0.00000E+00 0.00000E+00 0.00000E+00 0.00000E+00 0.00000E+00 0.00000E+00 7.94340E-04 0.00000E+00 0.00000E+00
        5  0.00000E+00 0.00000E+00 0.00000E+00 0.00000E+00 0.00000E+00 0.00000E+00 0.00000E+00 0.00000E+00 0.00000E+00 0.00000E+00 0.00000E+00 0.00000E+00
        6  0.00000E+00 5.97372E-07 0.00000E+00 0.00000E+00 0.00000E+00 0.00000E+00 0.00000E+00 0.00000E+00 0.00000E+00 4.86000E-20 7.94347E-04 0.00000E+00
        7  0.00000E+00 1.28292E-06 0.00000E+00 0.00000E+00 0.00000E+00 0.00000E+00 0.00000E+00 0.00000E+00 0.00000E+00 9.72100E-20 1.58878E-03 0.00000E+00
        8  0.00000E+00 2.18320E-06 0.00000E+00 0.00000E+00 0.00000E+00 0.00000E+00 0.00000E+00 0.00000E+00 0.00000E+00 1.45800E-19 2.38348E-03 0.00000E+00
        9  0.00000E+00 3.40296E-06 0.00000E+00 0.00000E+00 0.00000E+00 0.00000E+00 0.00000E+00 0.00000E+00 0.00000E+00 1.94400E-19 3.17840E-03 0.00000E+00
       10  1.17868E-06 3.13863E-06 0.00000E+00 0.00000E+00 0.00000E+00 0.00000E+00 0.00000E+00 0.00000E+00 0.00000E+00 1.21618E-03 2.93644E-03 0.00000E+00
       11  2.39817E-06 2.75898E-06 0.00000E+00 0.00000E+00 0.00000E+00 0.00000E+00 0.00000E+00 0.00000E+00 0.00000E+00 2.24750E-03 2.24786E-03 0.00000E+00
       12  3.04725E-06 1.55952E-06 0.00000E+00 0.00000E+00 0.00000E+00 0.00000E+00 0.00000E+00 0.00000E+00 0.00000E+00 2.93635E-03 1.21656E-03 0.00000E+00
       13  1.22654E-06 1.25791E-06 0.00000E+00 0.00000E+00 0.00000E+00 0.00000E+00 0.00000E+00 0.00000E+00 0.00000E+00 1.30953E-03 1.35316E-03 0.00000E+00
       14  1.26767E-06 6.32520E-07 0.00000E+00 0.00000E+00 0.00000E+00 0.00000E+00 0.00000E+00 0.00000E+00 0.00000E+00 1.48957E-03 7.07609E-04 0.00000E+00
       15  5.91847E-07 1.22189E-06 0.00000E+00 0.00000E+00 0.00000E+00 0.00000E+00 0.00000E+00 0.00000E+00 0.00000E+00 6.70102E-04 1.50822E-03 0.00000E+00
       16  6.09795E-07 6.04261E-07 0.00000E+00 0.00000E+00 0.00000E+00 0.00000E+00 0.00000E+00 0.00000E+00 0.00000E+00 7.54247E-04 7.82941E-04 0.00000E+00
       17  1.81306E-06 1.71575E-06 0.00000E+00 0.00000E+00 0.00000E+00 0.00000E+00 0.00000E+00 0.00000E+00 0.00000E+00 1.73811E-03 1.76922E-03 0.00000E+00
       18  9.03497E-07 1.95156E-06 0.00000E+00 0.00000E+00 0.00000E+00 0.00000E+00 0.00000E+00 0.00000E+00 0.00000E+00 9.21034E-04 2.19305E-03 0.00000E+00
       19  2.02465E-06 8.50814E-07 0.00000E+00 0.00000E+00 0.00000E+00 0.00000E+00 0.00000E+00 0.00000E+00 0.00000E+00 2.16532E-03 9.51709E-04 0.00000E+00
      220  0.00000E+00 3.87753E-07-2.54839E-05 0.00000E+00 0.00000E+00 0.00000E+00 0.00000E+00 0.00000E+00 0.00000E+00 2.13900E-19 3.49289E-03 2.53745E-02
      221  9.58359E-08 3.18450E-07-2.54839E-05 0.00000E+00 0.00000E+00 0.00000E+00 0.00000E+00 0.00000E+00 0.00000E+00 1.47260E-03 3.31472E-03 2.53745E-02
      222  1.73691E-07 4.61092E-07-2.54839E-05 0.00000E+00 0.00000E+00 0.00000E+00 0.00000E+00 0.00000E+00 0.00000E+00 2.02397E-03 4.81966E-03 2.53745E-02
      223  0.00000E+00 6.09777E-07-2.54839E-05 0.00000E+00 0.00000E+00 0.00000E+00 0.00000E+00 0.00000E+00 0.00000E+00 3.20800E-19 5.23941E-03 2.53745E-02
      248  2.50766E-07 7.65214E-07-2.54839E-05 0.00000E+00 0.00000E+00 0.00000E+00 0.00000E+00 0.00000E+00 0.00000E+00 2.67365E-03 6.45397E-03 2.53745E-02
      249  0.00000E+00 9.01914E-07-2.54839E-05 0.00000E+00 0.00000E+00 0.00000E+00 0.00000E+00 0.00000E+00 0.00000E+00 4.27700E-19 6.98590E-03 2.53745E-02
      286  2.54015E-07 1.31525E-07-2.54839E-05 0.00000E+00 0.00000E+00 0.00000E+00 0.00000E+00 0.00000E+00 0.00000E+00 3.27355E-03 1.55493E-03 2.53745E-02
      287  2.39395E-07 3.12179E-07-2.54839E-05 0.00000E+00 0.00000E+00 0.00000E+00 0.00000E+00 0.00000E+00 0.00000E+00 2.87794E-03 2.97371E-03 2.53745E-02
      288  1.53414E-07 2.21087E-07-2.54839E-05 0.00000E+00 0.00000E+00 0.00000E+00 0.00000E+00 0.00000E+00 0.00000E+00 1.65785E-03 1.72102E-03 2.53745E-02
      301  3.49072E-07 4.56564E-07-2.54839E-05 0.00000E+00 0.00000E+00 0.00000E+00 0.00000E+00 0.00000E+00 0.00000E+00 3.81965E-03 3.88816E-03 2.53745E-02
      314  4.63340E-07 5.89134E-07-2.54839E-05 0.00000E+00 0.00000E+00 0.00000E+00 0.00000E+00 0.00000E+00 0.00000E+00 4.93956E-03 4.93969E-03 2.53745E-02
      363  5.80995E-07 3.30322E-07-2.54839E-05 0.00000E+00 0.00000E+00 0.00000E+00 0.00000E+00 0.00000E+00 0.00000E+00 6.45398E-03 2.67323E-03 2.53745E-02
      364  3.53560E-07 2.50261E-07-2.54839E-05 0.00000E+00 0.00000E+00 0.00000E+00 0.00000E+00 0.00000E+00 0.00000E+00 4.75845E-03 2.09145E-03 2.53745E-02
      365  4.59445E-07 0.00000E+00-2.54839E-05 0.00000E+00 0.00000E+00 0.00000E+00 0.00000E+00 0.00000E+00 0.00000E+00 5.23926E-03 0.00000E+00 2.53745E-02
      366  6.37600E-07 0.00000E+00-2.54839E-05 0.00000E+00 0.00000E+00 0.00000E+00 0.00000E+00 0.00000E+00 0.00000E+00 6.98564E-03 0.00000E+00 2.53745E-02
      379  0.00000E+00 2.02782E-07-2.54839E-05 0.00000E+00 0.00000E+00 0.00000E+00 0.00000E+00 0.00000E+00 0.00000E+00 1.06900E-19 1.74650E-03 2.53745E-02
      404  1.42597E-07 0.00000E+00-2.54839E-05 0.00000E+00 0.00000E+00 0.00000E+00 0.00000E+00 0.00000E+00 0.00000E+00 1.74644E-03 0.00000E+00 2.53745E-02
      405  0.00000E+00 0.00000E+00-2.54839E-05 0.00000E+00 0.00000E+00 0.00000E+00 0.00000E+00 0.00000E+00 0.00000E+00 0.00000E+00 0.00000E+00 2.53745E-02
      418  2.89747E-07 0.00000E+00-2.54839E-05 0.00000E+00 0.00000E+00 0.00000E+00 0.00000E+00 0.00000E+00 0.00000E+00 3.49279E-03 0.00000E+00 2.53745E-02
      438  9.04114E-07 0.00000E+00-2.54839E-05 0.00000E+00 0.00000E+00 0.00000E+00 0.00000E+00 0.00000E+00 0.00000E+00 1.27009E-02 0.00000E+00 2.53745E-02
      439  8.56977E-07 0.00000E+00-2.54839E-05 0.00000E+00 0.00000E+00 0.00000E+00 0.00000E+00 0.00000E+00 0.00000E+00 1.18845E-02 0.00000E+00 2.53745E-02
      440  8.14497E-07 0.00000E+00-2.54839E-05 0.00000E+00 0.00000E+00 0.00000E+00 0.00000E+00 0.00000E+00 0.00000E+00 1.10679E-02 0.00000E+00 2.53745E-02
      441  7.70844E-07 0.00000E+00-2.54839E-05 0.00000E+00 0.00000E+00 0.00000E+00 0.00000E+00 0.00000E+00 0.00000E+00 1.02515E-02 0.00000E+00 2.53745E-02
      442  7.25489E-07 0.00000E+00-2.54839E-05 0.00000E+00 0.00000E+00 0.00000E+00 0.00000E+00 0.00000E+00 0.00000E+00 9.43503E-03 0.00000E+00 2.53745E-02
      443  6.78700E-07 0.00000E+00-2.54839E-05 0.00000E+00 0.00000E+00 0.00000E+00 0.00000E+00 0.00000E+00 0.00000E+00 8.61858E-03 0.00000E+00 2.53745E-02
      444  6.35077E-07 0.00000E+00-2.54839E-05 0.00000E+00 0.00000E+00 0.00000E+00 0.00000E+00 0.00000E+00 0.00000E+00 7.80204E-03 0.00000E+00 2.53745E-02
      591  6.44963E-07 3.63480E-07-2.54839E-05 0.00000E+00 0.00000E+00 0.00000E+00 0.00000E+00 0.00000E+00 0.00000E+00 7.97334E-03 3.27186E-03 2.53745E-02
      592  6.90984E-07 3.83756E-07-2.54839E-05 0.00000E+00 0.00000E+00 0.00000E+00 0.00000E+00 0.00000E+00 0.00000E+00 8.73299E-03 3.57118E-03 2.53745E-02
      595  5.17698E-07 6.45967E-07-2.54839E-05 0.00000E+00 0.00000E+00 0.00000E+00 0.00000E+00 0.00000E+00 0.00000E+00 6.09652E-03 6.09215E-03 2.53745E-02
      596  5.56443E-07 6.83800E-07-2.54839E-05 0.00000E+00 0.00000E+00 0.00000E+00 0.00000E+00 0.00000E+00 0.00000E+00 6.67506E-03 6.66828E-03 2.53745E-02
      599  2.81899E-07 8.22105E-07-2.54839E-05 0.00000E+00 0.00000E+00 0.00000E+00 0.00000E+00 0.00000E+00 0.00000E+00 3.27658E-03 7.97152E-03 2.53745E-02
      600  3.04780E-07 8.67653E-07-2.54839E-05 0.00000E+00 0.00000E+00 0.00000E+00 0.00000E+00 0.00000E+00 0.00000E+00 3.57810E-03 8.73037E-03 2.53745E-02
      603  0.00000E+00 8.91775E-07-2.54839E-05 0.00000E+00 0.00000E+00 0.00000E+00 0.00000E+00 0.00000E+00 0.00000E+00 5.27700E-19 8.61879E-03 2.53745E-02
      604  0.00000E+00 9.31340E-07-2.54839E-05 0.00000E+00 0.00000E+00 0.00000E+00 0.00000E+00 0.00000E+00 0.00000E+00 5.77700E-19 9.43523E-03 2.53745E-02
      638  7.83375E-07 4.19975E-07-2.54839E-05 0.00000E+00 0.00000E+00 0.00000E+00 0.00000E+00 0.00000E+00 0.00000E+00 1.02525E-02 4.16982E-03 2.53745E-02
      639  8.27723E-07 4.34696E-07-2.54839E-05 0.00000E+00 0.00000E+00 0.00000E+00 0.00000E+00 0.00000E+00 0.00000E+00 1.10121E-02 4.46913E-03 2.53745E-02
      641  6.37202E-07 7.61237E-07-2.54839E-05 0.00000E+00 0.00000E+00 0.00000E+00 0.00000E+00 0.00000E+00 0.00000E+00 7.83204E-03 7.82066E-03 2.53745E-02
      642  6.77256E-07 7.99070E-07-2.54839E-05 0.00000E+00 0.00000E+00 0.00000E+00 0.00000E+00 0.00000E+00 0.00000E+00 8.41058E-03 8.39680E-03 2.53745E-02
      644  3.50836E-07 9.64912E-07-2.54839E-05 0.00000E+00 0.00000E+00 0.00000E+00 0.00000E+00 0.00000E+00 0.00000E+00 4.18105E-03 1.02481E-02 2.53745E-02
      645  3.72684E-07 1.01742E-06-2.54839E-05 0.00000E+00 0.00000E+00 0.00000E+00 0.00000E+00 0.00000E+00 0.00000E+00 4.48257E-03 1.10068E-02 2.53745E-02
      647  0.00000E+00 1.02518E-06-2.54839E-05 0.00000E+00 0.00000E+00 0.00000E+00 0.00000E+00 0.00000E+00 0.00000E+00 6.77700E-19 1.10681E-02 2.53745E-02
      648  0.00000E+00 1.08959E-06-2.54839E-05 0.00000E+00 0.00000E+00 0.00000E+00 0.00000E+00 0.00000E+00 0.00000E+00 7.27700E-19 1.18847E-02 2.53745E-02
      674  6.01323E-07 3.45947E-07-2.54839E-05 0.00000E+00 0.00000E+00 0.00000E+00 0.00000E+00 0.00000E+00 0.00000E+00 7.21360E-03 2.97255E-03 2.53745E-02
      676  4.80025E-07 6.13915E-07-2.54839E-05 0.00000E+00 0.00000E+00 0.00000E+00 0.00000E+00 0.00000E+00 0.00000E+00 5.51808E-03 5.51591E-03 2.53745E-02
      678  2.59544E-07 7.86713E-07-2.54839E-05 0.00000E+00 0.00000E+00 0.00000E+00 0.00000E+00 0.00000E+00 0.00000E+00 2.97506E-03 7.21279E-03 2.53745E-02
      680  0.00000E+00 8.75201E-07-2.54839E-05 0.00000E+00 0.00000E+00 0.00000E+00 0.00000E+00 0.00000E+00 0.00000E+00 4.77700E-19 7.80228E-03 2.53745E-02
      821  7.37165E-07 4.02863E-07-2.54839E-05 0.00000E+00 0.00000E+00 0.00000E+00 0.00000E+00 0.00000E+00 0.00000E+00 9.49274E-03 3.87050E-03 2.53745E-02
      822  5.96392E-07 7.22499E-07-2.54839E-05 0.00000E+00 0.00000E+00 0.00000E+00 0.00000E+00 0.00000E+00 0.00000E+00 7.25350E-03 7.24452E-03 2.53745E-02
      823  3.28045E-07 9.15748E-07-2.54839E-05 0.00000E+00 0.00000E+00 0.00000E+00 0.00000E+00 0.00000E+00 0.00000E+00 3.87963E-03 9.48922E-03 2.53745E-02
      824  0.00000E+00 9.77177E-07-2.54839E-05 0.00000E+00 0.00000E+00 0.00000E+00 0.00000E+00 0.00000E+00 0.00000E+00 6.27700E-19 1.02517E-02 2.53745E-02
      850  8.42952E-07 4.45333E-07-2.54839E-05 0.00000E+00 0.00000E+00 0.00000E+00 0.00000E+00 0.00000E+00 0.00000E+00 1.17718E-02 4.76855E-03 2.53745E-02
      852  6.63313E-07 8.16787E-07-2.54839E-05 0.00000E+00 0.00000E+00 0.00000E+00 0.00000E+00 0.00000E+00 0.00000E+00 8.98896E-03 8.97302E-03 2.53745E-02
      854  3.83621E-07 1.12048E-06-2.54839E-05 0.00000E+00 0.00000E+00 0.00000E+00 0.00000E+00 0.00000E+00 0.00000E+00 4.78408E-03 1.17657E-02 2.53745E-02
      856  0.00000E+00 1.25892E-06-2.54839E-05 0.00000E+00 0.00000E+00 0.00000E+00 0.00000E+00 0.00000E+00 0.00000E+00 7.77700E-19 1.27013E-02 2.53745E-02



 n o d a l   p r i n t   o u t   f o r   t i m e  s t e p     352                              ( at time 3.4723147E+00 )

 nodal point  x-disp     y-disp      z-disp      x-vel       y-vel       z-vel      x-accl      y-accl      z-accl      x-coor      y-coor      z-coor
        1  4.83002E-06 0.00000E+00 0.00000E+00 0.00000E+00 0.00000E+00 0.00000E+00 0.00000E+00 0.00000E+00 0.00000E+00 3.17983E-03 0.00000E+00-1.78000E-18
        2  2.70153E-06 0.00000E+00 0.00000E+00 0.00000E+00 0.00000E+00 0.00000E+00 0.00000E+00 0.00000E+00 0.00000E+00 2.38400E-03 0.00000E+00 0.00000E+00
        3  1.66893E-06 0.00000E+00 0.00000E+00 0.00000E+00 0.00000E+00 0.00000E+00 0.00000E+00 0.00000E+00 0.00000E+00 1.58917E-03 0.00000E+00 0.00000E+00
        4  9.43131E-07 0.00000E+00 0.00000E+00 0.00000E+00 0.00000E+00 0.00000E+00 0.00000E+00 0.00000E+00 0.00000E+00 7.94693E-04 0.00000E+00 0.00000E+00
        5  0.00000E+00 0.00000E+00 0.00000E+00 0.00000E+00 0.00000E+00 0.00000E+00 0.00000E+00 0.00000E+00 0.00000E+00 0.00000E+00 0.00000E+00 0.00000E+00
        6  0.00000E+00 7.01807E-07 0.00000E+00 0.00000E+00 0.00000E+00 0.00000E+00 0.00000E+00 0.00000E+00 0.00000E+00 4.86000E-20 7.94452E-04 0.00000E+00
        7  0.00000E+00 1.83882E-06 0.00000E+00 0.00000E+00 0.00000E+00 0.00000E+00 0.00000E+00 0.00000E+00 0.00000E+00 9.72100E-20 1.58934E-03 0.00000E+00
        8  0.00000E+00 3.81974E-06 0.00000E+00 0.00000E+00 0.00000E+00 0.00000E+00 0.00000E+00 0.00000E+00 0.00000E+00 1.45800E-19 2.38512E-03 0.00000E+00
        9  0.00000E+00 6.40736E-06 0.00000E+00 0.00000E+00 0.00000E+00 0.00000E+00 0.00000E+00 0.00000E+00 0.00000E+00 1.94400E-19 3.18141E-03 0.00000E+00
       10  2.74073E-06 6.38807E-06 0.00000E+00 0.00000E+00 0.00000E+00 0.00000E+00 0.00000E+00 0.00000E+00 0.00000E+00 1.21774E-03 2.93969E-03 0.00000E+00
       11  6.62114E-06 7.50039E-06 0.00000E+00 0.00000E+00 0.00000E+00 0.00000E+00 0.00000E+00 0.00000E+00 0.00000E+00 2.25172E-03 2.25260E-03 0.00000E+00
       12  7.88781E-06 4.45802E-06 0.00000E+00 0.00000E+00 0.00000E+00 0.00000E+00 0.00000E+00 0.00000E+00 0.00000E+00 2.94119E-03 1.21946E-03 0.00000E+00
       13  3.76428E-06 3.93204E-06 0.00000E+00 0.00000E+00 0.00000E+00 0.00000E+00 0.00000E+00 0.00000E+00 0.00000E+00 1.31206E-03 1.35583E-03 0.00000E+00
       14  3.84931E-06 2.14415E-06 0.00000E+00 0.00000E+00 0.00000E+00 0.00000E+00 0.00000E+00 0.00000E+00 0.00000E+00 1.49215E-03 7.09121E-04 0.00000E+00
       15  1.65714E-06 2.06093E-06 0.00000E+00 0.00000E+00 0.00000E+00 0.00000E+00 0.00000E+00 0.00000E+00 0.00000E+00 6.71167E-04 1.50906E-03 0.00000E+00
       16  1.82055E-06 9.02211E-07 0.00000E+00 0.00000E+00 0.00000E+00 0.00000E+00 0.00000E+00 0.00000E+00 0.00000E+00 7.55458E-04 7.83239E-04 0.00000E+00
       17  5.56436E-06 4.99419E-06 0.00000E+00 0.00000E+00 0.00000E+00 0.00000E+00 0.00000E+00 0.00000E+00 0.00000E+00 1.74186E-03 1.77249E-03 0.00000E+00
       18  2.32301E-06 3.80758E-06 0.00000E+00 0.00000E+00 0.00000E+00 0.00000E+00 0.00000E+00 0.00000E+00 0.00000E+00 9.22454E-04 2.19491E-03 0.00000E+00
       19  5.92240E-06 2.67666E-06 0.00000E+00 0.00000E+00 0.00000E+00 0.00000E+00 0.00000E+00 0.00000E+00 0.00000E+00 2.16922E-03 9.53535E-04 0.00000E+00
      220  0.00000E+00 1.49976E-06-3.47231E-05 0.00000E+00 0.00000E+00 0.00000E+00 0.00000E+00 0.00000E+00 0.00000E+00 2.13900E-19 3.49400E-03 2.53653E-02
      221  7.27004E-08 1.02129E-06-3.47231E-05 0.00000E+00 0.00000E+00 0.00000E+00 0.00000E+00 0.00000E+00 0.00000E+00 1.47257E-03 3.31542E-03 2.53653E-02
      222  3.72020E-08 9.99560E-07-3.47231E-05 0.00000E+00 0.00000E+00 0.00000E+00 0.00000E+00 0.00000E+00 0.00000E+00 2.02384E-03 4.82020E-03 2.53653E-02
      223  0.00000E+00 2.11757E-06-3.47231E-05 0.00000E+00 0.00000E+00 0.00000E+00 0.00000E+00 0.00000E+00 0.00000E+00 3.20800E-19 5.24092E-03 2.53653E-02
      248  1.76858E-07 1.23945E-06-3.47231E-05 0.00000E+00 0.00000E+00 0.00000E+00 0.00000E+00 0.00000E+00 0.00000E+00 2.67358E-03 6.45444E-03 2.53653E-02
      249  0.00000E+00 2.52626E-06-3.47231E-05 0.00000E+00 0.00000E+00 0.00000E+00 0.00000E+00 0.00000E+00 0.00000E+00 4.27700E-19 6.98753E-03 2.53653E-02
      286 -2.22313E-08 9.89496E-07-3.47231E-05 0.00000E+00 0.00000E+00 0.00000E+00 0.00000E+00 0.00000E+00 0.00000E+00 3.27328E-03 1.55579E-03 2.53653E-02
      287  1.76413E-07 9.37095E-07-3.47231E-05 0.00000E+00 0.00000E+00 0.00000E+00 0.00000E+00 0.00000E+00 0.00000E+00 2.87788E-03 2.97434E-03 2.53653E-02
      288 -1.35479E-07 1.19468E-06-3.47231E-05 0.00000E+00 0.00000E+00 0.00000E+00 0.00000E+00 0.00000E+00 0.00000E+00 1.65756E-03 1.72199E-03 2.53653E-02
      301  1.80974E-07 1.42216E-06-3.47231E-05 0.00000E+00 0.00000E+00 0.00000E+00 0.00000E+00 0.00000E+00 0.00000E+00 3.81948E-03 3.88912E-03 2.53653E-02
      314  5.25466E-07 1.51642E-06-3.47231E-05 0.00000E+00 0.00000E+00 0.00000E+00 0.00000E+00 0.00000E+00 0.00000E+00 4.93963E-03 4.94062E-03 2.53653E-02
      363  1.80332E-07 1.39332E-06-3.47231E-05 0.00000E+00 0.00000E+00 0.00000E+00 0.00000E+00 0.00000E+00 0.00000E+00 6.45358E-03 2.67429E-03 2.53653E-02
      364 -8.63511E-08 1.43053E-06-3.47231E-05 0.00000E+00 0.00000E+00 0.00000E+00 0.00000E+00 0.00000E+00 0.00000E+00 4.75801E-03 2.09263E-03 2.53653E-02
      365  1.39349E-06 0.00000E+00-3.47231E-05 0.00000E+00 0.00000E+00 0.00000E+00 0.00000E+00 0.00000E+00 0.00000E+00 5.24019E-03 0.00000E+00 2.53653E-02
      366  1.20823E-06 0.00000E+00-3.47231E-05 0.00000E+00 0.00000E+00 0.00000E+00 0.00000E+00 0.00000E+00 0.00000E+00 6.98621E-03 0.00000E+00 2.53653E-02
      379  0.00000E+00 1.27705E-06-3.47231E-05 0.00000E+00 0.00000E+00 0.00000E+00 0.00000E+00 0.00000E+00 0.00000E+00 1.06900E-19 1.74758E-03 2.53653E-02
      404  1.28419E-06 0.00000E+00-3.47231E-05 0.00000E+00 0.00000E+00 0.00000E+00 0.00000E+00 0.00000E+00 0.00000E+00 1.74758E-03 0.00000E+00 2.53653E-02
      405  0.00000E+00 0.00000E+00-3.47231E-05 0.00000E+00 0.00000E+00 0.00000E+00 0.00000E+00 0.00000E+00 0.00000E+00 0.00000E+00 0.00000E+00 2.53653E-02
      418  1.56181E-06 0.00000E+00-3.47231E-05 0.00000E+00 0.00000E+00 0.00000E+00 0.00000E+00 0.00000E+00 0.00000E+00 3.49406E-03 0.00000E+00 2.53653E-02
      438  1.83311E-07 0.00000E+00-3.47231E-05 0.00000E+00 0.00000E+00 0.00000E+00 0.00000E+00 0.00000E+00 0.00000E+00 1.27002E-02 0.00000E+00 2.53653E-02
      439  3.39296E-07 0.00000E+00-3.47231E-05 0.00000E+00 0.00000E+00 0.00000E+00 0.00000E+00 0.00000E+00 0.00000E+00 1.18839E-02 0.00000E+00 2.53653E-02
      440  3.64554E-07 0.00000E+00-3.47231E-05 0.00000E+00 0.00000E+00 0.00000E+00 0.00000E+00 0.00000E+00 0.00000E+00 1.10675E-02 0.00000E+00 2.53653E-02
      441  3.93889E-07 0.00000E+00-3.47231E-05 0.00000E+00 0.00000E+00 0.00000E+00 0.00000E+00 0.00000E+00 0.00000E+00 1.02511E-02 0.00000E+00 2.53653E-02
      442  4.66798E-07 0.00000E+00-3.47231E-05 0.00000E+00 0.00000E+00 0.00000E+00 0.00000E+00 0.00000E+00 0.00000E+00 9.43477E-03 0.00000E+00 2.53653E-02
      443  5.69421E-07 0.00000E+00-3.47231E-05 0.00000E+00 0.00000E+00 0.00000E+00 0.00000E+00 0.00000E+00 0.00000E+00 8.61847E-03 0.00000E+00 2.53653E-02
      444  6.86821E-07 0.00000E+00-3.47231E-05 0.00000E+00 0.00000E+00 0.00000E+00 0.00000E+00 0.00000E+00 0.00000E+00 7.80209E-03 0.00000E+00 2.53653E-02
      591  4.91339E-07 1.51981E-06-3.47231E-05 0.00000E+00 0.00000E+00 0.00000E+00 0.00000E+00 0.00000E+00 0.00000E+00 7.97319E-03 3.27302E-03 2.53653E-02
      592  5.36250E-07 1.53742E-06-3.47231E-05 0.00000E+00 0.00000E+00 0.00000E+00 0.00000E+00 0.00000E+00 0.00000E+00 8.73284E-03 3.57234E-03 2.53653E-02
      595  4.90194E-07 1.28630E-06-3.47231E-05 0.00000E+00 0.00000E+00 0.00000E+00 0.00000E+00 0.00000E+00 0.00000E+00 6.09649E-03 6.09279E-03 2.53653E-02
      596  5.55263E-07 1.24819E-06-3.47231E-05 0.00000E+00 0.00000E+00 0.00000E+00 0.00000E+00 0.00000E+00 0.00000E+00 6.67506E-03 6.66885E-03 2.53653E-02
      599  3.34277E-07 1.34296E-06-3.47231E-05 0.00000E+00 0.00000E+00 0.00000E+00 0.00000E+00 0.00000E+00 0.00000E+00 3.27663E-03 7.97204E-03 2.53653E-02
      600  3.82277E-07 1.35232E-06-3.47231E-05 0.00000E+00 0.00000E+00 0.00000E+00 0.00000E+00 0.00000E+00 0.00000E+00 3.57818E-03 8.73085E-03 2.53653E-02
      603  0.00000E+00 2.11844E-06-3.47231E-05 0.00000E+00 0.00000E+00 0.00000E+00 0.00000E+00 0.00000E+00 0.00000E+00 5.27700E-19 8.62002E-03 2.53653E-02
      604  0.00000E+00 1.96766E-06-3.47231E-05 0.00000E+00 0.00000E+00 0.00000E+00 0.00000E+00 0.00000E+00 0.00000E+00 5.77700E-19 9.43627E-03 2.53653E-02
      638  6.49169E-07 1.52909E-06-3.47231E-05 0.00000E+00 0.00000E+00 0.00000E+00 0.00000E+00 0.00000E+00 0.00000E+00 1.02523E-02 4.17093E-03 2.53653E-02
      639  6.34795E-07 1.45775E-06-3.47231E-05 0.00000E+00 0.00000E+00 0.00000E+00 0.00000E+00 0.00000E+00 0.00000E+00 1.10119E-02 4.47016E-03 2.53653E-02
      641  7.04839E-07 1.19901E-06-3.47231E-05 0.00000E+00 0.00000E+00 0.00000E+00 0.00000E+00 0.00000E+00 0.00000E+00 7.83210E-03 7.82110E-03 2.53653E-02
      642  8.54780E-07 1.28972E-06-3.47231E-05 0.00000E+00 0.00000E+00 0.00000E+00 0.00000E+00 0.00000E+00 0.00000E+00 8.41075E-03 8.39729E-03 2.53653E-02
      644  4.03325E-07 1.21887E-06-3.47231E-05 0.00000E+00 0.00000E+00 0.00000E+00 0.00000E+00 0.00000E+00 0.00000E+00 4.18110E-03 1.02483E-02 2.53653E-02
      645  2.57864E-07 1.03310E-06-3.47231E-05 0.00000E+00 0.00000E+00 0.00000E+00 0.00000E+00 0.00000E+00 0.00000E+00 4.48246E-03 1.10068E-02 2.53653E-02
      647  0.00000E+00 1.93781E-06-3.47231E-05 0.00000E+00 0.00000E+00 0.00000E+00 0.00000E+00 0.00000E+00 0.00000E+00 6.77700E-19 1.10690E-02 2.53653E-02
      648  0.00000E+00 2.35378E-06-3.47231E-05 0.00000E+00 0.00000E+00 0.00000E+00 0.00000E+00 0.00000E+00 0.00000E+00 7.27700E-19 1.18860E-02 2.53653E-02
      674  4.50833E-07 1.53066E-06-3.47231E-05 0.00000E+00 0.00000E+00 0.00000E+00 0.00000E+00 0.00000E+00 0.00000E+00 7.21345E-03 2.97373E-03 2.53653E-02
      676  4.00115E-07 1.32140E-06-3.47231E-05 0.00000E+00 0.00000E+00 0.00000E+00 0.00000E+00 0.00000E+00 0.00000E+00 5.51800E-03 5.51662E-03 2.53653E-02
      678  2.68627E-07 1.34722E-06-3.47231E-05 0.00000E+00 0.00000E+00 0.00000E+00 0.00000E+00 0.00000E+00 0.00000E+00 2.97507E-03 7.21335E-03 2.53653E-02
      680  0.00000E+00 2.27010E-06-3.47231E-05 0.00000E+00 0.00000E+00 0.00000E+00 0.00000E+00 0.00000E+00 0.00000E+00 4.77700E-19 7.80367E-03 2.53653E-02
      821  5.99876E-07 1.54079E-06-3.47231E-05 0.00000E+00 0.00000E+00 0.00000E+00 0.00000E+00 0.00000E+00 0.00000E+00 9.49260E-03 3.87164E-03 2.53653E-02
      822  5.98168E-07 1.18629E-06-3.47231E-05 0.00000E+00 0.00000E+00 0.00000E+00 0.00000E+00 0.00000E+00 0.00000E+00 7.25350E-03 7.24499E-03 2.53653E-02
      823  4.59549E-07 1.37723E-06-3.47231E-05 0.00000E+00 0.00000E+00 0.00000E+00 0.00000E+00 0.00000E+00 0.00000E+00 3.87976E-03 9.48968E-03 2.53653E-02
      824  0.00000E+00 1.85554E-06-3.47231E-05 0.00000E+00 0.00000E+00 0.00000E+00 0.00000E+00 0.00000E+00 0.00000E+00 6.27700E-19 1.02526E-02 2.53653E-02
      850  3.78828E-07 1.30152E-06-3.47231E-05 0.00000E+00 0.00000E+00 0.00000E+00 0.00000E+00 0.00000E+00 0.00000E+00 1.17714E-02 4.76940E-03 2.53653E-02
      852  5.61229E-07 1.22120E-06-3.47231E-05 0.00000E+00 0.00000E+00 0.00000E+00 0.00000E+00 0.00000E+00 0.00000E+00 8.98886E-03 8.97342E-03 2.53653E-02
      854  2.90508E-08 1.26626E-06-3.47231E-05 0.00000E+00 0.00000E+00 0.00000E+00 0.00000E+00 0.00000E+00 0.00000E+00 4.78373E-03 1.17659E-02 2.53653E-02
      856  0.00000E+00 3.33504E-06-3.47231E-05 0.00000E+00 0.00000E+00 0.00000E+00 0.00000E+00 0.00000E+00 0.00000E+00 7.77700E-19 1.27033E-02 2.53653E-02



 n o d a l   p r i n t   o u t   f o r   t i m e  s t e p     359                              ( at time 4.3962396E+00 )

 nodal point  x-disp     y-disp      z-disp      x-vel       y-vel       z-vel      x-accl      y-accl      z-accl      x-coor      y-coor      z-coor
        1  1.07250E-05 0.00000E+00 0.00000E+00 0.00000E+00 0.00000E+00 0.00000E+00 0.00000E+00 0.00000E+00 0.00000E+00 3.18573E-03 0.00000E+00-1.78000E-18
        2  6.92463E-06 0.00000E+00 0.00000E+00 0.00000E+00 0.00000E+00 0.00000E+00 0.00000E+00 0.00000E+00 0.00000E+00 2.38822E-03 0.00000E+00 0.00000E+00
        3  4.50236E-06 0.00000E+00 0.00000E+00 0.00000E+00 0.00000E+00 0.00000E+00 0.00000E+00 0.00000E+00 0.00000E+00 1.59200E-03 0.00000E+00 0.00000E+00
        4  2.36599E-06 0.00000E+00 0.00000E+00 0.00000E+00 0.00000E+00 0.00000E+00 0.00000E+00 0.00000E+00 0.00000E+00 7.96116E-04 0.00000E+00 0.00000E+00
        5  0.00000E+00 0.00000E+00 0.00000E+00 0.00000E+00 0.00000E+00 0.00000E+00 0.00000E+00 0.00000E+00 0.00000E+00 0.00000E+00 0.00000E+00 0.00000E+00
        6  0.00000E+00 2.06046E-06 0.00000E+00 0.00000E+00 0.00000E+00 0.00000E+00 0.00000E+00 0.00000E+00 0.00000E+00 4.86000E-20 7.95810E-04 0.00000E+00
        7  0.00000E+00 4.69563E-06 0.00000E+00 0.00000E+00 0.00000E+00 0.00000E+00 0.00000E+00 0.00000E+00 0.00000E+00 9.72100E-20 1.59220E-03 0.00000E+00
        8  0.00000E+00 8.40554E-06 0.00000E+00 0.00000E+00 0.00000E+00 0.00000E+00 0.00000E+00 0.00000E+00 0.00000E+00 1.45800E-19 2.38971E-03 0.00000E+00
        9  0.00000E+00 1.27869E-05 0.00000E+00 0.00000E+00 0.00000E+00 0.00000E+00 0.00000E+00 0.00000E+00 0.00000E+00 1.94400E-19 3.18779E-03 0.00000E+00
       10  5.67776E-06 1.23135E-05 0.00000E+00 0.00000E+00 0.00000E+00 0.00000E+00 0.00000E+00 0.00000E+00 0.00000E+00 1.22068E-03 2.94561E-03 0.00000E+00
       11  1.20933E-05 1.24625E-05 0.00000E+00 0.00000E+00 0.00000E+00 0.00000E+00 0.00000E+00 0.00000E+00 0.00000E+00 2.25719E-03 2.25756E-03 0.00000E+00
       12  1.42692E-05 7.25176E-06 0.00000E+00 0.00000E+00 0.00000E+00 0.00000E+00 0.00000E+00 0.00000E+00 0.00000E+00 2.94757E-03 1.22225E-03 0.00000E+00
       13  7.14565E-06 7.20064E-06 0.00000E+00 0.00000E+00 0.00000E+00 0.00000E+00 0.00000E+00 0.00000E+00 0.00000E+00 1.31545E-03 1.35910E-03 0.00000E+00
       14  7.31266E-06 3.93677E-06 0.00000E+00 0.00000E+00 0.00000E+00 0.00000E+00 0.00000E+00 0.00000E+00 0.00000E+00 1.49561E-03 7.10914E-04 0.00000E+00
       15  3.30605E-06 4.92532E-06 0.00000E+00 0.00000E+00 0.00000E+00 0.00000E+00 0.00000E+00 0.00000E+00 0.00000E+00 6.72816E-04 1.51193E-03 0.00000E+00
       16  3.48493E-06 2.34010E-06 0.00000E+00 0.00000E+00 0.00000E+00 0.00000E+00 0.00000E+00 0.00000E+00 0.00000E+00 7.57123E-04 7.84677E-04 0.00000E+00
       17  1.00957E-05 9.05363E-06 0.00000E+00 0.00000E+00 0.00000E+00 0.00000E+00 0.00000E+00 0.00000E+00 0.00000E+00 1.74640E-03 1.77655E-03 0.00000E+00
       18  4.61731E-06 8.09851E-06 0.00000E+00 0.00000E+00 0.00000E+00 0.00000E+00 0.00000E+00 0.00000E+00 0.00000E+00 9.24748E-04 2.19920E-03 0.00000E+00
       19  1.09274E-05 4.83248E-06 0.00000E+00 0.00000E+00 0.00000E+00 0.00000E+00 0.00000E+00 0.00000E+00 0.00000E+00 2.17423E-03 9.55691E-04 0.00000E+00
      220  0.00000E+00 1.57403E-06-4.39624E-05 0.00000E+00 0.00000E+00 0.00000E+00 0.00000E+00 0.00000E+00 0.00000E+00 2.13900E-19 3.49407E-03 2.53560E-02
      221  1.01820E-07 1.00857E-06-4.39624E-05 0.00000E+00 0.00000E+00 0.00000E+00 0.00000E+00 0.00000E+00 0.00000E+00 1.47260E-03 3.31541E-03 2.53560E-02
      222  2.48800E-08 1.09452E-06-4.39624E-05 0.00000E+00 0.00000E+00 0.00000E+00 0.00000E+00 0.00000E+00 0.00000E+00 2.02382E-03 4.82029E-03 2.53560E-02
      223  0.00000E+00 2.30008E-06-4.39624E-05 0.00000E+00 0.00000E+00 0.00000E+00 0.00000E+00 0.00000E+00 0.00000E+00 3.20800E-19 5.24110E-03 2.53560E-02
      248  1.47740E-07 1.31587E-06-4.39624E-05 0.00000E+00 0.00000E+00 0.00000E+00 0.00000E+00 0.00000E+00 0.00000E+00 2.67355E-03 6.45452E-03 2.53560E-02
      249  0.00000E+00 2.79769E-06-4.39624E-05 0.00000E+00 0.00000E+00 0.00000E+00 0.00000E+00 0.00000E+00 0.00000E+00 4.27700E-19 6.98780E-03 2.53560E-02
      286 -8.71243E-08 9.71808E-07-4.39624E-05 0.00000E+00 0.00000E+00 0.00000E+00 0.00000E+00 0.00000E+00 0.00000E+00 3.27321E-03 1.55577E-03 2.53560E-02
      287  2.37651E-07 8.62884E-07-4.39624E-05 0.00000E+00 0.00000E+00 0.00000E+00 0.00000E+00 0.00000E+00 0.00000E+00 2.87794E-03 2.97426E-03 2.53560E-02
      288 -1.33861E-07 9.71544E-07-4.39624E-05 0.00000E+00 0.00000E+00 0.00000E+00 0.00000E+00 0.00000E+00 0.00000E+00 1.65757E-03 1.72177E-03 2.53560E-02
      301  1.36562E-07 1.34711E-06-4.39624E-05 0.00000E+00 0.00000E+00 0.00000E+00 0.00000E+00 0.00000E+00 0.00000E+00 3.81944E-03 3.88905E-03 2.53560E-02
      314  4.69338E-07 1.49809E-06-4.39624E-05 0.00000E+00 0.00000E+00 0.00000E+00 0.00000E+00 0.00000E+00 0.00000E+00 4.93957E-03 4.94060E-03 2.53560E-02
      363  1.51461E-07 1.35640E-06-4.39624E-05 0.00000E+00 0.00000E+00 0.00000E+00 0.00000E+00 0.00000E+00 0.00000E+00 6.45355E-03 2.67426E-03 2.53560E-02
      364 -1.55437E-07 1.46845E-06-4.39624E-05 0.00000E+00 0.00000E+00 0.00000E+00 0.00000E+00 0.00000E+00 0.00000E+00 4.75794E-03 2.09267E-03 2.53560E-02
      365  1.33532E-06 0.00000E+00-4.39624E-05 0.00000E+00 0.00000E+00 0.00000E+00 0.00000E+00 0.00000E+00 0.00000E+00 5.24014E-03 0.00000E+00 2.53560E-02
      366  1.06142E-06 0.00000E+00-4.39624E-05 0.00000E+00 0.00000E+00 0.00000E+00 0.00000E+00 0.00000E+00 0.00000E+00 6.98606E-03 0.00000E+00 2.53560E-02
      379  0.00000E+00 1.07363E-06-4.39624E-05 0.00000E+00 0.00000E+00 0.00000E+00 0.00000E+00 0.00000E+00 0.00000E+00 1.06900E-19 1.74737E-03 2.53560E-02
      404  1.21154E-06 0.00000E+00-4.39624E-05 0.00000E+00 0.00000E+00 0.00000E+00 0.00000E+00 0.00000E+00 0.00000E+00 1.74751E-03 0.00000E+00 2.53560E-02
      405  0.00000E+00 0.00000E+00-4.39624E-05 0.00000E+00 0.00000E+00 0.00000E+00 0.00000E+00 0.00000E+00 0.00000E+00 0.00000E+00 0.00000E+00 2.53560E-02
      418  1.63108E-06 0.00000E+00-4.39624E-05 0.00000E+00 0.00000E+00 0.00000E+00 0.00000E+00 0.00000E+00 0.00000E+00 3.49413E-03 0.00000E+00 2.53560E-02
      438  1.20506E-07 0.00000E+00-4.39624E-05 0.00000E+00 0.00000E+00 0.00000E+00 0.00000E+00 0.00000E+00 0.00000E+00 1.27001E-02 0.00000E+00 2.53560E-02
      439  2.77525E-07 0.00000E+00-4.39624E-05 0.00000E+00 0.00000E+00 0.00000E+00 0.00000E+00 0.00000E+00 0.00000E+00 1.18839E-02 0.00000E+00 2.53560E-02
      440  3.03404E-07 0.00000E+00-4.39624E-05 0.00000E+00 0.00000E+00 0.00000E+00 0.00000E+00 0.00000E+00 0.00000E+00 1.10674E-02 0.00000E+00 2.53560E-02
      441  3.35930E-07 0.00000E+00-4.39624E-05 0.00000E+00 0.00000E+00 0.00000E+00 0.00000E+00 0.00000E+00 0.00000E+00 1.02510E-02 0.00000E+00 2.53560E-02
      442  3.61773E-07 0.00000E+00-4.39624E-05 0.00000E+00 0.00000E+00 0.00000E+00 0.00000E+00 0.00000E+00 0.00000E+00 9.43466E-03 0.00000E+00 2.53560E-02
      443  4.22599E-07 0.00000E+00-4.39624E-05 0.00000E+00 0.00000E+00 0.00000E+00 0.00000E+00 0.00000E+00 0.00000E+00 8.61832E-03 0.00000E+00 2.53560E-02
      444  5.69928E-07 0.00000E+00-4.39624E-05 0.00000E+00 0.00000E+00 0.00000E+00 0.00000E+00 0.00000E+00 0.00000E+00 7.80197E-03 0.00000E+00 2.53560E-02
      591  4.25760E-07 1.47557E-06-4.39624E-05 0.00000E+00 0.00000E+00 0.00000E+00 0.00000E+00 0.00000E+00 0.00000E+00 7.97313E-03 3.27298E-03 2.53560E-02
      592  4.64799E-07 1.46413E-06-4.39624E-05 0.00000E+00 0.00000E+00 0.00000E+00 0.00000E+00 0.00000E+00 0.00000E+00 8.73276E-03 3.57226E-03 2.53560E-02
      595  4.57921E-07 1.32133E-06-4.39624E-05 0.00000E+00 0.00000E+00 0.00000E+00 0.00000E+00 0.00000E+00 0.00000E+00 6.09646E-03 6.09282E-03 2.53560E-02
      596  5.29776E-07 1.29136E-06-4.39624E-05 0.00000E+00 0.00000E+00 0.00000E+00 0.00000E+00 0.00000E+00 0.00000E+00 6.67503E-03 6.66889E-03 2.53560E-02
      599  3.20472E-07 1.41642E-06-4.39624E-05 0.00000E+00 0.00000E+00 0.00000E+00 0.00000E+00 0.00000E+00 0.00000E+00 3.27662E-03 7.97212E-03 2.53560E-02
      600  3.74114E-07 1.38805E-06-4.39624E-05 0.00000E+00 0.00000E+00 0.00000E+00 0.00000E+00 0.00000E+00 0.00000E+00 3.57817E-03 8.73089E-03 2.53560E-02
      603  0.00000E+00 2.12417E-06-4.39624E-05 0.00000E+00 0.00000E+00 0.00000E+00 0.00000E+00 0.00000E+00 0.00000E+00 5.27700E-19 8.62002E-03 2.53560E-02
      604  0.00000E+00 1.93634E-06-4.39624E-05 0.00000E+00 0.00000E+00 0.00000E+00 0.00000E+00 0.00000E+00 0.00000E+00 5.77700E-19 9.43624E-03 2.53560E-02
      638  5.71758E-07 1.45689E-06-4.39624E-05 0.00000E+00 0.00000E+00 0.00000E+00 0.00000E+00 0.00000E+00 0.00000E+00 1.02523E-02 4.17086E-03 2.53560E-02
      639  5.58429E-07 1.39653E-06-4.39624E-05 0.00000E+00 0.00000E+00 0.00000E+00 0.00000E+00 0.00000E+00 0.00000E+00 1.10119E-02 4.47010E-03 2.53560E-02
      641  6.30902E-07 1.21274E-06-4.39624E-05 0.00000E+00 0.00000E+00 0.00000E+00 0.00000E+00 0.00000E+00 0.00000E+00 7.83203E-03 7.82111E-03 2.53560E-02
      642  7.85684E-07 1.29202E-06-4.39624E-05 0.00000E+00 0.00000E+00 0.00000E+00 0.00000E+00 0.00000E+00 0.00000E+00 8.41069E-03 8.39729E-03 2.53560E-02
      644  4.30080E-07 1.36412E-06-4.39624E-05 0.00000E+00 0.00000E+00 0.00000E+00 0.00000E+00 0.00000E+00 0.00000E+00 4.18113E-03 1.02485E-02 2.53560E-02
      645  2.84400E-07 1.13363E-06-4.39624E-05 0.00000E+00 0.00000E+00 0.00000E+00 0.00000E+00 0.00000E+00 0.00000E+00 4.48248E-03 1.10069E-02 2.53560E-02
      647  0.00000E+00 1.87077E-06-4.39624E-05 0.00000E+00 0.00000E+00 0.00000E+00 0.00000E+00 0.00000E+00 0.00000E+00 6.77700E-19 1.10690E-02 2.53560E-02
      648  0.00000E+00 2.38670E-06-4.39624E-05 0.00000E+00 0.00000E+00 0.00000E+00 0.00000E+00 0.00000E+00 0.00000E+00 7.27700E-19 1.18860E-02 2.53560E-02
      674  3.80058E-07 1.47843E-06-4.39624E-05 0.00000E+00 0.00000E+00 0.00000E+00 0.00000E+00 0.00000E+00 0.00000E+00 7.21338E-03 2.97368E-03 2.53560E-02
      676  3.78579E-07 1.35300E-06-4.39624E-05 0.00000E+00 0.00000E+00 0.00000E+00 0.00000E+00 0.00000E+00 0.00000E+00 5.51798E-03 5.51665E-03 2.53560E-02
      678  2.49616E-07 1.42128E-06-4.39624E-05 0.00000E+00 0.00000E+00 0.00000E+00 0.00000E+00 0.00000E+00 0.00000E+00 2.97505E-03 7.21342E-03 2.53560E-02
      680  0.00000E+00 2.40517E-06-4.39624E-05 0.00000E+00 0.00000E+00 0.00000E+00 0.00000E+00 0.00000E+00 0.00000E+00 4.77700E-19 7.80381E-03 2.53560E-02
      821  5.05555E-07 1.46317E-06-4.39624E-05 0.00000E+00 0.00000E+00 0.00000E+00 0.00000E+00 0.00000E+00 0.00000E+00 9.49251E-03 3.87156E-03 2.53560E-02
      822  5.90137E-07 1.25559E-06-4.39624E-05 0.00000E+00 0.00000E+00 0.00000E+00 0.00000E+00 0.00000E+00 0.00000E+00 7.25349E-03 7.24506E-03 2.53560E-02
      823  4.23935E-07 1.37176E-06-4.39624E-05 0.00000E+00 0.00000E+00 0.00000E+00 0.00000E+00 0.00000E+00 0.00000E+00 3.87972E-03 9.48967E-03 2.53560E-02
      824  0.00000E+00 1.83986E-06-4.39624E-05 0.00000E+00 0.00000E+00 0.00000E+00 0.00000E+00 0.00000E+00 0.00000E+00 6.27700E-19 1.02525E-02 2.53560E-02
      850  2.71495E-07 1.24919E-06-4.39624E-05 0.00000E+00 0.00000E+00 0.00000E+00 0.00000E+00 0.00000E+00 0.00000E+00 1.17713E-02 4.76935E-03 2.53560E-02
      852  4.41238E-07 1.20015E-06-4.39624E-05 0.00000E+00 0.00000E+00 0.00000E+00 0.00000E+00 0.00000E+00 0.00000E+00 8.98874E-03 8.97340E-03 2.53560E-02
      854  4.86498E-08 1.41194E-06-4.39624E-05 0.00000E+00 0.00000E+00 0.00000E+00 0.00000E+00 0.00000E+00 0.00000E+00 4.78375E-03 1.17660E-02 2.53560E-02
      856  0.00000E+00 3.46446E-06-4.39624E-05 0.00000E+00 0.00000E+00 0.00000E+00 0.00000E+00 0.00000E+00 0.00000E+00 7.77700E-19 1.27035E-02 2.53560E-02



 n o d a l   p r i n t   o u t   f o r   t i m e  s t e p     368                              ( at time 5.8605619E+00 )

 nodal point  x-disp     y-disp      z-disp      x-vel       y-vel       z-vel      x-accl      y-accl      z-accl      x-coor      y-coor      z-coor
        1  1.59006E-05 0.00000E+00 0.00000E+00 0.00000E+00 0.00000E+00 0.00000E+00 0.00000E+00 0.00000E+00 0.00000E+00 3.19090E-03 0.00000E+00-1.78000E-18
        2  1.01789E-05 0.00000E+00 0.00000E+00 0.00000E+00 0.00000E+00 0.00000E+00 0.00000E+00 0.00000E+00 0.00000E+00 2.39148E-03 0.00000E+00 0.00000E+00
        3  6.63870E-06 0.00000E+00 0.00000E+00 0.00000E+00 0.00000E+00 0.00000E+00 0.00000E+00 0.00000E+00 0.00000E+00 1.59414E-03 0.00000E+00 0.00000E+00
        4  3.57338E-06 0.00000E+00 0.00000E+00 0.00000E+00 0.00000E+00 0.00000E+00 0.00000E+00 0.00000E+00 0.00000E+00 7.97323E-04 0.00000E+00 0.00000E+00
        5  0.00000E+00 0.00000E+00 0.00000E+00 0.00000E+00 0.00000E+00 0.00000E+00 0.00000E+00 0.00000E+00 0.00000E+00 0.00000E+00 0.00000E+00 0.00000E+00
        6  0.00000E+00 3.38930E-06 0.00000E+00 0.00000E+00 0.00000E+00 0.00000E+00 0.00000E+00 0.00000E+00 0.00000E+00 4.86000E-20 7.97139E-04 0.00000E+00
        7  0.00000E+00 7.43800E-06 0.00000E+00 0.00000E+00 0.00000E+00 0.00000E+00 0.00000E+00 0.00000E+00 0.00000E+00 9.72100E-20 1.59494E-03 0.00000E+00
        8  0.00000E+00 1.28289E-05 0.00000E+00 0.00000E+00 0.00000E+00 0.00000E+00 0.00000E+00 0.00000E+00 0.00000E+00 1.45800E-19 2.39413E-03 0.00000E+00
        9  0.00000E+00 1.90523E-05 0.00000E+00 0.00000E+00 0.00000E+00 0.00000E+00 0.00000E+00 0.00000E+00 0.00000E+00 1.94400E-19 3.19405E-03 0.00000E+00
       10  8.51081E-06 1.83561E-05 0.00000E+00 0.00000E+00 0.00000E+00 0.00000E+00 0.00000E+00 0.00000E+00 0.00000E+00 1.22351E-03 2.95166E-03 0.00000E+00
       11  1.78276E-05 1.82614E-05 0.00000E+00 0.00000E+00 0.00000E+00 0.00000E+00 0.00000E+00 0.00000E+00 0.00000E+00 2.26293E-03 2.26336E-03 0.00000E+00
       12  2.10817E-05 1.06447E-05 0.00000E+00 0.00000E+00 0.00000E+00 0.00000E+00 0.00000E+00 0.00000E+00 0.00000E+00 2.95438E-03 1.22564E-03 0.00000E+00
       13  1.08123E-05 1.08859E-05 0.00000E+00 0.00000E+00 0.00000E+00 0.00000E+00 0.00000E+00 0.00000E+00 0.00000E+00 1.31911E-03 1.36279E-03 0.00000E+00
       14  1.10453E-05 6.02565E-06 0.00000E+00 0.00000E+00 0.00000E+00 0.00000E+00 0.00000E+00 0.00000E+00 0.00000E+00 1.49935E-03 7.13003E-04 0.00000E+00
       15  5.08045E-06 7.77634E-06 0.00000E+00 0.00000E+00 0.00000E+00 0.00000E+00 0.00000E+00 0.00000E+00 0.00000E+00 6.74591E-04 1.51478E-03 0.00000E+00
       16  5.32073E-06 3.79838E-06 0.00000E+00 0.00000E+00 0.00000E+00 0.00000E+00 0.00000E+00 0.00000E+00 0.00000E+00 7.58958E-04 7.86136E-04 0.00000E+00
       17  1.49595E-05 1.36716E-05 0.00000E+00 0.00000E+00 0.00000E+00 0.00000E+00 0.00000E+00 0.00000E+00 0.00000E+00 1.75126E-03 1.78117E-03 0.00000E+00
       18  6.91696E-06 1.24074E-05 0.00000E+00 0.00000E+00 0.00000E+00 0.00000E+00 0.00000E+00 0.00000E+00 0.00000E+00 9.27048E-04 2.20351E-03 0.00000E+00
       19  1.62893E-05 7.37436E-06 0.00000E+00 0.00000E+00 0.00000E+00 0.00000E+00 0.00000E+00 0.00000E+00 0.00000E+00 2.17959E-03 9.58233E-04 0.00000E+00
      220  0.00000E+00 1.91907E-06-5.86056E-05 0.00000E+00 0.00000E+00 0.00000E+00 0.00000E+00 0.00000E+00 0.00000E+00 2.13900E-19 3.49442E-03 2.53414E-02
      221  1.84630E-07 1.22717E-06-5.86056E-05 0.00000E+00 0.00000E+00 0.00000E+00 0.00000E+00 0.00000E+00 0.00000E+00 1.47268E-03 3.31563E-03 2.53414E-02
      222  9.71291E-08 1.30578E-06-5.86056E-05 0.00000E+00 0.00000E+00 0.00000E+00 0.00000E+00 0.00000E+00 0.00000E+00 2.02390E-03 4.82051E-03 2.53414E-02
      223  0.00000E+00 2.73132E-06-5.86056E-05 0.00000E+00 0.00000E+00 0.00000E+00 0.00000E+00 0.00000E+00 0.00000E+00 3.20800E-19 5.24153E-03 2.53414E-02
      248  2.22365E-07 1.54187E-06-5.86056E-05 0.00000E+00 0.00000E+00 0.00000E+00 0.00000E+00 0.00000E+00 0.00000E+00 2.67362E-03 6.45474E-03 2.53414E-02
      249  0.00000E+00 3.17718E-06-5.86056E-05 0.00000E+00 0.00000E+00 0.00000E+00 0.00000E+00 0.00000E+00 0.00000E+00 4.27700E-19 6.98818E-03 2.53414E-02
      286 -9.81680E-08 1.10016E-06-5.86056E-05 0.00000E+00 0.00000E+00 0.00000E+00 0.00000E+00 0.00000E+00 0.00000E+00 3.27320E-03 1.55590E-03 2.53414E-02
      287  4.10935E-07 8.64035E-07-5.86056E-05 0.00000E+00 0.00000E+00 0.00000E+00 0.00000E+00 0.00000E+00 0.00000E+00 2.87811E-03 2.97426E-03 2.53414E-02
      288 -6.80161E-09 9.79359E-07-5.86056E-05 0.00000E+00 0.00000E+00 0.00000E+00 0.00000E+00 0.00000E+00 0.00000E+00 1.65769E-03 1.72178E-03 2.53414E-02
      301  2.66662E-07 1.54968E-06-5.86056E-05 0.00000E+00 0.00000E+00 0.00000E+00 0.00000E+00 0.00000E+00 0.00000E+00 3.81957E-03 3.88925E-03 2.53414E-02
      314  6.57835E-07 1.72757E-06-5.86056E-05 0.00000E+00 0.00000E+00 0.00000E+00 0.00000E+00 0.00000E+00 0.00000E+00 4.93976E-03 4.94083E-03 2.53414E-02
      363  3.13561E-07 1.56381E-06-5.86056E-05 0.00000E+00 0.00000E+00 0.00000E+00 0.00000E+00 0.00000E+00 0.00000E+00 6.45371E-03 2.67446E-03 2.53414E-02
      364 -2.01818E-07 1.63507E-06-5.86056E-05 0.00000E+00 0.00000E+00 0.00000E+00 0.00000E+00 0.00000E+00 0.00000E+00 4.75790E-03 2.09284E-03 2.53414E-02
      365  2.10080E-06 0.00000E+00-5.86056E-05 0.00000E+00 0.00000E+00 0.00000E+00 0.00000E+00 0.00000E+00 0.00000E+00 5.24090E-03 0.00000E+00 2.53414E-02
      366  1.55988E-06 0.00000E+00-5.86056E-05 0.00000E+00 0.00000E+00 0.00000E+00 0.00000E+00 0.00000E+00 0.00000E+00 6.98656E-03 0.00000E+00 2.53414E-02
      379  0.00000E+00 1.32713E-06-5.86056E-05 0.00000E+00 0.00000E+00 0.00000E+00 0.00000E+00 0.00000E+00 0.00000E+00 1.06900E-19 1.74763E-03 2.53414E-02
      404  2.24581E-06 0.00000E+00-5.86056E-05 0.00000E+00 0.00000E+00 0.00000E+00 0.00000E+00 0.00000E+00 0.00000E+00 1.74855E-03 0.00000E+00 2.53414E-02
      405  0.00000E+00 0.00000E+00-5.86056E-05 0.00000E+00 0.00000E+00 0.00000E+00 0.00000E+00 0.00000E+00 0.00000E+00 0.00000E+00 0.00000E+00 2.53414E-02
      418  2.93376E-06 0.00000E+00-5.86056E-05 0.00000E+00 0.00000E+00 0.00000E+00 0.00000E+00 0.00000E+00 0.00000E+00 3.49543E-03 0.00000E+00 2.53414E-02
      438  4.26213E-07 0.00000E+00-5.86056E-05 0.00000E+00 0.00000E+00 0.00000E+00 0.00000E+00 0.00000E+00 0.00000E+00 1.27004E-02 0.00000E+00 2.53414E-02
      439  5.87842E-07 0.00000E+00-5.86056E-05 0.00000E+00 0.00000E+00 0.00000E+00 0.00000E+00 0.00000E+00 0.00000E+00 1.18842E-02 0.00000E+00 2.53414E-02
      440  6.19944E-07 0.00000E+00-5.86056E-05 0.00000E+00 0.00000E+00 0.00000E+00 0.00000E+00 0.00000E+00 0.00000E+00 1.10677E-02 0.00000E+00 2.53414E-02
      441  6.55520E-07 0.00000E+00-5.86056E-05 0.00000E+00 0.00000E+00 0.00000E+00 0.00000E+00 0.00000E+00 0.00000E+00 1.02514E-02 0.00000E+00 2.53414E-02
      442  6.87523E-07 0.00000E+00-5.86056E-05 0.00000E+00 0.00000E+00 0.00000E+00 0.00000E+00 0.00000E+00 0.00000E+00 9.43499E-03 0.00000E+00 2.53414E-02
      443  7.59713E-07 0.00000E+00-5.86056E-05 0.00000E+00 0.00000E+00 0.00000E+00 0.00000E+00 0.00000E+00 0.00000E+00 8.61866E-03 0.00000E+00 2.53414E-02
      444  9.39199E-07 0.00000E+00-5.86056E-05 0.00000E+00 0.00000E+00 0.00000E+00 0.00000E+00 0.00000E+00 0.00000E+00 7.80234E-03 0.00000E+00 2.53414E-02
      591  6.56644E-07 1.68763E-06-5.86056E-05 0.00000E+00 0.00000E+00 0.00000E+00 0.00000E+00 0.00000E+00 0.00000E+00 7.97336E-03 3.27319E-03 2.53414E-02
      592  7.07215E-07 1.67006E-06-5.86056E-05 0.00000E+00 0.00000E+00 0.00000E+00 0.00000E+00 0.00000E+00 0.00000E+00 8.73301E-03 3.57247E-03 2.53414E-02
      595  6.16590E-07 1.52884E-06-5.86056E-05 0.00000E+00 0.00000E+00 0.00000E+00 0.00000E+00 0.00000E+00 0.00000E+00 6.09662E-03 6.09303E-03 2.53414E-02
      596  6.99997E-07 1.49854E-06-5.86056E-05 0.00000E+00 0.00000E+00 0.00000E+00 0.00000E+00 0.00000E+00 0.00000E+00 6.67520E-03 6.66910E-03 2.53414E-02
      599  4.04506E-07 1.68335E-06-5.86056E-05 0.00000E+00 0.00000E+00 0.00000E+00 0.00000E+00 0.00000E+00 0.00000E+00 3.27670E-03 7.97238E-03 2.53414E-02
      600  4.64998E-07 1.66366E-06-5.86056E-05 0.00000E+00 0.00000E+00 0.00000E+00 0.00000E+00 0.00000E+00 0.00000E+00 3.57826E-03 8.73116E-03 2.53414E-02
      603  0.00000E+00 2.47079E-06-5.86056E-05 0.00000E+00 0.00000E+00 0.00000E+00 0.00000E+00 0.00000E+00 0.00000E+00 5.27700E-19 8.62037E-03 2.53414E-02
      604  0.00000E+00 2.29330E-06-5.86056E-05 0.00000E+00 0.00000E+00 0.00000E+00 0.00000E+00 0.00000E+00 0.00000E+00 5.77700E-19 9.43659E-03 2.53414E-02
      638  8.38639E-07 1.65733E-06-5.86056E-05 0.00000E+00 0.00000E+00 0.00000E+00 0.00000E+00 0.00000E+00 0.00000E+00 1.02525E-02 4.17106E-03 2.53414E-02
      639  8.34810E-07 1.60069E-06-5.86056E-05 0.00000E+00 0.00000E+00 0.00000E+00 0.00000E+00 0.00000E+00 0.00000E+00 1.10121E-02 4.47030E-03 2.53414E-02
      641  8.31599E-07 1.44194E-06-5.86056E-05 0.00000E+00 0.00000E+00 0.00000E+00 0.00000E+00 0.00000E+00 0.00000E+00 7.83223E-03 7.82134E-03 2.53414E-02
      642  1.00197E-06 1.53093E-06-5.86056E-05 0.00000E+00 0.00000E+00 0.00000E+00 0.00000E+00 0.00000E+00 0.00000E+00 8.41090E-03 8.39753E-03 2.53414E-02
      644  5.17459E-07 1.64045E-06-5.86056E-05 0.00000E+00 0.00000E+00 0.00000E+00 0.00000E+00 0.00000E+00 0.00000E+00 4.18122E-03 1.02487E-02 2.53414E-02
      645  3.71784E-07 1.40615E-06-5.86056E-05 0.00000E+00 0.00000E+00 0.00000E+00 0.00000E+00 0.00000E+00 0.00000E+00 4.48257E-03 1.10072E-02 2.53414E-02
      647  0.00000E+00 2.23465E-06-5.86056E-05 0.00000E+00 0.00000E+00 0.00000E+00 0.00000E+00 0.00000E+00 0.00000E+00 6.77700E-19 1.10693E-02 2.53414E-02
      648  0.00000E+00 2.75485E-06-5.86056E-05 0.00000E+00 0.00000E+00 0.00000E+00 0.00000E+00 0.00000E+00 0.00000E+00 7.27700E-19 1.18864E-02 2.53414E-02
      674  6.00681E-07 1.69562E-06-5.86056E-05 0.00000E+00 0.00000E+00 0.00000E+00 0.00000E+00 0.00000E+00 0.00000E+00 7.21360E-03 2.97390E-03 2.53414E-02
      676  5.27388E-07 1.55957E-06-5.86056E-05 0.00000E+00 0.00000E+00 0.00000E+00 0.00000E+00 0.00000E+00 0.00000E+00 5.51813E-03 5.51686E-03 2.53414E-02
      678  3.28296E-07 1.68216E-06-5.86056E-05 0.00000E+00 0.00000E+00 0.00000E+00 0.00000E+00 0.00000E+00 0.00000E+00 2.97513E-03 7.21368E-03 2.53414E-02
      680  0.00000E+00 2.73885E-06-5.86056E-05 0.00000E+00 0.00000E+00 0.00000E+00 0.00000E+00 0.00000E+00 0.00000E+00 4.77700E-19 7.80414E-03 2.53414E-02
      821  7.64753E-07 1.66276E-06-5.86056E-05 0.00000E+00 0.00000E+00 0.00000E+00 0.00000E+00 0.00000E+00 0.00000E+00 9.49276E-03 3.87176E-03 2.53414E-02
      822  7.73602E-07 1.46842E-06-5.86056E-05 0.00000E+00 0.00000E+00 0.00000E+00 0.00000E+00 0.00000E+00 0.00000E+00 7.25367E-03 7.24527E-03 2.53414E-02
      823  5.13282E-07 1.65474E-06-5.86056E-05 0.00000E+00 0.00000E+00 0.00000E+00 0.00000E+00 0.00000E+00 0.00000E+00 3.87981E-03 9.48995E-03 2.53414E-02
      824  0.00000E+00 2.17334E-06-5.86056E-05 0.00000E+00 0.00000E+00 0.00000E+00 0.00000E+00 0.00000E+00 0.00000E+00 6.27700E-19 1.02529E-02 2.53414E-02
      850  5.51500E-07 1.45573E-06-5.86056E-05 0.00000E+00 0.00000E+00 0.00000E+00 0.00000E+00 0.00000E+00 0.00000E+00 1.17716E-02 4.76956E-03 2.53414E-02
      852  6.72881E-07 1.45932E-06-5.86056E-05 0.00000E+00 0.00000E+00 0.00000E+00 0.00000E+00 0.00000E+00 0.00000E+00 8.98897E-03 8.97366E-03 2.53414E-02
      854  1.26478E-07 1.67646E-06-5.86056E-05 0.00000E+00 0.00000E+00 0.00000E+00 0.00000E+00 0.00000E+00 0.00000E+00 4.78383E-03 1.17663E-02 2.53414E-02
      856  0.00000E+00 3.86412E-06-5.86056E-05 0.00000E+00 0.00000E+00 0.00000E+00 0.00000E+00 0.00000E+00 0.00000E+00 7.77700E-19 1.27039E-02 2.53414E-02



 n o d a l   p r i n t   o u t   f o r   t i m e  s t e p     374                              ( at time 7.3248842E+00 )

 nodal point  x-disp     y-disp      z-disp      x-vel       y-vel       z-vel      x-accl      y-accl      z-accl      x-coor      y-coor      z-coor
        1  2.59206E-05 0.00000E+00 0.00000E+00 0.00000E+00 0.00000E+00 0.00000E+00 0.00000E+00 0.00000E+00 0.00000E+00 3.20092E-03 0.00000E+00-1.78000E-18
        2  1.72980E-05 0.00000E+00 0.00000E+00 0.00000E+00 0.00000E+00 0.00000E+00 0.00000E+00 0.00000E+00 0.00000E+00 2.39860E-03 0.00000E+00 0.00000E+00
        3  1.13606E-05 0.00000E+00 0.00000E+00 0.00000E+00 0.00000E+00 0.00000E+00 0.00000E+00 0.00000E+00 0.00000E+00 1.59886E-03 0.00000E+00 0.00000E+00
        4  6.00906E-06 0.00000E+00 0.00000E+00 0.00000E+00 0.00000E+00 0.00000E+00 0.00000E+00 0.00000E+00 0.00000E+00 7.99759E-04 0.00000E+00 0.00000E+00
        5  0.00000E+00 0.00000E+00 0.00000E+00 0.00000E+00 0.00000E+00 0.00000E+00 0.00000E+00 0.00000E+00 0.00000E+00 0.00000E+00 0.00000E+00 0.00000E+00
        6  0.00000E+00 5.82557E-06 0.00000E+00 0.00000E+00 0.00000E+00 0.00000E+00 0.00000E+00 0.00000E+00 0.00000E+00 4.86000E-20 7.99576E-04 0.00000E+00
        7  0.00000E+00 1.23056E-05 0.00000E+00 0.00000E+00 0.00000E+00 0.00000E+00 0.00000E+00 0.00000E+00 0.00000E+00 9.72100E-20 1.59981E-03 0.00000E+00
        8  0.00000E+00 2.03527E-05 0.00000E+00 0.00000E+00 0.00000E+00 0.00000E+00 0.00000E+00 0.00000E+00 0.00000E+00 1.45800E-19 2.40165E-03 0.00000E+00
        9  0.00000E+00 2.93860E-05 0.00000E+00 0.00000E+00 0.00000E+00 0.00000E+00 0.00000E+00 0.00000E+00 0.00000E+00 1.94400E-19 3.20439E-03 0.00000E+00
       10  1.29956E-05 2.81153E-05 0.00000E+00 0.00000E+00 0.00000E+00 0.00000E+00 0.00000E+00 0.00000E+00 0.00000E+00 1.22800E-03 2.96142E-03 0.00000E+00
       11  2.57945E-05 2.60000E-05 0.00000E+00 0.00000E+00 0.00000E+00 0.00000E+00 0.00000E+00 0.00000E+00 0.00000E+00 2.27089E-03 2.27110E-03 0.00000E+00
       12  3.09822E-05 1.50786E-05 0.00000E+00 0.00000E+00 0.00000E+00 0.00000E+00 0.00000E+00 0.00000E+00 0.00000E+00 2.96428E-03 1.23008E-03 0.00000E+00
       13  1.58868E-05 1.57546E-05 0.00000E+00 0.00000E+00 0.00000E+00 0.00000E+00 0.00000E+00 0.00000E+00 0.00000E+00 1.32419E-03 1.36765E-03 0.00000E+00
       14  1.64881E-05 8.77726E-06 0.00000E+00 0.00000E+00 0.00000E+00 0.00000E+00 0.00000E+00 0.00000E+00 0.00000E+00 1.50479E-03 7.15754E-04 0.00000E+00
       15  7.72707E-06 1.26578E-05 0.00000E+00 0.00000E+00 0.00000E+00 0.00000E+00 0.00000E+00 0.00000E+00 0.00000E+00 6.77237E-04 1.51966E-03 0.00000E+00
       16  8.07521E-06 6.33490E-06 0.00000E+00 0.00000E+00 0.00000E+00 0.00000E+00 0.00000E+00 0.00000E+00 0.00000E+00 7.61713E-04 7.88672E-04 0.00000E+00
       17  2.15397E-05 1.98968E-05 0.00000E+00 0.00000E+00 0.00000E+00 0.00000E+00 0.00000E+00 0.00000E+00 0.00000E+00 1.75784E-03 1.78740E-03 0.00000E+00
       18  1.04214E-05 1.95464E-05 0.00000E+00 0.00000E+00 0.00000E+00 0.00000E+00 0.00000E+00 0.00000E+00 0.00000E+00 9.30552E-04 2.21065E-03 0.00000E+00
       19  2.39553E-05 1.07697E-05 0.00000E+00 0.00000E+00 0.00000E+00 0.00000E+00 0.00000E+00 0.00000E+00 0.00000E+00 2.18726E-03 9.61628E-04 0.00000E+00
[...]
      220  0.00000E+00 1.68056E-06-9.51367E-04 0.00000E+00 0.00000E+00 0.00000E+00 0.00000E+00 0.00000E+00 0.00000E+00 2.13900E-19 3.49418E-03 2.44486E-02
      221  3.11630E-07 7.18120E-07-9.51367E-04 0.00000E+00 0.00000E+00 0.00000E+00 0.00000E+00 0.00000E+00 0.00000E+00 1.47281E-03 3.31512E-03 2.44486E-02
      222  2.28101E-07 7.77929E-07-9.51367E-04 0.00000E+00 0.00000E+00 0.00000E+00 0.00000E+00 0.00000E+00 0.00000E+00 2.02403E-03 4.81998E-03 2.44486E-02
      223  0.00000E+00 2.19355E-06-9.51367E-04 0.00000E+00 0.00000E+00 0.00000E+00 0.00000E+00 0.00000E+00 0.00000E+00 3.20800E-19 5.24099E-03 2.44486E-02
      248  2.80115E-07 1.15405E-06-9.51367E-04 0.00000E+00 0.00000E+00 0.00000E+00 0.00000E+00 0.00000E+00 0.00000E+00 2.67368E-03 6.45435E-03 2.44486E-02
      249  0.00000E+00 2.28187E-06-9.51367E-04 0.00000E+00 0.00000E+00 0.00000E+00 0.00000E+00 0.00000E+00 0.00000E+00 4.27700E-19 6.98728E-03 2.44486E-02
      286  1.20224E-07 3.72821E-07-9.51367E-04 0.00000E+00 0.00000E+00 0.00000E+00 0.00000E+00 0.00000E+00 0.00000E+00 3.27342E-03 1.55517E-03 2.44486E-02
      287  4.80639E-07-2.02195E-07-9.51367E-04 0.00000E+00 0.00000E+00 0.00000E+00 0.00000E+00 0.00000E+00 0.00000E+00 2.87818E-03 2.97320E-03 2.44486E-02
      288  1.19978E-07 1.55760E-08-9.51367E-04 0.00000E+00 0.00000E+00 0.00000E+00 0.00000E+00 0.00000E+00 0.00000E+00 1.65782E-03 1.72082E-03 2.44486E-02
      301  2.74884E-07 5.97719E-07-9.51367E-04 0.00000E+00 0.00000E+00 0.00000E+00 0.00000E+00 0.00000E+00 0.00000E+00 3.81957E-03 3.88830E-03 2.44486E-02
      314  4.98165E-07 9.07285E-07-9.51367E-04 0.00000E+00 0.00000E+00 0.00000E+00 0.00000E+00 0.00000E+00 0.00000E+00 4.93960E-03 4.94001E-03 2.44486E-02
      363  4.98534E-07 9.14114E-07-9.51367E-04 0.00000E+00 0.00000E+00 0.00000E+00 0.00000E+00 0.00000E+00 0.00000E+00 6.45390E-03 2.67381E-03 2.44486E-02
      364  2.00022E-07 8.29016E-07-9.51367E-04 0.00000E+00 0.00000E+00 0.00000E+00 0.00000E+00 0.00000E+00 0.00000E+00 4.75830E-03 2.09203E-03 2.44486E-02
      365  1.86310E-06 0.00000E+00-9.51367E-04 0.00000E+00 0.00000E+00 0.00000E+00 0.00000E+00 0.00000E+00 0.00000E+00 5.24066E-03 0.00000E+00 2.44486E-02
      366  1.20244E-06 0.00000E+00-9.51367E-04 0.00000E+00 0.00000E+00 0.00000E+00 0.00000E+00 0.00000E+00 0.00000E+00 6.98620E-03 0.00000E+00 2.44486E-02
      379  0.00000E+00 6.74560E-07-9.51367E-04 0.00000E+00 0.00000E+00 0.00000E+00 0.00000E+00 0.00000E+00 0.00000E+00 1.06900E-19 1.74697E-03 2.44486E-02
      404  2.53206E-06 0.00000E+00-9.51367E-04 0.00000E+00 0.00000E+00 0.00000E+00 0.00000E+00 0.00000E+00 0.00000E+00 1.74883E-03 0.00000E+00 2.44486E-02
      405  0.00000E+00 0.00000E+00-9.51367E-04 0.00000E+00 0.00000E+00 0.00000E+00 0.00000E+00 0.00000E+00 0.00000E+00 0.00000E+00 0.00000E+00 2.44486E-02
      418  2.97112E-06 0.00000E+00-9.51367E-04 0.00000E+00 0.00000E+00 0.00000E+00 0.00000E+00 0.00000E+00 0.00000E+00 3.49547E-03 0.00000E+00 2.44486E-02
      438  4.12632E-07 0.00000E+00-9.51367E-04 0.00000E+00 0.00000E+00 0.00000E+00 0.00000E+00 0.00000E+00 0.00000E+00 1.27004E-02 0.00000E+00 2.44486E-02
      439  4.72731E-07 0.00000E+00-9.51367E-04 0.00000E+00 0.00000E+00 0.00000E+00 0.00000E+00 0.00000E+00 0.00000E+00 1.18841E-02 0.00000E+00 2.44486E-02
      440  5.16598E-07 0.00000E+00-9.51367E-04 0.00000E+00 0.00000E+00 0.00000E+00 0.00000E+00 0.00000E+00 0.00000E+00 1.10676E-02 0.00000E+00 2.44486E-02
      441  5.73633E-07 0.00000E+00-9.51367E-04 0.00000E+00 0.00000E+00 0.00000E+00 0.00000E+00 0.00000E+00 0.00000E+00 1.02513E-02 0.00000E+00 2.44486E-02
      442  6.14163E-07 0.00000E+00-9.51367E-04 0.00000E+00 0.00000E+00 0.00000E+00 0.00000E+00 0.00000E+00 0.00000E+00 9.43491E-03 0.00000E+00 2.44486E-02
      443  6.40293E-07 0.00000E+00-9.51367E-04 0.00000E+00 0.00000E+00 0.00000E+00 0.00000E+00 0.00000E+00 0.00000E+00 8.61854E-03 0.00000E+00 2.44486E-02
      444  8.35030E-07 0.00000E+00-9.51367E-04 0.00000E+00 0.00000E+00 0.00000E+00 0.00000E+00 0.00000E+00 0.00000E+00 7.80224E-03 0.00000E+00 2.44486E-02
      591  6.42169E-07 8.73298E-07-9.51367E-04 0.00000E+00 0.00000E+00 0.00000E+00 0.00000E+00 0.00000E+00 0.00000E+00 7.97334E-03 3.27237E-03 2.44486E-02
      592  6.31684E-07 7.85454E-07-9.51367E-04 0.00000E+00 0.00000E+00 0.00000E+00 0.00000E+00 0.00000E+00 0.00000E+00 8.73293E-03 3.57159E-03 2.44486E-02
      595  4.18597E-07 7.81907E-07-9.51367E-04 0.00000E+00 0.00000E+00 0.00000E+00 0.00000E+00 0.00000E+00 0.00000E+00 6.09642E-03 6.09228E-03 2.44486E-02
      596  4.76625E-07 7.72642E-07-9.51367E-04 0.00000E+00 0.00000E+00 0.00000E+00 0.00000E+00 0.00000E+00 0.00000E+00 6.67498E-03 6.66837E-03 2.44486E-02
      599  3.18709E-07 1.13225E-06-9.51367E-04 0.00000E+00 0.00000E+00 0.00000E+00 0.00000E+00 0.00000E+00 0.00000E+00 3.27662E-03 7.97183E-03 2.44486E-02
      600  3.03295E-07 1.03960E-06-9.51367E-04 0.00000E+00 0.00000E+00 0.00000E+00 0.00000E+00 0.00000E+00 0.00000E+00 3.57810E-03 8.73054E-03 2.44486E-02
      603  0.00000E+00 1.95856E-06-9.51367E-04 0.00000E+00 0.00000E+00 0.00000E+00 0.00000E+00 0.00000E+00 0.00000E+00 5.27700E-19 8.61986E-03 2.44486E-02
      604  0.00000E+00 1.83468E-06-9.51367E-04 0.00000E+00 0.00000E+00 0.00000E+00 0.00000E+00 0.00000E+00 0.00000E+00 5.77700E-19 9.43613E-03 2.44486E-02
      638  6.98386E-07 7.34338E-07-9.51367E-04 0.00000E+00 0.00000E+00 0.00000E+00 0.00000E+00 0.00000E+00 0.00000E+00 1.02524E-02 4.17013E-03 2.44486E-02
      639  6.83198E-07 7.09949E-07-9.51367E-04 0.00000E+00 0.00000E+00 0.00000E+00 0.00000E+00 0.00000E+00 0.00000E+00 1.10120E-02 4.46941E-03 2.44486E-02
      641  5.20378E-07 7.32110E-07-9.51367E-04 0.00000E+00 0.00000E+00 0.00000E+00 0.00000E+00 0.00000E+00 0.00000E+00 7.83192E-03 7.82063E-03 2.44486E-02
      642  6.74494E-07 8.49174E-07-9.51367E-04 0.00000E+00 0.00000E+00 0.00000E+00 0.00000E+00 0.00000E+00 0.00000E+00 8.41057E-03 8.39685E-03 2.44486E-02
      644  2.99963E-07 1.00555E-06-9.51367E-04 0.00000E+00 0.00000E+00 0.00000E+00 0.00000E+00 0.00000E+00 0.00000E+00 4.18100E-03 1.02481E-02 2.44486E-02
      645  1.23373E-07 8.33373E-07-9.51367E-04 0.00000E+00 0.00000E+00 0.00000E+00 0.00000E+00 0.00000E+00 0.00000E+00 4.48232E-03 1.10066E-02 2.44486E-02
      647  0.00000E+00 1.78365E-06-9.51367E-04 0.00000E+00 0.00000E+00 0.00000E+00 0.00000E+00 0.00000E+00 0.00000E+00 6.77700E-19 1.10689E-02 2.44486E-02
      648  0.00000E+00 2.01918E-06-9.51367E-04 0.00000E+00 0.00000E+00 0.00000E+00 0.00000E+00 0.00000E+00 0.00000E+00 7.27700E-19 1.18856E-02 2.44486E-02
      674  6.13055E-07 9.29231E-07-9.51367E-04 0.00000E+00 0.00000E+00 0.00000E+00 0.00000E+00 0.00000E+00 0.00000E+00 7.21361E-03 2.97313E-03 2.44486E-02
      676  3.89935E-07 8.17820E-07-9.51367E-04 0.00000E+00 0.00000E+00 0.00000E+00 0.00000E+00 0.00000E+00 0.00000E+00 5.51799E-03 5.51612E-03 2.44486E-02
      678  3.17539E-07 1.20941E-06-9.51367E-04 0.00000E+00 0.00000E+00 0.00000E+00 0.00000E+00 0.00000E+00 0.00000E+00 2.97512E-03 7.21321E-03 2.44486E-02
      680  0.00000E+00 2.05859E-06-9.51367E-04 0.00000E+00 0.00000E+00 0.00000E+00 0.00000E+00 0.00000E+00 0.00000E+00 4.77700E-19 7.80346E-03 2.44486E-02
      821  6.34785E-07 7.40016E-07-9.51367E-04 0.00000E+00 0.00000E+00 0.00000E+00 0.00000E+00 0.00000E+00 0.00000E+00 9.49263E-03 3.87084E-03 2.44486E-02
      822  4.91475E-07 7.54667E-07-9.51367E-04 0.00000E+00 0.00000E+00 0.00000E+00 0.00000E+00 0.00000E+00 0.00000E+00 7.25339E-03 7.24455E-03 2.44486E-02
      823  3.21244E-07 1.08771E-06-9.51367E-04 0.00000E+00 0.00000E+00 0.00000E+00 0.00000E+00 0.00000E+00 0.00000E+00 3.87962E-03 9.48939E-03 2.44486E-02
      824  0.00000E+00 1.73107E-06-9.51367E-04 0.00000E+00 0.00000E+00 0.00000E+00 0.00000E+00 0.00000E+00 0.00000E+00 6.27700E-19 1.02524E-02 2.44486E-02
      850  4.51570E-07 6.27329E-07-9.51367E-04 0.00000E+00 0.00000E+00 0.00000E+00 0.00000E+00 0.00000E+00 0.00000E+00 1.17715E-02 4.76873E-03 2.44486E-02
      852  4.88172E-07 8.86164E-07-9.51367E-04 0.00000E+00 0.00000E+00 0.00000E+00 0.00000E+00 0.00000E+00 0.00000E+00 8.98879E-03 8.97309E-03 2.44486E-02
      854  1.65060E-07 1.07266E-06-9.51367E-04 0.00000E+00 0.00000E+00 0.00000E+00 0.00000E+00 0.00000E+00 0.00000E+00 4.78387E-03 1.17657E-02 2.44486E-02
      856  0.00000E+00 2.25442E-06-9.51367E-04 0.00000E+00 0.00000E+00 0.00000E+00 0.00000E+00 0.00000E+00 0.00000E+00 7.77700E-19 1.27023E-02 2.44486E-02



 n o d a l   p r i n t   o u t   f o r   t i m e  s t e p     639                              ( at time 1.0000000E+02 )

 nodal point  x-disp     y-disp      z-disp      x-vel       y-vel       z-vel      x-accl      y-accl      z-accl      x-coor      y-coor      z-coor
        1  8.25110E-04 0.00000E+00 0.00000E+00 0.00000E+00 0.00000E+00 0.00000E+00 0.00000E+00 0.00000E+00 0.00000E+00 4.00011E-03 0.00000E+00-1.78000E-18
        2  5.98310E-04 0.00000E+00 0.00000E+00 0.00000E+00 0.00000E+00 0.00000E+00 0.00000E+00 0.00000E+00 0.00000E+00 2.97961E-03 0.00000E+00 0.00000E+00
        3  3.87864E-04 0.00000E+00 0.00000E+00 0.00000E+00 0.00000E+00 0.00000E+00 0.00000E+00 0.00000E+00 0.00000E+00 1.97536E-03 0.00000E+00 0.00000E+00
        4  1.73625E-04 0.00000E+00 0.00000E+00 0.00000E+00 0.00000E+00 0.00000E+00 0.00000E+00 0.00000E+00 0.00000E+00 9.67375E-04 0.00000E+00 0.00000E+00
        5  0.00000E+00 0.00000E+00 0.00000E+00 0.00000E+00 0.00000E+00 0.00000E+00 0.00000E+00 0.00000E+00 0.00000E+00 0.00000E+00 0.00000E+00 0.00000E+00
        6  0.00000E+00 1.89957E-04 0.00000E+00 0.00000E+00 0.00000E+00 0.00000E+00 0.00000E+00 0.00000E+00 0.00000E+00 4.86000E-20 9.83707E-04 0.00000E+00
        7  0.00000E+00 3.84752E-04 0.00000E+00 0.00000E+00 0.00000E+00 0.00000E+00 0.00000E+00 0.00000E+00 0.00000E+00 9.72100E-20 1.97225E-03 0.00000E+00
        8  0.00000E+00 5.39273E-04 0.00000E+00 0.00000E+00 0.00000E+00 0.00000E+00 0.00000E+00 0.00000E+00 0.00000E+00 1.45800E-19 2.92057E-03 0.00000E+00
        9  0.00000E+00 6.93529E-04 0.00000E+00 0.00000E+00 0.00000E+00 0.00000E+00 0.00000E+00 0.00000E+00 0.00000E+00 1.94400E-19 3.86853E-03 0.00000E+00
       10  2.90672E-04 6.61169E-04 0.00000E+00 0.00000E+00 0.00000E+00 0.00000E+00 0.00000E+00 0.00000E+00 0.00000E+00 1.50567E-03 3.59447E-03 0.00000E+00
       11  5.34238E-04 5.39646E-04 0.00000E+00 0.00000E+00 0.00000E+00 0.00000E+00 0.00000E+00 0.00000E+00 0.00000E+00 2.77934E-03 2.78475E-03 0.00000E+00
       12  7.50981E-04 3.69165E-04 0.00000E+00 0.00000E+00 0.00000E+00 0.00000E+00 0.00000E+00 0.00000E+00 0.00000E+00 3.68428E-03 1.58417E-03 0.00000E+00
       13  3.89515E-04 3.66306E-04 0.00000E+00 0.00000E+00 0.00000E+00 0.00000E+00 0.00000E+00 0.00000E+00 0.00000E+00 1.69782E-03 1.71821E-03 0.00000E+00
       14  4.28275E-04 2.10378E-04 0.00000E+00 0.00000E+00 0.00000E+00 0.00000E+00 0.00000E+00 0.00000E+00 0.00000E+00 1.91657E-03 9.17355E-04 0.00000E+00
       15  2.04145E-04 3.97776E-04 0.00000E+00 0.00000E+00 0.00000E+00 0.00000E+00 0.00000E+00 0.00000E+00 0.00000E+00 8.73655E-04 1.90478E-03 0.00000E+00
       16  2.18866E-04 2.13240E-04 0.00000E+00 0.00000E+00 0.00000E+00 0.00000E+00 0.00000E+00 0.00000E+00 0.00000E+00 9.72503E-04 9.95577E-04 0.00000E+00
       17  4.68904E-04 4.45736E-04 0.00000E+00 0.00000E+00 0.00000E+00 0.00000E+00 0.00000E+00 0.00000E+00 0.00000E+00 2.20520E-03 2.21324E-03 0.00000E+00
       18  2.51114E-04 5.37112E-04 0.00000E+00 0.00000E+00 0.00000E+00 0.00000E+00 0.00000E+00 0.00000E+00 0.00000E+00 1.17124E-03 2.72821E-03 0.00000E+00
       19  5.98848E-04 2.48442E-04 0.00000E+00 0.00000E+00 0.00000E+00 0.00000E+00 0.00000E+00 0.00000E+00 0.00000E+00 2.76215E-03 1.19930E-03 0.00000E+00
      220  0.00000E+00 2.10579E-06-1.00000E-03 0.00000E+00 0.00000E+00 0.00000E+00 0.00000E+00 0.00000E+00 0.00000E+00 2.13900E-19 3.49461E-03 2.44000E-02
      221  2.07585E-07 8.56368E-07-1.00000E-03 0.00000E+00 0.00000E+00 0.00000E+00 0.00000E+00 0.00000E+00 0.00000E+00 1.47271E-03 3.31526E-03 2.44000E-02
      222  1.70611E-07 1.07201E-06-1.00000E-03 0.00000E+00 0.00000E+00 0.00000E+00 0.00000E+00 0.00000E+00 0.00000E+00 2.02397E-03 4.82027E-03 2.44000E-02
      223  0.00000E+00 2.63350E-06-1.00000E-03 0.00000E+00 0.00000E+00 0.00000E+00 0.00000E+00 0.00000E+00 0.00000E+00 3.20800E-19 5.24143E-03 2.44000E-02
      248  3.49363E-07 1.67272E-06-1.00000E-03 0.00000E+00 0.00000E+00 0.00000E+00 0.00000E+00 0.00000E+00 0.00000E+00 2.67375E-03 6.45487E-03 2.44000E-02
      249  0.00000E+00 2.90036E-06-1.00000E-03 0.00000E+00 0.00000E+00 0.00000E+00 0.00000E+00 0.00000E+00 0.00000E+00 4.27700E-19 6.98790E-03 2.44000E-02
      286 -2.58912E-07 6.31979E-07-1.00000E-03 0.00000E+00 0.00000E+00 0.00000E+00 0.00000E+00 0.00000E+00 0.00000E+00 3.27304E-03 1.55543E-03 2.44000E-02
      287  2.81251E-07 4.81611E-07-1.00000E-03 0.00000E+00 0.00000E+00 0.00000E+00 0.00000E+00 0.00000E+00 0.00000E+00 2.87798E-03 2.97388E-03 2.44000E-02
      288  3.81217E-08 4.36019E-08-1.00000E-03 0.00000E+00 0.00000E+00 0.00000E+00 0.00000E+00 0.00000E+00 0.00000E+00 1.65774E-03 1.72084E-03 2.44000E-02
      301  3.80120E-07 1.36873E-06-1.00000E-03 0.00000E+00 0.00000E+00 0.00000E+00 0.00000E+00 0.00000E+00 0.00000E+00 3.81968E-03 3.88907E-03 2.44000E-02
      314  5.74050E-07 1.50821E-06-1.00000E-03 0.00000E+00 0.00000E+00 0.00000E+00 0.00000E+00 0.00000E+00 0.00000E+00 4.93967E-03 4.94061E-03 2.44000E-02
      363  3.45534E-07 1.23276E-06-1.00000E-03 0.00000E+00 0.00000E+00 0.00000E+00 0.00000E+00 0.00000E+00 0.00000E+00 6.45375E-03 2.67413E-03 2.44000E-02
      364 -2.36955E-07 1.04057E-06-1.00000E-03 0.00000E+00 0.00000E+00 0.00000E+00 0.00000E+00 0.00000E+00 0.00000E+00 4.75786E-03 2.09224E-03 2.44000E-02
      365  1.66995E-06 0.00000E+00-1.00000E-03 0.00000E+00 0.00000E+00 0.00000E+00 0.00000E+00 0.00000E+00 0.00000E+00 5.24047E-03 0.00000E+00 2.44000E-02
      366  1.08737E-06 0.00000E+00-1.00000E-03 0.00000E+00 0.00000E+00 0.00000E+00 0.00000E+00 0.00000E+00 0.00000E+00 6.98609E-03 0.00000E+00 2.44000E-02
      379  0.00000E+00 1.08337E-06-1.00000E-03 0.00000E+00 0.00000E+00 0.00000E+00 0.00000E+00 0.00000E+00 0.00000E+00 1.06900E-19 1.74738E-03 2.44000E-02
      404  2.37385E-06 0.00000E+00-1.00000E-03 0.00000E+00 0.00000E+00 0.00000E+00 0.00000E+00 0.00000E+00 0.00000E+00 1.74867E-03 0.00000E+00 2.44000E-02
      405  0.00000E+00 0.00000E+00-1.00000E-03 0.00000E+00 0.00000E+00 0.00000E+00 0.00000E+00 0.00000E+00 0.00000E+00 0.00000E+00 0.00000E+00 2.44000E-02
      418  2.81091E-06 0.00000E+00-1.00000E-03 0.00000E+00 0.00000E+00 0.00000E+00 0.00000E+00 0.00000E+00 0.00000E+00 3.49531E-03 0.00000E+00 2.44000E-02
      438  8.99436E-08 0.00000E+00-1.00000E-03 0.00000E+00 0.00000E+00 0.00000E+00 0.00000E+00 0.00000E+00 0.00000E+00 1.27001E-02 0.00000E+00 2.44000E-02
      439  2.44238E-07 0.00000E+00-1.00000E-03 0.00000E+00 0.00000E+00 0.00000E+00 0.00000E+00 0.00000E+00 0.00000E+00 1.18838E-02 0.00000E+00 2.44000E-02
      440  2.75199E-07 0.00000E+00-1.00000E-03 0.00000E+00 0.00000E+00 0.00000E+00 0.00000E+00 0.00000E+00 0.00000E+00 1.10674E-02 0.00000E+00 2.44000E-02
      441  3.17077E-07 0.00000E+00-1.00000E-03 0.00000E+00 0.00000E+00 0.00000E+00 0.00000E+00 0.00000E+00 0.00000E+00 1.02510E-02 0.00000E+00 2.44000E-02
      442  3.60617E-07 0.00000E+00-1.00000E-03 0.00000E+00 0.00000E+00 0.00000E+00 0.00000E+00 0.00000E+00 0.00000E+00 9.43466E-03 0.00000E+00 2.44000E-02
      443  4.47836E-07 0.00000E+00-1.00000E-03 0.00000E+00 0.00000E+00 0.00000E+00 0.00000E+00 0.00000E+00 0.00000E+00 8.61835E-03 0.00000E+00 2.44000E-02
      444  6.28947E-07 0.00000E+00-1.00000E-03 0.00000E+00 0.00000E+00 0.00000E+00 0.00000E+00 0.00000E+00 0.00000E+00 7.80203E-03 0.00000E+00 2.44000E-02
      591  4.65448E-07 1.31678E-06-1.00000E-03 0.00000E+00 0.00000E+00 0.00000E+00 0.00000E+00 0.00000E+00 0.00000E+00 7.97317E-03 3.27282E-03 2.44000E-02
      592  4.84990E-07 1.26746E-06-1.00000E-03 0.00000E+00 0.00000E+00 0.00000E+00 0.00000E+00 0.00000E+00 0.00000E+00 8.73278E-03 3.57207E-03 2.44000E-02
      595  5.23805E-07 1.45734E-06-1.00000E-03 0.00000E+00 0.00000E+00 0.00000E+00 0.00000E+00 0.00000E+00 0.00000E+00 6.09652E-03 6.09296E-03 2.44000E-02
      596  5.64720E-07 1.41548E-06-1.00000E-03 0.00000E+00 0.00000E+00 0.00000E+00 0.00000E+00 0.00000E+00 0.00000E+00 6.67506E-03 6.66902E-03 2.44000E-02
      599  3.81570E-07 1.69993E-06-1.00000E-03 0.00000E+00 0.00000E+00 0.00000E+00 0.00000E+00 0.00000E+00 0.00000E+00 3.27668E-03 7.97240E-03 2.44000E-02
      600  4.09884E-07 1.63374E-06-1.00000E-03 0.00000E+00 0.00000E+00 0.00000E+00 0.00000E+00 0.00000E+00 0.00000E+00 3.57821E-03 8.73113E-03 2.44000E-02
      603  0.00000E+00 2.64644E-06-1.00000E-03 0.00000E+00 0.00000E+00 0.00000E+00 0.00000E+00 0.00000E+00 0.00000E+00 5.27700E-19 8.62055E-03 2.44000E-02
      604  0.00000E+00 2.41195E-06-1.00000E-03 0.00000E+00 0.00000E+00 0.00000E+00 0.00000E+00 0.00000E+00 0.00000E+00 5.77700E-19 9.43671E-03 2.44000E-02
      638  5.61074E-07 1.22788E-06-1.00000E-03 0.00000E+00 0.00000E+00 0.00000E+00 0.00000E+00 0.00000E+00 0.00000E+00 1.02523E-02 4.17063E-03 2.44000E-02
      639  5.33344E-07 1.15384E-06-1.00000E-03 0.00000E+00 0.00000E+00 0.00000E+00 0.00000E+00 0.00000E+00 0.00000E+00 1.10118E-02 4.46985E-03 2.44000E-02
      641  6.86108E-07 1.36196E-06-1.00000E-03 0.00000E+00 0.00000E+00 0.00000E+00 0.00000E+00 0.00000E+00 0.00000E+00 7.83209E-03 7.82126E-03 2.44000E-02
      642  8.23244E-07 1.42877E-06-1.00000E-03 0.00000E+00 0.00000E+00 0.00000E+00 0.00000E+00 0.00000E+00 0.00000E+00 8.41072E-03 8.39743E-03 2.44000E-02
      644  4.24870E-07 1.51083E-06-1.00000E-03 0.00000E+00 0.00000E+00 0.00000E+00 0.00000E+00 0.00000E+00 0.00000E+00 4.18112E-03 1.02486E-02 2.44000E-02
      645  2.75755E-07 1.35597E-06-1.00000E-03 0.00000E+00 0.00000E+00 0.00000E+00 0.00000E+00 0.00000E+00 0.00000E+00 4.48248E-03 1.10072E-02 2.44000E-02
      647  0.00000E+00 2.28541E-06-1.00000E-03 0.00000E+00 0.00000E+00 0.00000E+00 0.00000E+00 0.00000E+00 0.00000E+00 6.77700E-19 1.10694E-02 2.44000E-02
      648  0.00000E+00 2.64647E-06-1.00000E-03 0.00000E+00 0.00000E+00 0.00000E+00 0.00000E+00 0.00000E+00 0.00000E+00 7.27700E-19 1.18862E-02 2.44000E-02
      674  4.61036E-07 1.34589E-06-1.00000E-03 0.00000E+00 0.00000E+00 0.00000E+00 0.00000E+00 0.00000E+00 0.00000E+00 7.21346E-03 2.97355E-03 2.44000E-02
      676  4.58435E-07 1.52349E-06-1.00000E-03 0.00000E+00 0.00000E+00 0.00000E+00 0.00000E+00 0.00000E+00 0.00000E+00 5.51806E-03 5.51682E-03 2.44000E-02
      678  3.25819E-07 1.72461E-06-1.00000E-03 0.00000E+00 0.00000E+00 0.00000E+00 0.00000E+00 0.00000E+00 0.00000E+00 2.97513E-03 7.21372E-03 2.44000E-02
      680  0.00000E+00 2.83850E-06-1.00000E-03 0.00000E+00 0.00000E+00 0.00000E+00 0.00000E+00 0.00000E+00 0.00000E+00 4.77700E-19 7.80424E-03 2.44000E-02
      821  5.17100E-07 1.24311E-06-1.00000E-03 0.00000E+00 0.00000E+00 0.00000E+00 0.00000E+00 0.00000E+00 0.00000E+00 9.49252E-03 3.87134E-03 2.44000E-02
      822  6.19504E-07 1.37687E-06-1.00000E-03 0.00000E+00 0.00000E+00 0.00000E+00 0.00000E+00 0.00000E+00 0.00000E+00 7.25352E-03 7.24518E-03 2.44000E-02
      823  4.35807E-07 1.59453E-06-1.00000E-03 0.00000E+00 0.00000E+00 0.00000E+00 0.00000E+00 0.00000E+00 0.00000E+00 3.87974E-03 9.48989E-03 2.44000E-02
      824  0.00000E+00 2.27942E-06-1.00000E-03 0.00000E+00 0.00000E+00 0.00000E+00 0.00000E+00 0.00000E+00 0.00000E+00 6.27700E-19 1.02530E-02 2.44000E-02
      850  3.02446E-07 1.02259E-06-1.00000E-03 0.00000E+00 0.00000E+00 0.00000E+00 0.00000E+00 0.00000E+00 0.00000E+00 1.17713E-02 4.76912E-03 2.44000E-02
      852  3.21578E-07 1.20214E-06-1.00000E-03 0.00000E+00 0.00000E+00 0.00000E+00 0.00000E+00 0.00000E+00 0.00000E+00 8.98862E-03 8.97340E-03 2.44000E-02
      854  3.16298E-07 1.90458E-06-1.00000E-03 0.00000E+00 0.00000E+00 0.00000E+00 0.00000E+00 0.00000E+00 0.00000E+00 4.78402E-03 1.17665E-02 2.44000E-02
      856  0.00000E+00 3.08127E-06-1.00000E-03 0.00000E+00 0.00000E+00 0.00000E+00 0.00000E+00 0.00000E+00 0.00000E+00 7.77700E-19 1.27031E-02 2.44000E-02
