 LS-DYNA keyword deck by LS-PrePost                                      
                    ls-dyna smp d R14 R14.1.1s_1_ef50e1 date 06/16/2024

 n o d a l   f o r c e/e n e r g y    o u t p u t  t=   0.00000E+00

 velocity boundary condition forces/rigid body moments 

 nd#    1393  xforce=   0.0000E+00   yforce=   0.0000E+00  zforce=   0.0000E+00   energy=   0.0000E+00   setid =    1393 xmoment=   0.0000E+00 ymoment=   0.0000E+00 zmoment=   0.0000E+00
 nd#    1394  xforce=   0.0000E+00   yforce=   0.0000E+00  zforce=   0.0000E+00   energy=   0.0000E+00   setid =    1394 xmoment=   0.0000E+00 ymoment=   0.0000E+00 zmoment=   0.0000E+00
 nd#    1395  xforce=   0.0000E+00   yforce=   0.0000E+00  zforce=   0.0000E+00   energy=   0.0000E+00   setid =    1395 xmoment=   0.0000E+00 ymoment=   0.0000E+00 zmoment=   0.0000E+00
 nd#    1396  xforce=   0.0000E+00   yforce=   0.0000E+00  zforce=   0.0000E+00   energy=   0.0000E+00   setid =    1396 xmoment=   0.0000E+00 ymoment=   0.0000E+00 zmoment=   0.0000E+00
 nd#    1508  xforce=   0.0000E+00   yforce=   0.0000E+00  zforce=   0.0000E+00   energy=   0.0000E+00   setid =    1508 xmoment=   0.0000E+00 ymoment=   0.0000E+00 zmoment=   0.0000E+00
 nd#    1509  xforce=   0.0000E+00   yforce=   0.0000E+00  zforce=   0.0000E+00   energy=   0.0000E+00   setid =    1509 xmoment=   0.0000E+00 ymoment=   0.0000E+00 zmoment=   0.0000E+00
 nd#    1510  xforce=   0.0000E+00   yforce=   0.0000E+00  zforce=   0.0000E+00   energy=   0.0000E+00   setid =    1510 xmoment=   0.0000E+00 ymoment=   0.0000E+00 zmoment=   0.0000E+00
 nd#    1659  xforce=   0.0000E+00   yforce=   0.0000E+00  zforce=   0.0000E+00   energy=   0.0000E+00   setid =    1659 xmoment=   0.0000E+00 ymoment=   0.0000E+00 zmoment=   0.0000E+00
 nd#    1660  xforce=   0.0000E+00   yforce=   0.0000E+00  zforce=   0.0000E+00   energy=   0.0000E+00   setid =    1660 xmoment=   0.0000E+00 ymoment=   0.0000E+00 zmoment=   0.0000E+00
 nd#    1661  xforce=   0.0000E+00   yforce=   0.0000E+00  zforce=   0.0000E+00   energy=   0.0000E+00   setid =    1661 xmoment=   0.0000E+00 ymoment=   0.0000E+00 zmoment=   0.0000E+00
 nd#    1662  xforce=   0.0000E+00   yforce=   0.0000E+00  zforce=   0.0000E+00   energy=   0.0000E+00   setid =    1662 xmoment=   0.0000E+00 ymoment=   0.0000E+00 zmoment=   0.0000E+00
 nd#    1737  xforce=   0.0000E+00   yforce=   0.0000E+00  zforce=   0.0000E+00   energy=   0.0000E+00   setid =    1737 xmoment=   0.0000E+00 ymoment=   0.0000E+00 zmoment=   0.0000E+00
 nd#    1738  xforce=   0.0000E+00   yforce=   0.0000E+00  zforce=   0.0000E+00   energy=   0.0000E+00   setid =    1738 xmoment=   0.0000E+00 ymoment=   0.0000E+00 zmoment=   0.0000E+00
 nd#    1887  xforce=   0.0000E+00   yforce=   0.0000E+00  zforce=   0.0000E+00   energy=   0.0000E+00   setid =    1887 xmoment=   0.0000E+00 ymoment=   0.0000E+00 zmoment=   0.0000E+00
 nd#    1888  xforce=   0.0000E+00   yforce=   0.0000E+00  zforce=   0.0000E+00   energy=   0.0000E+00   setid =    1888 xmoment=   0.0000E+00 ymoment=   0.0000E+00 zmoment=   0.0000E+00
 nd#    1889  xforce=   0.0000E+00   yforce=   0.0000E+00  zforce=   0.0000E+00   energy=   0.0000E+00   setid =    1889 xmoment=   0.0000E+00 ymoment=   0.0000E+00 zmoment=   0.0000E+00
 nd#    1890  xforce=   0.0000E+00   yforce=   0.0000E+00  zforce=   0.0000E+00   energy=   0.0000E+00   setid =    1890 xmoment=   0.0000E+00 ymoment=   0.0000E+00 zmoment=   0.0000E+00
 nd#    2039  xforce=   0.0000E+00   yforce=   0.0000E+00  zforce=   0.0000E+00   energy=   0.0000E+00   setid =    2039 xmoment=   0.0000E+00 ymoment=   0.0000E+00 zmoment=   0.0000E+00
 nd#    2040  xforce=   0.0000E+00   yforce=   0.0000E+00  zforce=   0.0000E+00   energy=   0.0000E+00   setid =    2040 xmoment=   0.0000E+00 ymoment=   0.0000E+00 zmoment=   0.0000E+00
 nd#    2041  xforce=   0.0000E+00   yforce=   0.0000E+00  zforce=   0.0000E+00   energy=   0.0000E+00   setid =    2041 xmoment=   0.0000E+00 ymoment=   0.0000E+00 zmoment=   0.0000E+00
 nd#    2042  xforce=   0.0000E+00   yforce=   0.0000E+00  zforce=   0.0000E+00   energy=   0.0000E+00   setid =    2042 xmoment=   0.0000E+00 ymoment=   0.0000E+00 zmoment=   0.0000E+00
 nd#    2117  xforce=   0.0000E+00   yforce=   0.0000E+00  zforce=   0.0000E+00   energy=   0.0000E+00   setid =    2117 xmoment=   0.0000E+00 ymoment=   0.0000E+00 zmoment=   0.0000E+00
 nd#    2118  xforce=   0.0000E+00   yforce=   0.0000E+00  zforce=   0.0000E+00   energy=   0.0000E+00   setid =    2118 xmoment=   0.0000E+00 ymoment=   0.0000E+00 zmoment=   0.0000E+00
 nd#    2267  xforce=   0.0000E+00   yforce=   0.0000E+00  zforce=   0.0000E+00   energy=   0.0000E+00   setid =    2267 xmoment=   0.0000E+00 ymoment=   0.0000E+00 zmoment=   0.0000E+00
 nd#    2268  xforce=   0.0000E+00   yforce=   0.0000E+00  zforce=   0.0000E+00   energy=   0.0000E+00   setid =    2268 xmoment=   0.0000E+00 ymoment=   0.0000E+00 zmoment=   0.0000E+00
 nd#    2269  xforce=   0.0000E+00   yforce=   0.0000E+00  zforce=   0.0000E+00   energy=   0.0000E+00   setid =    2269 xmoment=   0.0000E+00 ymoment=   0.0000E+00 zmoment=   0.0000E+00
 nd#    2270  xforce=   0.0000E+00   yforce=   0.0000E+00  zforce=   0.0000E+00   energy=   0.0000E+00   setid =    2270 xmoment=   0.0000E+00 ymoment=   0.0000E+00 zmoment=   0.0000E+00
 nd#    2419  xforce=   0.0000E+00   yforce=   0.0000E+00  zforce=   0.0000E+00   energy=   0.0000E+00   setid =    2419 xmoment=   0.0000E+00 ymoment=   0.0000E+00 zmoment=   0.0000E+00
 nd#    2420  xforce=   0.0000E+00   yforce=   0.0000E+00  zforce=   0.0000E+00   energy=   0.0000E+00   setid =    2420 xmoment=   0.0000E+00 ymoment=   0.0000E+00 zmoment=   0.0000E+00
 nd#    2421  xforce=   0.0000E+00   yforce=   0.0000E+00  zforce=   0.0000E+00   energy=   0.0000E+00   setid =    2421 xmoment=   0.0000E+00 ymoment=   0.0000E+00 zmoment=   0.0000E+00
 nd#    2422  xforce=   0.0000E+00   yforce=   0.0000E+00  zforce=   0.0000E+00   energy=   0.0000E+00   setid =    2422 xmoment=   0.0000E+00 ymoment=   0.0000E+00 zmoment=   0.0000E+00
 nd#    2497  xforce=   0.0000E+00   yforce=   0.0000E+00  zforce=   0.0000E+00   energy=   0.0000E+00   setid =    2497 xmoment=   0.0000E+00 ymoment=   0.0000E+00 zmoment=   0.0000E+00
 nd#    2498  xforce=   0.0000E+00   yforce=   0.0000E+00  zforce=   0.0000E+00   energy=   0.0000E+00   setid =    2498 xmoment=   0.0000E+00 ymoment=   0.0000E+00 zmoment=   0.0000E+00
 nd#    2573  xforce=   0.0000E+00   yforce=   0.0000E+00  zforce=   0.0000E+00   energy=   0.0000E+00   setid =    2573 xmoment=   0.0000E+00 ymoment=   0.0000E+00 zmoment=   0.0000E+00
 nd#    2574  xforce=   0.0000E+00   yforce=   0.0000E+00  zforce=   0.0000E+00   energy=   0.0000E+00   setid =    2574 xmoment=   0.0000E+00 ymoment=   0.0000E+00 zmoment=   0.0000E+00
 nd#    2649  xforce=   0.0000E+00   yforce=   0.0000E+00  zforce=   0.0000E+00   energy=   0.0000E+00   setid =    2649 xmoment=   0.0000E+00 ymoment=   0.0000E+00 zmoment=   0.0000E+00
 nd#    2650  xforce=   0.0000E+00   yforce=   0.0000E+00  zforce=   0.0000E+00   energy=   0.0000E+00   setid =    2650 xmoment=   0.0000E+00 ymoment=   0.0000E+00 zmoment=   0.0000E+00
 nd#    2725  xforce=   0.0000E+00   yforce=   0.0000E+00  zforce=   0.0000E+00   energy=   0.0000E+00   setid =    2725 xmoment=   0.0000E+00 ymoment=   0.0000E+00 zmoment=   0.0000E+00
 nd#    2726  xforce=   0.0000E+00   yforce=   0.0000E+00  zforce=   0.0000E+00   energy=   0.0000E+00   setid =    2726 xmoment=   0.0000E+00 ymoment=   0.0000E+00 zmoment=   0.0000E+00
 nd#    2801  xforce=   0.0000E+00   yforce=   0.0000E+00  zforce=   0.0000E+00   energy=   0.0000E+00   setid =    2801 xmoment=   0.0000E+00 ymoment=   0.0000E+00 zmoment=   0.0000E+00
 nd#    2802  xforce=   0.0000E+00   yforce=   0.0000E+00  zforce=   0.0000E+00   energy=   0.0000E+00   setid =    2802 xmoment=   0.0000E+00 ymoment=   0.0000E+00 zmoment=   0.0000E+00
 nd#    2840  xforce=   0.0000E+00   yforce=   0.0000E+00  zforce=   0.0000E+00   energy=   0.0000E+00   setid =    2840 xmoment=   0.0000E+00 ymoment=   0.0000E+00 zmoment=   0.0000E+00
 nd#    2915  xforce=   0.0000E+00   yforce=   0.0000E+00  zforce=   0.0000E+00   energy=   0.0000E+00   setid =    2915 xmoment=   0.0000E+00 ymoment=   0.0000E+00 zmoment=   0.0000E+00
 nd#    2916  xforce=   0.0000E+00   yforce=   0.0000E+00  zforce=   0.0000E+00   energy=   0.0000E+00   setid =    2916 xmoment=   0.0000E+00 ymoment=   0.0000E+00 zmoment=   0.0000E+00
 nd#    2991  xforce=   0.0000E+00   yforce=   0.0000E+00  zforce=   0.0000E+00   energy=   0.0000E+00   setid =    2991 xmoment=   0.0000E+00 ymoment=   0.0000E+00 zmoment=   0.0000E+00
 nd#    2992  xforce=   0.0000E+00   yforce=   0.0000E+00  zforce=   0.0000E+00   energy=   0.0000E+00   setid =    2992 xmoment=   0.0000E+00 ymoment=   0.0000E+00 zmoment=   0.0000E+00
 nd#    3067  xforce=   0.0000E+00   yforce=   0.0000E+00  zforce=   0.0000E+00   energy=   0.0000E+00   setid =    3067 xmoment=   0.0000E+00 ymoment=   0.0000E+00 zmoment=   0.0000E+00
 nd#    3068  xforce=   0.0000E+00   yforce=   0.0000E+00  zforce=   0.0000E+00   energy=   0.0000E+00   setid =    3068 xmoment=   0.0000E+00 ymoment=   0.0000E+00 zmoment=   0.0000E+00
 nd#    3143  xforce=   0.0000E+00   yforce=   0.0000E+00  zforce=   0.0000E+00   energy=   0.0000E+00   setid =    3143 xmoment=   0.0000E+00 ymoment=   0.0000E+00 zmoment=   0.0000E+00
 nd#    3144  xforce=   0.0000E+00   yforce=   0.0000E+00  zforce=   0.0000E+00   energy=   0.0000E+00   setid =    3144 xmoment=   0.0000E+00 ymoment=   0.0000E+00 zmoment=   0.0000E+00
 nd#    3182  xforce=   0.0000E+00   yforce=   0.0000E+00  zforce=   0.0000E+00   energy=   0.0000E+00   setid =    3182 xmoment=   0.0000E+00 ymoment=   0.0000E+00 zmoment=   0.0000E+00
 nd#    3220  xforce=   0.0000E+00   yforce=   0.0000E+00  zforce=   0.0000E+00   energy=   0.0000E+00   setid =    3220 xmoment=   0.0000E+00 ymoment=   0.0000E+00 zmoment=   0.0000E+00
 nd#    3258  xforce=   0.0000E+00   yforce=   0.0000E+00  zforce=   0.0000E+00   energy=   0.0000E+00   setid =    3258 xmoment=   0.0000E+00 ymoment=   0.0000E+00 zmoment=   0.0000E+00
 nd#    3333  xforce=   0.0000E+00   yforce=   0.0000E+00  zforce=   0.0000E+00   energy=   0.0000E+00   setid =    3333 xmoment=   0.0000E+00 ymoment=   0.0000E+00 zmoment=   0.0000E+00
 nd#    3334  xforce=   0.0000E+00   yforce=   0.0000E+00  zforce=   0.0000E+00   energy=   0.0000E+00   setid =    3334 xmoment=   0.0000E+00 ymoment=   0.0000E+00 zmoment=   0.0000E+00
 nd#    3372  xforce=   0.0000E+00   yforce=   0.0000E+00  zforce=   0.0000E+00   energy=   0.0000E+00   setid =    3372 xmoment=   0.0000E+00 ymoment=   0.0000E+00 zmoment=   0.0000E+00
 nd#    3410  xforce=   0.0000E+00   yforce=   0.0000E+00  zforce=   0.0000E+00   energy=   0.0000E+00   setid =    3410 xmoment=   0.0000E+00 ymoment=   0.0000E+00 zmoment=   0.0000E+00
 nd#    3448  xforce=   0.0000E+00   yforce=   0.0000E+00  zforce=   0.0000E+00   energy=   0.0000E+00   setid =    3448 xmoment=   0.0000E+00 ymoment=   0.0000E+00 zmoment=   0.0000E+00
 nd#    3486  xforce=   0.0000E+00   yforce=   0.0000E+00  zforce=   0.0000E+00   energy=   0.0000E+00   setid =    3486 xmoment=   0.0000E+00 ymoment=   0.0000E+00 zmoment=   0.0000E+00
 nd#    3524  xforce=   0.0000E+00   yforce=   0.0000E+00  zforce=   0.0000E+00   energy=   0.0000E+00   setid =    3524 xmoment=   0.0000E+00 ymoment=   0.0000E+00 zmoment=   0.0000E+00
 nd#    3562  xforce=   0.0000E+00   yforce=   0.0000E+00  zforce=   0.0000E+00   energy=   0.0000E+00   setid =    3562 xmoment=   0.0000E+00 ymoment=   0.0000E+00 zmoment=   0.0000E+00
 nd#    3613  xforce=   0.0000E+00   yforce=   0.0000E+00  zforce=   0.0000E+00   energy=   0.0000E+00   setid =    3613 xmoment=   0.0000E+00 ymoment=   0.0000E+00 zmoment=   0.0000E+00
 nd#    3614  xforce=   0.0000E+00   yforce=   0.0000E+00  zforce=   0.0000E+00   energy=   0.0000E+00   setid =    3614 xmoment=   0.0000E+00 ymoment=   0.0000E+00 zmoment=   0.0000E+00
 nd#    3615  xforce=   0.0000E+00   yforce=   0.0000E+00  zforce=   0.0000E+00   energy=   0.0000E+00   setid =    3615 xmoment=   0.0000E+00 ymoment=   0.0000E+00 zmoment=   0.0000E+00
 nd#    3616  xforce=   0.0000E+00   yforce=   0.0000E+00  zforce=   0.0000E+00   energy=   0.0000E+00   setid =    3616 xmoment=   0.0000E+00 ymoment=   0.0000E+00 zmoment=   0.0000E+00
 nd#    3617  xforce=   0.0000E+00   yforce=   0.0000E+00  zforce=   0.0000E+00   energy=   0.0000E+00   setid =    3617 xmoment=   0.0000E+00 ymoment=   0.0000E+00 zmoment=   0.0000E+00
 nd#    3618  xforce=   0.0000E+00   yforce=   0.0000E+00  zforce=   0.0000E+00   energy=   0.0000E+00   setid =    3618 xmoment=   0.0000E+00 ymoment=   0.0000E+00 zmoment=   0.0000E+00
 nd#    3619  xforce=   0.0000E+00   yforce=   0.0000E+00  zforce=   0.0000E+00   energy=   0.0000E+00   setid =    3619 xmoment=   0.0000E+00 ymoment=   0.0000E+00 zmoment=   0.0000E+00
 nd#    3620  xforce=   0.0000E+00   yforce=   0.0000E+00  zforce=   0.0000E+00   energy=   0.0000E+00   setid =    3620 xmoment=   0.0000E+00 ymoment=   0.0000E+00 zmoment=   0.0000E+00
 nd#    3621  xforce=   0.0000E+00   yforce=   0.0000E+00  zforce=   0.0000E+00   energy=   0.0000E+00   setid =    3621 xmoment=   0.0000E+00 ymoment=   0.0000E+00 zmoment=   0.0000E+00
 nd#    3622  xforce=   0.0000E+00   yforce=   0.0000E+00  zforce=   0.0000E+00   energy=   0.0000E+00   setid =    3622 xmoment=   0.0000E+00 ymoment=   0.0000E+00 zmoment=   0.0000E+00
 nd#    3623  xforce=   0.0000E+00   yforce=   0.0000E+00  zforce=   0.0000E+00   energy=   0.0000E+00   setid =    3623 xmoment=   0.0000E+00 ymoment=   0.0000E+00 zmoment=   0.0000E+00
 nd#    3624  xforce=   0.0000E+00   yforce=   0.0000E+00  zforce=   0.0000E+00   energy=   0.0000E+00   setid =    3624 xmoment=   0.0000E+00 ymoment=   0.0000E+00 zmoment=   0.0000E+00
 nd#    3625  xforce=   0.0000E+00   yforce=   0.0000E+00  zforce=   0.0000E+00   energy=   0.0000E+00   setid =    3625 xmoment=   0.0000E+00 ymoment=   0.0000E+00 zmoment=   0.0000E+00
 nd#    4590  xforce=   0.0000E+00   yforce=   0.0000E+00  zforce=   0.0000E+00   energy=   0.0000E+00   setid =    4590 xmoment=   0.0000E+00 ymoment=   0.0000E+00 zmoment=   0.0000E+00
 nd#    4591  xforce=   0.0000E+00   yforce=   0.0000E+00  zforce=   0.0000E+00   energy=   0.0000E+00   setid =    4591 xmoment=   0.0000E+00 ymoment=   0.0000E+00 zmoment=   0.0000E+00
 nd#    4594  xforce=   0.0000E+00   yforce=   0.0000E+00  zforce=   0.0000E+00   energy=   0.0000E+00   setid =    4594 xmoment=   0.0000E+00 ymoment=   0.0000E+00 zmoment=   0.0000E+00
 nd#    4595  xforce=   0.0000E+00   yforce=   0.0000E+00  zforce=   0.0000E+00   energy=   0.0000E+00   setid =    4595 xmoment=   0.0000E+00 ymoment=   0.0000E+00 zmoment=   0.0000E+00
 nd#    4598  xforce=   0.0000E+00   yforce=   0.0000E+00  zforce=   0.0000E+00   energy=   0.0000E+00   setid =    4598 xmoment=   0.0000E+00 ymoment=   0.0000E+00 zmoment=   0.0000E+00
 nd#    4599  xforce=   0.0000E+00   yforce=   0.0000E+00  zforce=   0.0000E+00   energy=   0.0000E+00   setid =    4599 xmoment=   0.0000E+00 ymoment=   0.0000E+00 zmoment=   0.0000E+00
 nd#    4602  xforce=   0.0000E+00   yforce=   0.0000E+00  zforce=   0.0000E+00   energy=   0.0000E+00   setid =    4602 xmoment=   0.0000E+00 ymoment=   0.0000E+00 zmoment=   0.0000E+00
 nd#    4603  xforce=   0.0000E+00   yforce=   0.0000E+00  zforce=   0.0000E+00   energy=   0.0000E+00   setid =    4603 xmoment=   0.0000E+00 ymoment=   0.0000E+00 zmoment=   0.0000E+00
 nd#    4606  xforce=   0.0000E+00   yforce=   0.0000E+00  zforce=   0.0000E+00   energy=   0.0000E+00   setid =    4606 xmoment=   0.0000E+00 ymoment=   0.0000E+00 zmoment=   0.0000E+00
 nd#    4607  xforce=   0.0000E+00   yforce=   0.0000E+00  zforce=   0.0000E+00   energy=   0.0000E+00   setid =    4607 xmoment=   0.0000E+00 ymoment=   0.0000E+00 zmoment=   0.0000E+00
 nd#    4610  xforce=   0.0000E+00   yforce=   0.0000E+00  zforce=   0.0000E+00   energy=   0.0000E+00   setid =    4610 xmoment=   0.0000E+00 ymoment=   0.0000E+00 zmoment=   0.0000E+00
 nd#    4611  xforce=   0.0000E+00   yforce=   0.0000E+00  zforce=   0.0000E+00   energy=   0.0000E+00   setid =    4611 xmoment=   0.0000E+00 ymoment=   0.0000E+00 zmoment=   0.0000E+00
 nd#    4614  xforce=   0.0000E+00   yforce=   0.0000E+00  zforce=   0.0000E+00   energy=   0.0000E+00   setid =    4614 xmoment=   0.0000E+00 ymoment=   0.0000E+00 zmoment=   0.0000E+00
 nd#    4615  xforce=   0.0000E+00   yforce=   0.0000E+00  zforce=   0.0000E+00   energy=   0.0000E+00   setid =    4615 xmoment=   0.0000E+00 ymoment=   0.0000E+00 zmoment=   0.0000E+00
 nd#    4618  xforce=   0.0000E+00   yforce=   0.0000E+00  zforce=   0.0000E+00   energy=   0.0000E+00   setid =    4618 xmoment=   0.0000E+00 ymoment=   0.0000E+00 zmoment=   0.0000E+00
 nd#    4619  xforce=   0.0000E+00   yforce=   0.0000E+00  zforce=   0.0000E+00   energy=   0.0000E+00   setid =    4619 xmoment=   0.0000E+00 ymoment=   0.0000E+00 zmoment=   0.0000E+00
 nd#    4622  xforce=   0.0000E+00   yforce=   0.0000E+00  zforce=   0.0000E+00   energy=   0.0000E+00   setid =    4622 xmoment=   0.0000E+00 ymoment=   0.0000E+00 zmoment=   0.0000E+00
 nd#    4623  xforce=   0.0000E+00   yforce=   0.0000E+00  zforce=   0.0000E+00   energy=   0.0000E+00   setid =    4623 xmoment=   0.0000E+00 ymoment=   0.0000E+00 zmoment=   0.0000E+00
 nd#    4626  xforce=   0.0000E+00   yforce=   0.0000E+00  zforce=   0.0000E+00   energy=   0.0000E+00   setid =    4626 xmoment=   0.0000E+00 ymoment=   0.0000E+00 zmoment=   0.0000E+00
 nd#    4627  xforce=   0.0000E+00   yforce=   0.0000E+00  zforce=   0.0000E+00   energy=   0.0000E+00   setid =    4627 xmoment=   0.0000E+00 ymoment=   0.0000E+00 zmoment=   0.0000E+00
 nd#    4630  xforce=   0.0000E+00   yforce=   0.0000E+00  zforce=   0.0000E+00   energy=   0.0000E+00   setid =    4630 xmoment=   0.0000E+00 ymoment=   0.0000E+00 zmoment=   0.0000E+00
 nd#    4631  xforce=   0.0000E+00   yforce=   0.0000E+00  zforce=   0.0000E+00   energy=   0.0000E+00   setid =    4631 xmoment=   0.0000E+00 ymoment=   0.0000E+00 zmoment=   0.0000E+00
 nd#    4634  xforce=   0.0000E+00   yforce=   0.0000E+00  zforce=   0.0000E+00   energy=   0.0000E+00   setid =    4634 xmoment=   0.0000E+00 ymoment=   0.0000E+00 zmoment=   0.0000E+00
 nd#    4635  xforce=   0.0000E+00   yforce=   0.0000E+00  zforce=   0.0000E+00   energy=   0.0000E+00   setid =    4635 xmoment=   0.0000E+00 ymoment=   0.0000E+00 zmoment=   0.0000E+00
 nd#    4638  xforce=   0.0000E+00   yforce=   0.0000E+00  zforce=   0.0000E+00   energy=   0.0000E+00   setid =    4638 xmoment=   0.0000E+00 ymoment=   0.0000E+00 zmoment=   0.0000E+00
 nd#    4639  xforce=   0.0000E+00   yforce=   0.0000E+00  zforce=   0.0000E+00   energy=   0.0000E+00   setid =    4639 xmoment=   0.0000E+00 ymoment=   0.0000E+00 zmoment=   0.0000E+00
 nd#    4642  xforce=   0.0000E+00   yforce=   0.0000E+00  zforce=   0.0000E+00   energy=   0.0000E+00   setid =    4642 xmoment=   0.0000E+00 ymoment=   0.0000E+00 zmoment=   0.0000E+00
 nd#    4643  xforce=   0.0000E+00   yforce=   0.0000E+00  zforce=   0.0000E+00   energy=   0.0000E+00   setid =    4643 xmoment=   0.0000E+00 ymoment=   0.0000E+00 zmoment=   0.0000E+00
 nd#    4646  xforce=   0.0000E+00   yforce=   0.0000E+00  zforce=   0.0000E+00   energy=   0.0000E+00   setid =    4646 xmoment=   0.0000E+00 ymoment=   0.0000E+00 zmoment=   0.0000E+00
 nd#    4647  xforce=   0.0000E+00   yforce=   0.0000E+00  zforce=   0.0000E+00   energy=   0.0000E+00   setid =    4647 xmoment=   0.0000E+00 ymoment=   0.0000E+00 zmoment=   0.0000E+00
 nd#    4650  xforce=   0.0000E+00   yforce=   0.0000E+00  zforce=   0.0000E+00   energy=   0.0000E+00   setid =    4650 xmoment=   0.0000E+00 ymoment=   0.0000E+00 zmoment=   0.0000E+00
 nd#    4651  xforce=   0.0000E+00   yforce=   0.0000E+00  zforce=   0.0000E+00   energy=   0.0000E+00   setid =    4651 xmoment=   0.0000E+00 ymoment=   0.0000E+00 zmoment=   0.0000E+00
 nd#    4838  xforce=   0.0000E+00   yforce=   0.0000E+00  zforce=   0.0000E+00   energy=   0.0000E+00   setid =    4838 xmoment=   0.0000E+00 ymoment=   0.0000E+00 zmoment=   0.0000E+00
 nd#    4839  xforce=   0.0000E+00   yforce=   0.0000E+00  zforce=   0.0000E+00   energy=   0.0000E+00   setid =    4839 xmoment=   0.0000E+00 ymoment=   0.0000E+00 zmoment=   0.0000E+00
 nd#    4842  xforce=   0.0000E+00   yforce=   0.0000E+00  zforce=   0.0000E+00   energy=   0.0000E+00   setid =    4842 xmoment=   0.0000E+00 ymoment=   0.0000E+00 zmoment=   0.0000E+00
 nd#    4843  xforce=   0.0000E+00   yforce=   0.0000E+00  zforce=   0.0000E+00   energy=   0.0000E+00   setid =    4843 xmoment=   0.0000E+00 ymoment=   0.0000E+00 zmoment=   0.0000E+00
 nd#    4846  xforce=   0.0000E+00   yforce=   0.0000E+00  zforce=   0.0000E+00   energy=   0.0000E+00   setid =    4846 xmoment=   0.0000E+00 ymoment=   0.0000E+00 zmoment=   0.0000E+00
 nd#    4847  xforce=   0.0000E+00   yforce=   0.0000E+00  zforce=   0.0000E+00   energy=   0.0000E+00   setid =    4847 xmoment=   0.0000E+00 ymoment=   0.0000E+00 zmoment=   0.0000E+00
 nd#    4850  xforce=   0.0000E+00   yforce=   0.0000E+00  zforce=   0.0000E+00   energy=   0.0000E+00   setid =    4850 xmoment=   0.0000E+00 ymoment=   0.0000E+00 zmoment=   0.0000E+00
 nd#    4851  xforce=   0.0000E+00   yforce=   0.0000E+00  zforce=   0.0000E+00   energy=   0.0000E+00   setid =    4851 xmoment=   0.0000E+00 ymoment=   0.0000E+00 zmoment=   0.0000E+00
 nd#    4854  xforce=   0.0000E+00   yforce=   0.0000E+00  zforce=   0.0000E+00   energy=   0.0000E+00   setid =    4854 xmoment=   0.0000E+00 ymoment=   0.0000E+00 zmoment=   0.0000E+00
 nd#    4855  xforce=   0.0000E+00   yforce=   0.0000E+00  zforce=   0.0000E+00   energy=   0.0000E+00   setid =    4855 xmoment=   0.0000E+00 ymoment=   0.0000E+00 zmoment=   0.0000E+00
 nd#    4858  xforce=   0.0000E+00   yforce=   0.0000E+00  zforce=   0.0000E+00   energy=   0.0000E+00   setid =    4858 xmoment=   0.0000E+00 ymoment=   0.0000E+00 zmoment=   0.0000E+00
 nd#    4859  xforce=   0.0000E+00   yforce=   0.0000E+00  zforce=   0.0000E+00   energy=   0.0000E+00   setid =    4859 xmoment=   0.0000E+00 ymoment=   0.0000E+00 zmoment=   0.0000E+00
 nd#    4862  xforce=   0.0000E+00   yforce=   0.0000E+00  zforce=   0.0000E+00   energy=   0.0000E+00   setid =    4862 xmoment=   0.0000E+00 ymoment=   0.0000E+00 zmoment=   0.0000E+00
 nd#    4863  xforce=   0.0000E+00   yforce=   0.0000E+00  zforce=   0.0000E+00   energy=   0.0000E+00   setid =    4863 xmoment=   0.0000E+00 ymoment=   0.0000E+00 zmoment=   0.0000E+00
 nd#    4866  xforce=   0.0000E+00   yforce=   0.0000E+00  zforce=   0.0000E+00   energy=   0.0000E+00   setid =    4866 xmoment=   0.0000E+00 ymoment=   0.0000E+00 zmoment=   0.0000E+00
 nd#    4867  xforce=   0.0000E+00   yforce=   0.0000E+00  zforce=   0.0000E+00   energy=   0.0000E+00   setid =    4867 xmoment=   0.0000E+00 ymoment=   0.0000E+00 zmoment=   0.0000E+00
 nd#    6646  xforce=   0.0000E+00   yforce=   0.0000E+00  zforce=   0.0000E+00   energy=   0.0000E+00   setid =    6646 xmoment=   0.0000E+00 ymoment=   0.0000E+00 zmoment=   0.0000E+00
 nd#    6647  xforce=   0.0000E+00   yforce=   0.0000E+00  zforce=   0.0000E+00   energy=   0.0000E+00   setid =    6647 xmoment=   0.0000E+00 ymoment=   0.0000E+00 zmoment=   0.0000E+00
 nd#    6648  xforce=   0.0000E+00   yforce=   0.0000E+00  zforce=   0.0000E+00   energy=   0.0000E+00   setid =    6648 xmoment=   0.0000E+00 ymoment=   0.0000E+00 zmoment=   0.0000E+00
 nd#    6649  xforce=   0.0000E+00   yforce=   0.0000E+00  zforce=   0.0000E+00   energy=   0.0000E+00   setid =    6649 xmoment=   0.0000E+00 ymoment=   0.0000E+00 zmoment=   0.0000E+00
 nd#    6650  xforce=   0.0000E+00   yforce=   0.0000E+00  zforce=   0.0000E+00   energy=   0.0000E+00   setid =    6650 xmoment=   0.0000E+00 ymoment=   0.0000E+00 zmoment=   0.0000E+00
 nd#    6651  xforce=   0.0000E+00   yforce=   0.0000E+00  zforce=   0.0000E+00   energy=   0.0000E+00   setid =    6651 xmoment=   0.0000E+00 ymoment=   0.0000E+00 zmoment=   0.0000E+00
 nd#    6652  xforce=   0.0000E+00   yforce=   0.0000E+00  zforce=   0.0000E+00   energy=   0.0000E+00   setid =    6652 xmoment=   0.0000E+00 ymoment=   0.0000E+00 zmoment=   0.0000E+00
 nd#    6653  xforce=   0.0000E+00   yforce=   0.0000E+00  zforce=   0.0000E+00   energy=   0.0000E+00   setid =    6653 xmoment=   0.0000E+00 ymoment=   0.0000E+00 zmoment=   0.0000E+00
 nd#    6838  xforce=   0.0000E+00   yforce=   0.0000E+00  zforce=   0.0000E+00   energy=   0.0000E+00   setid =    6838 xmoment=   0.0000E+00 ymoment=   0.0000E+00 zmoment=   0.0000E+00
 nd#    6839  xforce=   0.0000E+00   yforce=   0.0000E+00  zforce=   0.0000E+00   energy=   0.0000E+00   setid =    6839 xmoment=   0.0000E+00 ymoment=   0.0000E+00 zmoment=   0.0000E+00
 nd#    6841  xforce=   0.0000E+00   yforce=   0.0000E+00  zforce=   0.0000E+00   energy=   0.0000E+00   setid =    6841 xmoment=   0.0000E+00 ymoment=   0.0000E+00 zmoment=   0.0000E+00
 nd#    6842  xforce=   0.0000E+00   yforce=   0.0000E+00  zforce=   0.0000E+00   energy=   0.0000E+00   setid =    6842 xmoment=   0.0000E+00 ymoment=   0.0000E+00 zmoment=   0.0000E+00
 nd#    6844  xforce=   0.0000E+00   yforce=   0.0000E+00  zforce=   0.0000E+00   energy=   0.0000E+00   setid =    6844 xmoment=   0.0000E+00 ymoment=   0.0000E+00 zmoment=   0.0000E+00
 nd#    6845  xforce=   0.0000E+00   yforce=   0.0000E+00  zforce=   0.0000E+00   energy=   0.0000E+00   setid =    6845 xmoment=   0.0000E+00 ymoment=   0.0000E+00 zmoment=   0.0000E+00
 nd#    6847  xforce=   0.0000E+00   yforce=   0.0000E+00  zforce=   0.0000E+00   energy=   0.0000E+00   setid =    6847 xmoment=   0.0000E+00 ymoment=   0.0000E+00 zmoment=   0.0000E+00
 nd#    6848  xforce=   0.0000E+00   yforce=   0.0000E+00  zforce=   0.0000E+00   energy=   0.0000E+00   setid =    6848 xmoment=   0.0000E+00 ymoment=   0.0000E+00 zmoment=   0.0000E+00
 nd#    6850  xforce=   0.0000E+00   yforce=   0.0000E+00  zforce=   0.0000E+00   energy=   0.0000E+00   setid =    6850 xmoment=   0.0000E+00 ymoment=   0.0000E+00 zmoment=   0.0000E+00
 nd#    6851  xforce=   0.0000E+00   yforce=   0.0000E+00  zforce=   0.0000E+00   energy=   0.0000E+00   setid =    6851 xmoment=   0.0000E+00 ymoment=   0.0000E+00 zmoment=   0.0000E+00
 nd#    6853  xforce=   0.0000E+00   yforce=   0.0000E+00  zforce=   0.0000E+00   energy=   0.0000E+00   setid =    6853 xmoment=   0.0000E+00 ymoment=   0.0000E+00 zmoment=   0.0000E+00
 nd#    6854  xforce=   0.0000E+00   yforce=   0.0000E+00  zforce=   0.0000E+00   energy=   0.0000E+00   setid =    6854 xmoment=   0.0000E+00 ymoment=   0.0000E+00 zmoment=   0.0000E+00
 nd#    6856  xforce=   0.0000E+00   yforce=   0.0000E+00  zforce=   0.0000E+00   energy=   0.0000E+00   setid =    6856 xmoment=   0.0000E+00 ymoment=   0.0000E+00 zmoment=   0.0000E+00
 nd#    6857  xforce=   0.0000E+00   yforce=   0.0000E+00  zforce=   0.0000E+00   energy=   0.0000E+00   setid =    6857 xmoment=   0.0000E+00 ymoment=   0.0000E+00 zmoment=   0.0000E+00
 nd#    6859  xforce=   0.0000E+00   yforce=   0.0000E+00  zforce=   0.0000E+00   energy=   0.0000E+00   setid =    6859 xmoment=   0.0000E+00 ymoment=   0.0000E+00 zmoment=   0.0000E+00
 nd#    6860  xforce=   0.0000E+00   yforce=   0.0000E+00  zforce=   0.0000E+00   energy=   0.0000E+00   setid =    6860 xmoment=   0.0000E+00 ymoment=   0.0000E+00 zmoment=   0.0000E+00
 nd#    6894  xforce=   0.0000E+00   yforce=   0.0000E+00  zforce=   0.0000E+00   energy=   0.0000E+00   setid =    6894 xmoment=   0.0000E+00 ymoment=   0.0000E+00 zmoment=   0.0000E+00
 nd#    6895  xforce=   0.0000E+00   yforce=   0.0000E+00  zforce=   0.0000E+00   energy=   0.0000E+00   setid =    6895 xmoment=   0.0000E+00 ymoment=   0.0000E+00 zmoment=   0.0000E+00
 nd#    6896  xforce=   0.0000E+00   yforce=   0.0000E+00  zforce=   0.0000E+00   energy=   0.0000E+00   setid =    6896 xmoment=   0.0000E+00 ymoment=   0.0000E+00 zmoment=   0.0000E+00
 nd#    6897  xforce=   0.0000E+00   yforce=   0.0000E+00  zforce=   0.0000E+00   energy=   0.0000E+00   setid =    6897 xmoment=   0.0000E+00 ymoment=   0.0000E+00 zmoment=   0.0000E+00
 nd#    6898  xforce=   0.0000E+00   yforce=   0.0000E+00  zforce=   0.0000E+00   energy=   0.0000E+00   setid =    6898 xmoment=   0.0000E+00 ymoment=   0.0000E+00 zmoment=   0.0000E+00
 nd#    6899  xforce=   0.0000E+00   yforce=   0.0000E+00  zforce=   0.0000E+00   energy=   0.0000E+00   setid =    6899 xmoment=   0.0000E+00 ymoment=   0.0000E+00 zmoment=   0.0000E+00
 nd#    6900  xforce=   0.0000E+00   yforce=   0.0000E+00  zforce=   0.0000E+00   energy=   0.0000E+00   setid =    6900 xmoment=   0.0000E+00 ymoment=   0.0000E+00 zmoment=   0.0000E+00
 nd#    6901  xforce=   0.0000E+00   yforce=   0.0000E+00  zforce=   0.0000E+00   energy=   0.0000E+00   setid =    6901 xmoment=   0.0000E+00 ymoment=   0.0000E+00 zmoment=   0.0000E+00
 nd#    6990  xforce=   0.0000E+00   yforce=   0.0000E+00  zforce=   0.0000E+00   energy=   0.0000E+00   setid =    6990 xmoment=   0.0000E+00 ymoment=   0.0000E+00 zmoment=   0.0000E+00
 nd#    6991  xforce=   0.0000E+00   yforce=   0.0000E+00  zforce=   0.0000E+00   energy=   0.0000E+00   setid =    6991 xmoment=   0.0000E+00 ymoment=   0.0000E+00 zmoment=   0.0000E+00
 nd#    6992  xforce=   0.0000E+00   yforce=   0.0000E+00  zforce=   0.0000E+00   energy=   0.0000E+00   setid =    6992 xmoment=   0.0000E+00 ymoment=   0.0000E+00 zmoment=   0.0000E+00
 nd#    6993  xforce=   0.0000E+00   yforce=   0.0000E+00  zforce=   0.0000E+00   energy=   0.0000E+00   setid =    6993 xmoment=   0.0000E+00 ymoment=   0.0000E+00 zmoment=   0.0000E+00
 nd#    6994  xforce=   0.0000E+00   yforce=   0.0000E+00  zforce=   0.0000E+00   energy=   0.0000E+00   setid =    6994 xmoment=   0.0000E+00 ymoment=   0.0000E+00 zmoment=   0.0000E+00
 nd#    6995  xforce=   0.0000E+00   yforce=   0.0000E+00  zforce=   0.0000E+00   energy=   0.0000E+00   setid =    6995 xmoment=   0.0000E+00 ymoment=   0.0000E+00 zmoment=   0.0000E+00
 nd#    6996  xforce=   0.0000E+00   yforce=   0.0000E+00  zforce=   0.0000E+00   energy=   0.0000E+00   setid =    6996 xmoment=   0.0000E+00 ymoment=   0.0000E+00 zmoment=   0.0000E+00
 nd#    6997  xforce=   0.0000E+00   yforce=   0.0000E+00  zforce=   0.0000E+00   energy=   0.0000E+00   setid =    6997 xmoment=   0.0000E+00 ymoment=   0.0000E+00 zmoment=   0.0000E+00
 nd#    7454  xforce=   0.0000E+00   yforce=   0.0000E+00  zforce=   0.0000E+00   energy=   0.0000E+00   setid =    7454 xmoment=   0.0000E+00 ymoment=   0.0000E+00 zmoment=   0.0000E+00
 nd#    7455  xforce=   0.0000E+00   yforce=   0.0000E+00  zforce=   0.0000E+00   energy=   0.0000E+00   setid =    7455 xmoment=   0.0000E+00 ymoment=   0.0000E+00 zmoment=   0.0000E+00
 nd#    7456  xforce=   0.0000E+00   yforce=   0.0000E+00  zforce=   0.0000E+00   energy=   0.0000E+00   setid =    7456 xmoment=   0.0000E+00 ymoment=   0.0000E+00 zmoment=   0.0000E+00
 nd#    7457  xforce=   0.0000E+00   yforce=   0.0000E+00  zforce=   0.0000E+00   energy=   0.0000E+00   setid =    7457 xmoment=   0.0000E+00 ymoment=   0.0000E+00 zmoment=   0.0000E+00
 nd#    7458  xforce=   0.0000E+00   yforce=   0.0000E+00  zforce=   0.0000E+00   energy=   0.0000E+00   setid =    7458 xmoment=   0.0000E+00 ymoment=   0.0000E+00 zmoment=   0.0000E+00
 nd#    7459  xforce=   0.0000E+00   yforce=   0.0000E+00  zforce=   0.0000E+00   energy=   0.0000E+00   setid =    7459 xmoment=   0.0000E+00 ymoment=   0.0000E+00 zmoment=   0.0000E+00
 nd#    7460  xforce=   0.0000E+00   yforce=   0.0000E+00  zforce=   0.0000E+00   energy=   0.0000E+00   setid =    7460 xmoment=   0.0000E+00 ymoment=   0.0000E+00 zmoment=   0.0000E+00
 nd#    7461  xforce=   0.0000E+00   yforce=   0.0000E+00  zforce=   0.0000E+00   energy=   0.0000E+00   setid =    7461 xmoment=   0.0000E+00 ymoment=   0.0000E+00 zmoment=   0.0000E+00
 nd#    7934  xforce=   0.0000E+00   yforce=   0.0000E+00  zforce=   0.0000E+00   energy=   0.0000E+00   setid =    7934 xmoment=   0.0000E+00 ymoment=   0.0000E+00 zmoment=   0.0000E+00
 nd#    7936  xforce=   0.0000E+00   yforce=   0.0000E+00  zforce=   0.0000E+00   energy=   0.0000E+00   setid =    7936 xmoment=   0.0000E+00 ymoment=   0.0000E+00 zmoment=   0.0000E+00
 nd#    7938  xforce=   0.0000E+00   yforce=   0.0000E+00  zforce=   0.0000E+00   energy=   0.0000E+00   setid =    7938 xmoment=   0.0000E+00 ymoment=   0.0000E+00 zmoment=   0.0000E+00
 nd#    7940  xforce=   0.0000E+00   yforce=   0.0000E+00  zforce=   0.0000E+00   energy=   0.0000E+00   setid =    7940 xmoment=   0.0000E+00 ymoment=   0.0000E+00 zmoment=   0.0000E+00
 nd#    7942  xforce=   0.0000E+00   yforce=   0.0000E+00  zforce=   0.0000E+00   energy=   0.0000E+00   setid =    7942 xmoment=   0.0000E+00 ymoment=   0.0000E+00 zmoment=   0.0000E+00
 nd#    7944  xforce=   0.0000E+00   yforce=   0.0000E+00  zforce=   0.0000E+00   energy=   0.0000E+00   setid =    7944 xmoment=   0.0000E+00 ymoment=   0.0000E+00 zmoment=   0.0000E+00
 nd#    7946  xforce=   0.0000E+00   yforce=   0.0000E+00  zforce=   0.0000E+00   energy=   0.0000E+00   setid =    7946 xmoment=   0.0000E+00 ymoment=   0.0000E+00 zmoment=   0.0000E+00
 nd#    7948  xforce=   0.0000E+00   yforce=   0.0000E+00  zforce=   0.0000E+00   energy=   0.0000E+00   setid =    7948 xmoment=   0.0000E+00 ymoment=   0.0000E+00 zmoment=   0.0000E+00
              xtotal=   0.0000E+00   ytotal=   0.0000E+00  ztotal=   0.0000E+00   etotal=   0.0000E+00

 n o d a l   f o r c e/e n e r g y    o u t p u t  t=   1.29245E+00

 velocity boundary condition forces/rigid body moments 

 nd#    1393  xforce=   0.0000E+00   yforce=   0.0000E+00  zforce=  -1.5976E+01   energy=   2.1063E-04   setid =    1393 xmoment=   0.0000E+00 ymoment=   0.0000E+00 zmoment=   0.0000E+00
 nd#    1394  xforce=   0.0000E+00   yforce=   0.0000E+00  zforce=  -1.4357E+01   energy=   1.8809E-04   setid =    1394 xmoment=   0.0000E+00 ymoment=   0.0000E+00 zmoment=   0.0000E+00
 nd#    1395  xforce=   0.0000E+00   yforce=   0.0000E+00  zforce=  -1.6477E+01   energy=   2.1258E-04   setid =    1395 xmoment=   0.0000E+00 ymoment=   0.0000E+00 zmoment=   0.0000E+00
 nd#    1396  xforce=   0.0000E+00   yforce=   0.0000E+00  zforce=  -1.7890E+01   energy=   2.3297E-04   setid =    1396 xmoment=   0.0000E+00 ymoment=   0.0000E+00 zmoment=   0.0000E+00
 nd#    1508  xforce=   0.0000E+00   yforce=   0.0000E+00  zforce=  -1.3904E+01   energy=   1.7922E-04   setid =    1508 xmoment=   0.0000E+00 ymoment=   0.0000E+00 zmoment=   0.0000E+00
 nd#    1509  xforce=   0.0000E+00   yforce=   0.0000E+00  zforce=  -1.6323E+01   energy=   2.0595E-04   setid =    1509 xmoment=   0.0000E+00 ymoment=   0.0000E+00 zmoment=   0.0000E+00
 nd#    1510  xforce=   0.0000E+00   yforce=   0.0000E+00  zforce=  -1.8663E+01   energy=   2.3601E-04   setid =    1510 xmoment=   0.0000E+00 ymoment=   0.0000E+00 zmoment=   0.0000E+00
 nd#    1659  xforce=   0.0000E+00   yforce=   0.0000E+00  zforce=  -5.1589E+00   energy=   6.6865E-05   setid =    1659 xmoment=   0.0000E+00 ymoment=   0.0000E+00 zmoment=   0.0000E+00
 nd#    1660  xforce=   0.0000E+00   yforce=   0.0000E+00  zforce=  -1.4802E+01   energy=   1.9109E-04   setid =    1660 xmoment=   0.0000E+00 ymoment=   0.0000E+00 zmoment=   0.0000E+00
 nd#    1661  xforce=   0.0000E+00   yforce=   0.0000E+00  zforce=  -1.4145E+01   energy=   1.8544E-04   setid =    1661 xmoment=   0.0000E+00 ymoment=   0.0000E+00 zmoment=   0.0000E+00
 nd#    1662  xforce=   0.0000E+00   yforce=   0.0000E+00  zforce=  -6.2179E+00   energy=   7.7626E-05   setid =    1662 xmoment=   0.0000E+00 ymoment=   0.0000E+00 zmoment=   0.0000E+00
 nd#    1737  xforce=   0.0000E+00   yforce=   0.0000E+00  zforce=  -1.4049E+01   energy=   1.7889E-04   setid =    1737 xmoment=   0.0000E+00 ymoment=   0.0000E+00 zmoment=   0.0000E+00
 nd#    1738  xforce=   0.0000E+00   yforce=   0.0000E+00  zforce=  -1.6804E+01   energy=   2.1251E-04   setid =    1738 xmoment=   0.0000E+00 ymoment=   0.0000E+00 zmoment=   0.0000E+00
 nd#    1887  xforce=   0.0000E+00   yforce=   0.0000E+00  zforce=  -7.9735E+00   energy=   1.0068E-04   setid =    1887 xmoment=   0.0000E+00 ymoment=   0.0000E+00 zmoment=   0.0000E+00
 nd#    1888  xforce=   0.0000E+00   yforce=   0.0000E+00  zforce=  -1.5646E+01   energy=   2.0805E-04   setid =    1888 xmoment=   0.0000E+00 ymoment=   0.0000E+00 zmoment=   0.0000E+00
 nd#    1889  xforce=   0.0000E+00   yforce=   0.0000E+00  zforce=  -1.4235E+01   energy=   1.7723E-04   setid =    1889 xmoment=   0.0000E+00 ymoment=   0.0000E+00 zmoment=   0.0000E+00
 nd#    1890  xforce=   0.0000E+00   yforce=   0.0000E+00  zforce=  -2.5015E+00   energy=   3.9981E-05   setid =    1890 xmoment=   0.0000E+00 ymoment=   0.0000E+00 zmoment=   0.0000E+00
 nd#    2039  xforce=   0.0000E+00   yforce=   0.0000E+00  zforce=  -1.4266E+01   energy=   1.8556E-04   setid =    2039 xmoment=   0.0000E+00 ymoment=   0.0000E+00 zmoment=   0.0000E+00
 nd#    2040  xforce=   0.0000E+00   yforce=   0.0000E+00  zforce=  -1.5685E+01   energy=   2.0402E-04   setid =    2040 xmoment=   0.0000E+00 ymoment=   0.0000E+00 zmoment=   0.0000E+00
 nd#    2041  xforce=   0.0000E+00   yforce=   0.0000E+00  zforce=  -1.8562E+01   energy=   2.3034E-04   setid =    2041 xmoment=   0.0000E+00 ymoment=   0.0000E+00 zmoment=   0.0000E+00
 nd#    2042  xforce=   0.0000E+00   yforce=   0.0000E+00  zforce=  -1.4444E+01   energy=   1.9234E-04   setid =    2042 xmoment=   0.0000E+00 ymoment=   0.0000E+00 zmoment=   0.0000E+00
 nd#    2117  xforce=   0.0000E+00   yforce=   0.0000E+00  zforce=  -1.5886E+01   energy=   2.0863E-04   setid =    2117 xmoment=   0.0000E+00 ymoment=   0.0000E+00 zmoment=   0.0000E+00
 nd#    2118  xforce=   0.0000E+00   yforce=   0.0000E+00  zforce=  -1.3587E+01   energy=   1.7628E-04   setid =    2118 xmoment=   0.0000E+00 ymoment=   0.0000E+00 zmoment=   0.0000E+00
 nd#    2267  xforce=   0.0000E+00   yforce=   0.0000E+00  zforce=  -1.3849E+01   energy=   1.8258E-04   setid =    2267 xmoment=   0.0000E+00 ymoment=   0.0000E+00 zmoment=   0.0000E+00
 nd#    2268  xforce=   0.0000E+00   yforce=   0.0000E+00  zforce=  -1.2210E+01   energy=   1.6237E-04   setid =    2268 xmoment=   0.0000E+00 ymoment=   0.0000E+00 zmoment=   0.0000E+00
 nd#    2269  xforce=   0.0000E+00   yforce=   0.0000E+00  zforce=  -4.3167E+00   energy=   5.8641E-05   setid =    2269 xmoment=   0.0000E+00 ymoment=   0.0000E+00 zmoment=   0.0000E+00
 nd#    2270  xforce=   0.0000E+00   yforce=   0.0000E+00  zforce=  -4.4042E+00   energy=   6.1537E-05   setid =    2270 xmoment=   0.0000E+00 ymoment=   0.0000E+00 zmoment=   0.0000E+00
 nd#    2419  xforce=   0.0000E+00   yforce=   0.0000E+00  zforce=  -1.8174E+01   energy=   2.3165E-04   setid =    2419 xmoment=   0.0000E+00 ymoment=   0.0000E+00 zmoment=   0.0000E+00
 nd#    2420  xforce=   0.0000E+00   yforce=   0.0000E+00  zforce=  -1.5016E+01   energy=   2.0125E-04   setid =    2420 xmoment=   0.0000E+00 ymoment=   0.0000E+00 zmoment=   0.0000E+00
 nd#    2421  xforce=   0.0000E+00   yforce=   0.0000E+00  zforce=  -6.0187E+00   energy=   9.0086E-05   setid =    2421 xmoment=   0.0000E+00 ymoment=   0.0000E+00 zmoment=   0.0000E+00
 nd#    2422  xforce=   0.0000E+00   yforce=   0.0000E+00  zforce=  -1.6255E+01   energy=   1.9473E-04   setid =    2422 xmoment=   0.0000E+00 ymoment=   0.0000E+00 zmoment=   0.0000E+00
 nd#    2497  xforce=   0.0000E+00   yforce=   0.0000E+00  zforce=  -1.4803E+01   energy=   1.8906E-04   setid =    2497 xmoment=   0.0000E+00 ymoment=   0.0000E+00 zmoment=   0.0000E+00
 nd#    2498  xforce=   0.0000E+00   yforce=   0.0000E+00  zforce=  -1.2098E+01   energy=   1.5739E-04   setid =    2498 xmoment=   0.0000E+00 ymoment=   0.0000E+00 zmoment=   0.0000E+00
 nd#    2573  xforce=   0.0000E+00   yforce=   0.0000E+00  zforce=  -5.0001E+00   energy=   6.5345E-05   setid =    2573 xmoment=   0.0000E+00 ymoment=   0.0000E+00 zmoment=   0.0000E+00
 nd#    2574  xforce=   0.0000E+00   yforce=   0.0000E+00  zforce=  -5.7703E+00   energy=   7.6481E-05   setid =    2574 xmoment=   0.0000E+00 ymoment=   0.0000E+00 zmoment=   0.0000E+00
 nd#    2649  xforce=   0.0000E+00   yforce=   0.0000E+00  zforce=  -5.2419E+00   energy=   7.0205E-05   setid =    2649 xmoment=   0.0000E+00 ymoment=   0.0000E+00 zmoment=   0.0000E+00
 nd#    2650  xforce=   0.0000E+00   yforce=   0.0000E+00  zforce=  -6.2182E+00   energy=   8.2024E-05   setid =    2650 xmoment=   0.0000E+00 ymoment=   0.0000E+00 zmoment=   0.0000E+00
 nd#    2725  xforce=   0.0000E+00   yforce=   0.0000E+00  zforce=  -1.4680E+01   energy=   1.8586E-04   setid =    2725 xmoment=   0.0000E+00 ymoment=   0.0000E+00 zmoment=   0.0000E+00
 nd#    2726  xforce=   0.0000E+00   yforce=   0.0000E+00  zforce=  -1.4290E+01   energy=   1.8112E-04   setid =    2726 xmoment=   0.0000E+00 ymoment=   0.0000E+00 zmoment=   0.0000E+00
 nd#    2801  xforce=   0.0000E+00   yforce=   0.0000E+00  zforce=  -5.5662E+00   energy=   7.0356E-05   setid =    2801 xmoment=   0.0000E+00 ymoment=   0.0000E+00 zmoment=   0.0000E+00
 nd#    2802  xforce=   0.0000E+00   yforce=   0.0000E+00  zforce=  -5.1678E+00   energy=   6.5484E-05   setid =    2802 xmoment=   0.0000E+00 ymoment=   0.0000E+00 zmoment=   0.0000E+00
 nd#    2840  xforce=   0.0000E+00   yforce=   0.0000E+00  zforce=  -5.8165E+00   energy=   7.4162E-05   setid =    2840 xmoment=   0.0000E+00 ymoment=   0.0000E+00 zmoment=   0.0000E+00
 nd#    2915  xforce=   0.0000E+00   yforce=   0.0000E+00  zforce=  -1.1076E+01   energy=   1.4732E-04   setid =    2915 xmoment=   0.0000E+00 ymoment=   0.0000E+00 zmoment=   0.0000E+00
 nd#    2916  xforce=   0.0000E+00   yforce=   0.0000E+00  zforce=  -9.3734E+00   energy=   1.2390E-04   setid =    2916 xmoment=   0.0000E+00 ymoment=   0.0000E+00 zmoment=   0.0000E+00
 nd#    2991  xforce=   0.0000E+00   yforce=   0.0000E+00  zforce=  -1.1866E+01   energy=   1.5776E-04   setid =    2991 xmoment=   0.0000E+00 ymoment=   0.0000E+00 zmoment=   0.0000E+00
 nd#    2992  xforce=   0.0000E+00   yforce=   0.0000E+00  zforce=  -1.2613E+01   energy=   1.5872E-04   setid =    2992 xmoment=   0.0000E+00 ymoment=   0.0000E+00 zmoment=   0.0000E+00
 nd#    3067  xforce=   0.0000E+00   yforce=   0.0000E+00  zforce=  -1.3694E+01   energy=   1.6643E-04   setid =    3067 xmoment=   0.0000E+00 ymoment=   0.0000E+00 zmoment=   0.0000E+00
 nd#    3068  xforce=   0.0000E+00   yforce=   0.0000E+00  zforce=  -1.3927E+01   energy=   1.7637E-04   setid =    3068 xmoment=   0.0000E+00 ymoment=   0.0000E+00 zmoment=   0.0000E+00
 nd#    3143  xforce=   0.0000E+00   yforce=   0.0000E+00  zforce=  -1.9353E+01   energy=   2.4744E-04   setid =    3143 xmoment=   0.0000E+00 ymoment=   0.0000E+00 zmoment=   0.0000E+00
 nd#    3144  xforce=   0.0000E+00   yforce=   0.0000E+00  zforce=  -5.8213E+00   energy=   7.8648E-05   setid =    3144 xmoment=   0.0000E+00 ymoment=   0.0000E+00 zmoment=   0.0000E+00
 nd#    3182  xforce=   0.0000E+00   yforce=   0.0000E+00  zforce=  -1.0246E+01   energy=   1.2739E-04   setid =    3182 xmoment=   0.0000E+00 ymoment=   0.0000E+00 zmoment=   0.0000E+00
 nd#    3220  xforce=   0.0000E+00   yforce=   0.0000E+00  zforce=  -1.2185E+01   energy=   1.5642E-04   setid =    3220 xmoment=   0.0000E+00 ymoment=   0.0000E+00 zmoment=   0.0000E+00
 nd#    3258  xforce=   0.0000E+00   yforce=   0.0000E+00  zforce=  -4.6097E+00   energy=   6.1720E-05   setid =    3258 xmoment=   0.0000E+00 ymoment=   0.0000E+00 zmoment=   0.0000E+00
 nd#    3333  xforce=   0.0000E+00   yforce=   0.0000E+00  zforce=  -1.7222E+01   energy=   2.1497E-04   setid =    3333 xmoment=   0.0000E+00 ymoment=   0.0000E+00 zmoment=   0.0000E+00
 nd#    3334  xforce=   0.0000E+00   yforce=   0.0000E+00  zforce=  -1.4397E+01   energy=   1.8704E-04   setid =    3334 xmoment=   0.0000E+00 ymoment=   0.0000E+00 zmoment=   0.0000E+00
 nd#    3372  xforce=   0.0000E+00   yforce=   0.0000E+00  zforce=  -3.5543E+00   energy=   5.4227E-05   setid =    3372 xmoment=   0.0000E+00 ymoment=   0.0000E+00 zmoment=   0.0000E+00
 nd#    3410  xforce=   0.0000E+00   yforce=   0.0000E+00  zforce=  -3.5464E+00   energy=   4.1760E-05   setid =    3410 xmoment=   0.0000E+00 ymoment=   0.0000E+00 zmoment=   0.0000E+00
 nd#    3448  xforce=   0.0000E+00   yforce=   0.0000E+00  zforce=  -1.3244E+01   energy=   1.6773E-04   setid =    3448 xmoment=   0.0000E+00 ymoment=   0.0000E+00 zmoment=   0.0000E+00
 nd#    3486  xforce=   0.0000E+00   yforce=   0.0000E+00  zforce=  -9.1471E+00   energy=   1.1875E-04   setid =    3486 xmoment=   0.0000E+00 ymoment=   0.0000E+00 zmoment=   0.0000E+00
 nd#    3524  xforce=   0.0000E+00   yforce=   0.0000E+00  zforce=  -1.0439E+01   energy=   1.4456E-04   setid =    3524 xmoment=   0.0000E+00 ymoment=   0.0000E+00 zmoment=   0.0000E+00
 nd#    3562  xforce=   0.0000E+00   yforce=   0.0000E+00  zforce=  -5.5339E+00   energy=   7.0619E-05   setid =    3562 xmoment=   0.0000E+00 ymoment=   0.0000E+00 zmoment=   0.0000E+00
 nd#    3613  xforce=   0.0000E+00   yforce=   0.0000E+00  zforce=   9.3429E-01   energy=  -2.5947E-06   setid =    3613 xmoment=   0.0000E+00 ymoment=   0.0000E+00 zmoment=   0.0000E+00
 nd#    3614  xforce=   0.0000E+00   yforce=   0.0000E+00  zforce=  -3.4614E+00   energy=   5.2472E-05   setid =    3614 xmoment=   0.0000E+00 ymoment=   0.0000E+00 zmoment=   0.0000E+00
 nd#    3615  xforce=   0.0000E+00   yforce=   0.0000E+00  zforce=  -1.3511E+01   energy=   1.5236E-04   setid =    3615 xmoment=   0.0000E+00 ymoment=   0.0000E+00 zmoment=   0.0000E+00
 nd#    3616  xforce=   0.0000E+00   yforce=   0.0000E+00  zforce=   1.9902E+00   energy=  -1.2775E-06   setid =    3616 xmoment=   0.0000E+00 ymoment=   0.0000E+00 zmoment=   0.0000E+00
 nd#    3617  xforce=   0.0000E+00   yforce=   0.0000E+00  zforce=   3.2516E+00   energy=  -9.5426E-06   setid =    3617 xmoment=   0.0000E+00 ymoment=   0.0000E+00 zmoment=   0.0000E+00
 nd#    3618  xforce=   0.0000E+00   yforce=   0.0000E+00  zforce=  -1.5267E+01   energy=   1.6570E-04   setid =    3618 xmoment=   0.0000E+00 ymoment=   0.0000E+00 zmoment=   0.0000E+00
 nd#    3619  xforce=   0.0000E+00   yforce=   0.0000E+00  zforce=  -8.1129E+00   energy=   9.7448E-05   setid =    3619 xmoment=   0.0000E+00 ymoment=   0.0000E+00 zmoment=   0.0000E+00
 nd#    3620  xforce=   0.0000E+00   yforce=   0.0000E+00  zforce=  -5.0539E+00   energy=   6.7990E-05   setid =    3620 xmoment=   0.0000E+00 ymoment=   0.0000E+00 zmoment=   0.0000E+00
 nd#    3621  xforce=   0.0000E+00   yforce=   0.0000E+00  zforce=  -6.7550E+00   energy=   8.2437E-05   setid =    3621 xmoment=   0.0000E+00 ymoment=   0.0000E+00 zmoment=   0.0000E+00
 nd#    3622  xforce=   0.0000E+00   yforce=   0.0000E+00  zforce=  -4.3026E+00   energy=   5.5550E-05   setid =    3622 xmoment=   0.0000E+00 ymoment=   0.0000E+00 zmoment=   0.0000E+00
 nd#    3623  xforce=   0.0000E+00   yforce=   0.0000E+00  zforce=  -2.8531E+00   energy=   4.1059E-05   setid =    3623 xmoment=   0.0000E+00 ymoment=   0.0000E+00 zmoment=   0.0000E+00
 nd#    3624  xforce=   0.0000E+00   yforce=   0.0000E+00  zforce=  -5.2631E+00   energy=   6.5368E-05   setid =    3624 xmoment=   0.0000E+00 ymoment=   0.0000E+00 zmoment=   0.0000E+00
 nd#    3625  xforce=   0.0000E+00   yforce=   0.0000E+00  zforce=  -2.9692E+00   energy=   4.1215E-05   setid =    3625 xmoment=   0.0000E+00 ymoment=   0.0000E+00 zmoment=   0.0000E+00
 nd#    4590  xforce=   0.0000E+00   yforce=   0.0000E+00  zforce=  -9.6906E+00   energy=   1.2519E-04   setid =    4590 xmoment=   0.0000E+00 ymoment=   0.0000E+00 zmoment=   0.0000E+00
 nd#    4591  xforce=   0.0000E+00   yforce=   0.0000E+00  zforce=  -8.1263E+00   energy=   1.3367E-04   setid =    4591 xmoment=   0.0000E+00 ymoment=   0.0000E+00 zmoment=   0.0000E+00
 nd#    4594  xforce=   0.0000E+00   yforce=   0.0000E+00  zforce=  -2.6170E+01   energy=   3.0666E-04   setid =    4594 xmoment=   0.0000E+00 ymoment=   0.0000E+00 zmoment=   0.0000E+00
 nd#    4595  xforce=   0.0000E+00   yforce=   0.0000E+00  zforce=  -9.0123E+00   energy=   1.2801E-04   setid =    4595 xmoment=   0.0000E+00 ymoment=   0.0000E+00 zmoment=   0.0000E+00
 nd#    4598  xforce=   0.0000E+00   yforce=   0.0000E+00  zforce=  -2.0536E+01   energy=   2.6021E-04   setid =    4598 xmoment=   0.0000E+00 ymoment=   0.0000E+00 zmoment=   0.0000E+00
 nd#    4599  xforce=   0.0000E+00   yforce=   0.0000E+00  zforce=  -1.6164E+01   energy=   1.9330E-04   setid =    4599 xmoment=   0.0000E+00 ymoment=   0.0000E+00 zmoment=   0.0000E+00
 nd#    4602  xforce=   0.0000E+00   yforce=   0.0000E+00  zforce=  -2.5283E+01   energy=   3.0255E-04   setid =    4602 xmoment=   0.0000E+00 ymoment=   0.0000E+00 zmoment=   0.0000E+00
 nd#    4603  xforce=   0.0000E+00   yforce=   0.0000E+00  zforce=  -2.2413E+01   energy=   2.6004E-04   setid =    4603 xmoment=   0.0000E+00 ymoment=   0.0000E+00 zmoment=   0.0000E+00
 nd#    4606  xforce=   0.0000E+00   yforce=   0.0000E+00  zforce=  -5.6037E+00   energy=   1.0549E-04   setid =    4606 xmoment=   0.0000E+00 ymoment=   0.0000E+00 zmoment=   0.0000E+00
 nd#    4607  xforce=   0.0000E+00   yforce=   0.0000E+00  zforce=  -2.3992E+01   energy=   2.7377E-04   setid =    4607 xmoment=   0.0000E+00 ymoment=   0.0000E+00 zmoment=   0.0000E+00
 nd#    4610  xforce=   0.0000E+00   yforce=   0.0000E+00  zforce=  -1.5817E+01   energy=   2.0797E-04   setid =    4610 xmoment=   0.0000E+00 ymoment=   0.0000E+00 zmoment=   0.0000E+00
 nd#    4611  xforce=   0.0000E+00   yforce=   0.0000E+00  zforce=  -6.5571E+00   energy=   1.0390E-04   setid =    4611 xmoment=   0.0000E+00 ymoment=   0.0000E+00 zmoment=   0.0000E+00
 nd#    4614  xforce=   0.0000E+00   yforce=   0.0000E+00  zforce=  -1.2309E+01   energy=   1.6782E-04   setid =    4614 xmoment=   0.0000E+00 ymoment=   0.0000E+00 zmoment=   0.0000E+00
 nd#    4615  xforce=   0.0000E+00   yforce=   0.0000E+00  zforce=  -1.5557E+01   energy=   1.9634E-04   setid =    4615 xmoment=   0.0000E+00 ymoment=   0.0000E+00 zmoment=   0.0000E+00
 nd#    4618  xforce=   0.0000E+00   yforce=   0.0000E+00  zforce=  -9.0219E+00   energy=   1.0423E-04   setid =    4618 xmoment=   0.0000E+00 ymoment=   0.0000E+00 zmoment=   0.0000E+00
 nd#    4619  xforce=   0.0000E+00   yforce=   0.0000E+00  zforce=  -6.4612E+00   energy=   8.5534E-05   setid =    4619 xmoment=   0.0000E+00 ymoment=   0.0000E+00 zmoment=   0.0000E+00
 nd#    4622  xforce=   0.0000E+00   yforce=   0.0000E+00  zforce=  -2.3451E+01   energy=   2.9475E-04   setid =    4622 xmoment=   0.0000E+00 ymoment=   0.0000E+00 zmoment=   0.0000E+00
 nd#    4623  xforce=   0.0000E+00   yforce=   0.0000E+00  zforce=  -1.6906E+01   energy=   2.1151E-04   setid =    4623 xmoment=   0.0000E+00 ymoment=   0.0000E+00 zmoment=   0.0000E+00
 nd#    4626  xforce=   0.0000E+00   yforce=   0.0000E+00  zforce=  -2.7770E+01   energy=   3.2341E-04   setid =    4626 xmoment=   0.0000E+00 ymoment=   0.0000E+00 zmoment=   0.0000E+00
 nd#    4627  xforce=   0.0000E+00   yforce=   0.0000E+00  zforce=  -1.5587E+01   energy=   2.0079E-04   setid =    4627 xmoment=   0.0000E+00 ymoment=   0.0000E+00 zmoment=   0.0000E+00
 nd#    4630  xforce=   0.0000E+00   yforce=   0.0000E+00  zforce=  -2.4076E+01   energy=   2.9253E-04   setid =    4630 xmoment=   0.0000E+00 ymoment=   0.0000E+00 zmoment=   0.0000E+00
 nd#    4631  xforce=   0.0000E+00   yforce=   0.0000E+00  zforce=  -1.2256E+01   energy=   1.5571E-04   setid =    4631 xmoment=   0.0000E+00 ymoment=   0.0000E+00 zmoment=   0.0000E+00
 nd#    4634  xforce=   0.0000E+00   yforce=   0.0000E+00  zforce=  -1.5311E+01   energy=   1.9164E-04   setid =    4634 xmoment=   0.0000E+00 ymoment=   0.0000E+00 zmoment=   0.0000E+00
 nd#    4635  xforce=   0.0000E+00   yforce=   0.0000E+00  zforce=  -1.8865E+01   energy=   2.4333E-04   setid =    4635 xmoment=   0.0000E+00 ymoment=   0.0000E+00 zmoment=   0.0000E+00
 nd#    4638  xforce=   0.0000E+00   yforce=   0.0000E+00  zforce=  -1.2636E+01   energy=   1.7663E-04   setid =    4638 xmoment=   0.0000E+00 ymoment=   0.0000E+00 zmoment=   0.0000E+00
 nd#    4639  xforce=   0.0000E+00   yforce=   0.0000E+00  zforce=  -8.5379E+00   energy=   1.2192E-04   setid =    4639 xmoment=   0.0000E+00 ymoment=   0.0000E+00 zmoment=   0.0000E+00
 nd#    4642  xforce=   0.0000E+00   yforce=   0.0000E+00  zforce=  -1.3261E+01   energy=   1.7198E-04   setid =    4642 xmoment=   0.0000E+00 ymoment=   0.0000E+00 zmoment=   0.0000E+00
 nd#    4643  xforce=   0.0000E+00   yforce=   0.0000E+00  zforce=  -1.5062E+01   energy=   1.7775E-04   setid =    4643 xmoment=   0.0000E+00 ymoment=   0.0000E+00 zmoment=   0.0000E+00
 nd#    4646  xforce=   0.0000E+00   yforce=   0.0000E+00  zforce=  -1.1678E+01   energy=   1.5748E-04   setid =    4646 xmoment=   0.0000E+00 ymoment=   0.0000E+00 zmoment=   0.0000E+00
 nd#    4647  xforce=   0.0000E+00   yforce=   0.0000E+00  zforce=  -2.4248E+01   energy=   2.8438E-04   setid =    4647 xmoment=   0.0000E+00 ymoment=   0.0000E+00 zmoment=   0.0000E+00
 nd#    4650  xforce=   0.0000E+00   yforce=   0.0000E+00  zforce=  -5.0027E+00   energy=   6.9888E-05   setid =    4650 xmoment=   0.0000E+00 ymoment=   0.0000E+00 zmoment=   0.0000E+00
 nd#    4651  xforce=   0.0000E+00   yforce=   0.0000E+00  zforce=  -1.5654E+00   energy=   3.5551E-05   setid =    4651 xmoment=   0.0000E+00 ymoment=   0.0000E+00 zmoment=   0.0000E+00
 nd#    4838  xforce=   0.0000E+00   yforce=   0.0000E+00  zforce=  -1.7567E+01   energy=   2.2063E-04   setid =    4838 xmoment=   0.0000E+00 ymoment=   0.0000E+00 zmoment=   0.0000E+00
 nd#    4839  xforce=   0.0000E+00   yforce=   0.0000E+00  zforce=  -8.4791E+00   energy=   1.0213E-04   setid =    4839 xmoment=   0.0000E+00 ymoment=   0.0000E+00 zmoment=   0.0000E+00
 nd#    4842  xforce=   0.0000E+00   yforce=   0.0000E+00  zforce=  -1.0268E+01   energy=   1.4325E-04   setid =    4842 xmoment=   0.0000E+00 ymoment=   0.0000E+00 zmoment=   0.0000E+00
 nd#    4843  xforce=   0.0000E+00   yforce=   0.0000E+00  zforce=  -7.5219E+00   energy=   8.7279E-05   setid =    4843 xmoment=   0.0000E+00 ymoment=   0.0000E+00 zmoment=   0.0000E+00
 nd#    4846  xforce=   0.0000E+00   yforce=   0.0000E+00  zforce=  -1.3017E+01   energy=   1.7426E-04   setid =    4846 xmoment=   0.0000E+00 ymoment=   0.0000E+00 zmoment=   0.0000E+00
 nd#    4847  xforce=   0.0000E+00   yforce=   0.0000E+00  zforce=   5.5479E+00   energy=  -4.3607E-05   setid =    4847 xmoment=   0.0000E+00 ymoment=   0.0000E+00 zmoment=   0.0000E+00
 nd#    4850  xforce=   0.0000E+00   yforce=   0.0000E+00  zforce=  -1.9510E+01   energy=   2.2989E-04   setid =    4850 xmoment=   0.0000E+00 ymoment=   0.0000E+00 zmoment=   0.0000E+00
 nd#    4851  xforce=   0.0000E+00   yforce=   0.0000E+00  zforce=  -1.6502E+00   energy=   3.2896E-05   setid =    4851 xmoment=   0.0000E+00 ymoment=   0.0000E+00 zmoment=   0.0000E+00
 nd#    4854  xforce=   0.0000E+00   yforce=   0.0000E+00  zforce=  -3.1704E+01   energy=   3.6334E-04   setid =    4854 xmoment=   0.0000E+00 ymoment=   0.0000E+00 zmoment=   0.0000E+00
 nd#    4855  xforce=   0.0000E+00   yforce=   0.0000E+00  zforce=  -9.9841E+00   energy=   1.1683E-04   setid =    4855 xmoment=   0.0000E+00 ymoment=   0.0000E+00 zmoment=   0.0000E+00
 nd#    4858  xforce=   0.0000E+00   yforce=   0.0000E+00  zforce=  -1.6784E+01   energy=   2.1427E-04   setid =    4858 xmoment=   0.0000E+00 ymoment=   0.0000E+00 zmoment=   0.0000E+00
 nd#    4859  xforce=   0.0000E+00   yforce=   0.0000E+00  zforce=  -5.9524E+00   energy=   6.6230E-05   setid =    4859 xmoment=   0.0000E+00 ymoment=   0.0000E+00 zmoment=   0.0000E+00
 nd#    4862  xforce=   0.0000E+00   yforce=   0.0000E+00  zforce=  -5.2984E+00   energy=   1.0409E-04   setid =    4862 xmoment=   0.0000E+00 ymoment=   0.0000E+00 zmoment=   0.0000E+00
 nd#    4863  xforce=   0.0000E+00   yforce=   0.0000E+00  zforce=  -6.9493E+00   energy=   7.9634E-05   setid =    4863 xmoment=   0.0000E+00 ymoment=   0.0000E+00 zmoment=   0.0000E+00
 nd#    4866  xforce=   0.0000E+00   yforce=   0.0000E+00  zforce=  -8.7439E+00   energy=   1.1671E-04   setid =    4866 xmoment=   0.0000E+00 ymoment=   0.0000E+00 zmoment=   0.0000E+00
 nd#    4867  xforce=   0.0000E+00   yforce=   0.0000E+00  zforce=  -3.9330E+00   energy=   5.6301E-05   setid =    4867 xmoment=   0.0000E+00 ymoment=   0.0000E+00 zmoment=   0.0000E+00
 nd#    6646  xforce=   0.0000E+00   yforce=   0.0000E+00  zforce=  -1.8718E+01   energy=   2.1654E-04   setid =    6646 xmoment=   0.0000E+00 ymoment=   0.0000E+00 zmoment=   0.0000E+00
 nd#    6647  xforce=   0.0000E+00   yforce=   0.0000E+00  zforce=  -2.4400E+01   energy=   2.9592E-04   setid =    6647 xmoment=   0.0000E+00 ymoment=   0.0000E+00 zmoment=   0.0000E+00
 nd#    6648  xforce=   0.0000E+00   yforce=   0.0000E+00  zforce=  -1.1062E+01   energy=   1.7164E-04   setid =    6648 xmoment=   0.0000E+00 ymoment=   0.0000E+00 zmoment=   0.0000E+00
 nd#    6649  xforce=   0.0000E+00   yforce=   0.0000E+00  zforce=   1.9905E+00   energy=   1.4640E-05   setid =    6649 xmoment=   0.0000E+00 ymoment=   0.0000E+00 zmoment=   0.0000E+00
 nd#    6650  xforce=   0.0000E+00   yforce=   0.0000E+00  zforce=  -2.5827E+00   energy=   5.9196E-05   setid =    6650 xmoment=   0.0000E+00 ymoment=   0.0000E+00 zmoment=   0.0000E+00
 nd#    6651  xforce=   0.0000E+00   yforce=   0.0000E+00  zforce=  -1.7292E+01   energy=   2.1969E-04   setid =    6651 xmoment=   0.0000E+00 ymoment=   0.0000E+00 zmoment=   0.0000E+00
 nd#    6652  xforce=   0.0000E+00   yforce=   0.0000E+00  zforce=  -1.3023E+01   energy=   1.7339E-04   setid =    6652 xmoment=   0.0000E+00 ymoment=   0.0000E+00 zmoment=   0.0000E+00
 nd#    6653  xforce=   0.0000E+00   yforce=   0.0000E+00  zforce=  -1.2238E+01   energy=   1.3807E-04   setid =    6653 xmoment=   0.0000E+00 ymoment=   0.0000E+00 zmoment=   0.0000E+00
 nd#    6838  xforce=   0.0000E+00   yforce=   0.0000E+00  zforce=  -1.3413E+01   energy=   1.6407E-04   setid =    6838 xmoment=   0.0000E+00 ymoment=   0.0000E+00 zmoment=   0.0000E+00
 nd#    6839  xforce=   0.0000E+00   yforce=   0.0000E+00  zforce=  -1.2737E+01   energy=   1.6756E-04   setid =    6839 xmoment=   0.0000E+00 ymoment=   0.0000E+00 zmoment=   0.0000E+00
 nd#    6841  xforce=   0.0000E+00   yforce=   0.0000E+00  zforce=  -1.1858E+01   energy=   1.5152E-04   setid =    6841 xmoment=   0.0000E+00 ymoment=   0.0000E+00 zmoment=   0.0000E+00
 nd#    6842  xforce=   0.0000E+00   yforce=   0.0000E+00  zforce=  -1.0216E+01   energy=   1.3566E-04   setid =    6842 xmoment=   0.0000E+00 ymoment=   0.0000E+00 zmoment=   0.0000E+00
 nd#    6844  xforce=   0.0000E+00   yforce=   0.0000E+00  zforce=  -1.5974E+01   energy=   1.9730E-04   setid =    6844 xmoment=   0.0000E+00 ymoment=   0.0000E+00 zmoment=   0.0000E+00
 nd#    6845  xforce=   0.0000E+00   yforce=   0.0000E+00  zforce=  -1.1431E+01   energy=   1.3903E-04   setid =    6845 xmoment=   0.0000E+00 ymoment=   0.0000E+00 zmoment=   0.0000E+00
 nd#    6847  xforce=   0.0000E+00   yforce=   0.0000E+00  zforce=  -1.9744E+01   energy=   2.4120E-04   setid =    6847 xmoment=   0.0000E+00 ymoment=   0.0000E+00 zmoment=   0.0000E+00
 nd#    6848  xforce=   0.0000E+00   yforce=   0.0000E+00  zforce=  -1.0590E+01   energy=   1.3965E-04   setid =    6848 xmoment=   0.0000E+00 ymoment=   0.0000E+00 zmoment=   0.0000E+00
 nd#    6850  xforce=   0.0000E+00   yforce=   0.0000E+00  zforce=  -2.2565E+01   energy=   2.7671E-04   setid =    6850 xmoment=   0.0000E+00 ymoment=   0.0000E+00 zmoment=   0.0000E+00
 nd#    6851  xforce=   0.0000E+00   yforce=   0.0000E+00  zforce=  -1.1553E+01   energy=   1.5052E-04   setid =    6851 xmoment=   0.0000E+00 ymoment=   0.0000E+00 zmoment=   0.0000E+00
 nd#    6853  xforce=   0.0000E+00   yforce=   0.0000E+00  zforce=  -1.5287E+01   energy=   1.9976E-04   setid =    6853 xmoment=   0.0000E+00 ymoment=   0.0000E+00 zmoment=   0.0000E+00
 nd#    6854  xforce=   0.0000E+00   yforce=   0.0000E+00  zforce=  -1.3310E+01   energy=   1.6958E-04   setid =    6854 xmoment=   0.0000E+00 ymoment=   0.0000E+00 zmoment=   0.0000E+00
 nd#    6856  xforce=   0.0000E+00   yforce=   0.0000E+00  zforce=  -1.4621E+01   energy=   1.9202E-04   setid =    6856 xmoment=   0.0000E+00 ymoment=   0.0000E+00 zmoment=   0.0000E+00
 nd#    6857  xforce=   0.0000E+00   yforce=   0.0000E+00  zforce=  -1.9419E+01   energy=   2.2736E-04   setid =    6857 xmoment=   0.0000E+00 ymoment=   0.0000E+00 zmoment=   0.0000E+00
 nd#    6859  xforce=   0.0000E+00   yforce=   0.0000E+00  zforce=  -5.9203E+00   energy=   7.6750E-05   setid =    6859 xmoment=   0.0000E+00 ymoment=   0.0000E+00 zmoment=   0.0000E+00
 nd#    6860  xforce=   0.0000E+00   yforce=   0.0000E+00  zforce=  -4.2220E+00   energy=   5.9814E-05   setid =    6860 xmoment=   0.0000E+00 ymoment=   0.0000E+00 zmoment=   0.0000E+00
 nd#    6894  xforce=   0.0000E+00   yforce=   0.0000E+00  zforce=  -1.5449E+01   energy=   2.0223E-04   setid =    6894 xmoment=   0.0000E+00 ymoment=   0.0000E+00 zmoment=   0.0000E+00
 nd#    6895  xforce=   0.0000E+00   yforce=   0.0000E+00  zforce=  -4.3388E+00   energy=   9.1647E-05   setid =    6895 xmoment=   0.0000E+00 ymoment=   0.0000E+00 zmoment=   0.0000E+00
 nd#    6896  xforce=   0.0000E+00   yforce=   0.0000E+00  zforce=   2.2625E+00   energy=   1.0907E-05   setid =    6896 xmoment=   0.0000E+00 ymoment=   0.0000E+00 zmoment=   0.0000E+00
 nd#    6897  xforce=   0.0000E+00   yforce=   0.0000E+00  zforce=  -3.1523E+00   energy=   6.4367E-05   setid =    6897 xmoment=   0.0000E+00 ymoment=   0.0000E+00 zmoment=   0.0000E+00
 nd#    6898  xforce=   0.0000E+00   yforce=   0.0000E+00  zforce=  -2.4105E+01   energy=   2.7348E-04   setid =    6898 xmoment=   0.0000E+00 ymoment=   0.0000E+00 zmoment=   0.0000E+00
 nd#    6899  xforce=   0.0000E+00   yforce=   0.0000E+00  zforce=  -1.7851E+01   energy=   2.0574E-04   setid =    6899 xmoment=   0.0000E+00 ymoment=   0.0000E+00 zmoment=   0.0000E+00
 nd#    6900  xforce=   0.0000E+00   yforce=   0.0000E+00  zforce=  -1.2547E+01   energy=   1.6231E-04   setid =    6900 xmoment=   0.0000E+00 ymoment=   0.0000E+00 zmoment=   0.0000E+00
 nd#    6901  xforce=   0.0000E+00   yforce=   0.0000E+00  zforce=  -2.0443E+00   energy=   3.6541E-05   setid =    6901 xmoment=   0.0000E+00 ymoment=   0.0000E+00 zmoment=   0.0000E+00
 nd#    6990  xforce=   0.0000E+00   yforce=   0.0000E+00  zforce=  -1.5269E+01   energy=   1.8224E-04   setid =    6990 xmoment=   0.0000E+00 ymoment=   0.0000E+00 zmoment=   0.0000E+00
 nd#    6991  xforce=   0.0000E+00   yforce=   0.0000E+00  zforce=  -1.1459E+01   energy=   1.5137E-04   setid =    6991 xmoment=   0.0000E+00 ymoment=   0.0000E+00 zmoment=   0.0000E+00
 nd#    6992  xforce=   0.0000E+00   yforce=   0.0000E+00  zforce=  -1.4900E+01   energy=   1.8838E-04   setid =    6992 xmoment=   0.0000E+00 ymoment=   0.0000E+00 zmoment=   0.0000E+00
 nd#    6993  xforce=   0.0000E+00   yforce=   0.0000E+00  zforce=  -1.0642E+01   energy=   1.4667E-04   setid =    6993 xmoment=   0.0000E+00 ymoment=   0.0000E+00 zmoment=   0.0000E+00
 nd#    6994  xforce=   0.0000E+00   yforce=   0.0000E+00  zforce=  -9.9821E+00   energy=   1.2692E-04   setid =    6994 xmoment=   0.0000E+00 ymoment=   0.0000E+00 zmoment=   0.0000E+00
 nd#    6995  xforce=   0.0000E+00   yforce=   0.0000E+00  zforce=  -8.1144E+00   energy=   1.0861E-04   setid =    6995 xmoment=   0.0000E+00 ymoment=   0.0000E+00 zmoment=   0.0000E+00
 nd#    6996  xforce=   0.0000E+00   yforce=   0.0000E+00  zforce=  -1.1767E+01   energy=   1.5145E-04   setid =    6996 xmoment=   0.0000E+00 ymoment=   0.0000E+00 zmoment=   0.0000E+00
 nd#    6997  xforce=   0.0000E+00   yforce=   0.0000E+00  zforce=  -5.7120E-01   energy=   1.8995E-05   setid =    6997 xmoment=   0.0000E+00 ymoment=   0.0000E+00 zmoment=   0.0000E+00
 nd#    7454  xforce=   0.0000E+00   yforce=   0.0000E+00  zforce=  -1.0142E+01   energy=   1.4435E-04   setid =    7454 xmoment=   0.0000E+00 ymoment=   0.0000E+00 zmoment=   0.0000E+00
 nd#    7455  xforce=   0.0000E+00   yforce=   0.0000E+00  zforce=  -1.0815E+01   energy=   1.5883E-04   setid =    7455 xmoment=   0.0000E+00 ymoment=   0.0000E+00 zmoment=   0.0000E+00
 nd#    7456  xforce=   0.0000E+00   yforce=   0.0000E+00  zforce=  -2.7026E+01   energy=   3.1650E-04   setid =    7456 xmoment=   0.0000E+00 ymoment=   0.0000E+00 zmoment=   0.0000E+00
 nd#    7457  xforce=   0.0000E+00   yforce=   0.0000E+00  zforce=  -1.6619E+01   energy=   2.1377E-04   setid =    7457 xmoment=   0.0000E+00 ymoment=   0.0000E+00 zmoment=   0.0000E+00
 nd#    7458  xforce=   0.0000E+00   yforce=   0.0000E+00  zforce=   6.9868E-01   energy=   3.6980E-05   setid =    7458 xmoment=   0.0000E+00 ymoment=   0.0000E+00 zmoment=   0.0000E+00
 nd#    7459  xforce=   0.0000E+00   yforce=   0.0000E+00  zforce=  -3.9285E+00   energy=   9.0451E-05   setid =    7459 xmoment=   0.0000E+00 ymoment=   0.0000E+00 zmoment=   0.0000E+00
 nd#    7460  xforce=   0.0000E+00   yforce=   0.0000E+00  zforce=  -1.3448E+01   energy=   1.8127E-04   setid =    7460 xmoment=   0.0000E+00 ymoment=   0.0000E+00 zmoment=   0.0000E+00
 nd#    7461  xforce=   0.0000E+00   yforce=   0.0000E+00  zforce=  -1.1957E+01   energy=   1.3643E-04   setid =    7461 xmoment=   0.0000E+00 ymoment=   0.0000E+00 zmoment=   0.0000E+00
 nd#    7934  xforce=   0.0000E+00   yforce=   0.0000E+00  zforce=  -1.9370E+01   energy=   2.2801E-04   setid =    7934 xmoment=   0.0000E+00 ymoment=   0.0000E+00 zmoment=   0.0000E+00
 nd#    7936  xforce=   0.0000E+00   yforce=   0.0000E+00  zforce=  -1.2717E+01   energy=   1.6908E-04   setid =    7936 xmoment=   0.0000E+00 ymoment=   0.0000E+00 zmoment=   0.0000E+00
 nd#    7938  xforce=   0.0000E+00   yforce=   0.0000E+00  zforce=  -1.2282E+01   energy=   1.7099E-04   setid =    7938 xmoment=   0.0000E+00 ymoment=   0.0000E+00 zmoment=   0.0000E+00
 nd#    7940  xforce=   0.0000E+00   yforce=   0.0000E+00  zforce=  -1.3257E+01   energy=   1.8012E-04   setid =    7940 xmoment=   0.0000E+00 ymoment=   0.0000E+00 zmoment=   0.0000E+00
 nd#    7942  xforce=   0.0000E+00   yforce=   0.0000E+00  zforce=  -6.4346E+00   energy=   9.7566E-05   setid =    7942 xmoment=   0.0000E+00 ymoment=   0.0000E+00 zmoment=   0.0000E+00
 nd#    7944  xforce=   0.0000E+00   yforce=   0.0000E+00  zforce=  -7.9309E+00   energy=   9.6219E-05   setid =    7944 xmoment=   0.0000E+00 ymoment=   0.0000E+00 zmoment=   0.0000E+00
 nd#    7946  xforce=   0.0000E+00   yforce=   0.0000E+00  zforce=  -6.5159E+00   energy=   9.3847E-05   setid =    7946 xmoment=   0.0000E+00 ymoment=   0.0000E+00 zmoment=   0.0000E+00
 nd#    7948  xforce=   0.0000E+00   yforce=   0.0000E+00  zforce=  -2.8775E+00   energy=   4.4006E-05   setid =    7948 xmoment=   0.0000E+00 ymoment=   0.0000E+00 zmoment=   0.0000E+00
              xtotal=   0.0000E+00   ytotal=   0.0000E+00  ztotal=  -2.0511E+03   etotal=   2.6497E-02

 n o d a l   f o r c e/e n e r g y    o u t p u t  t=   2.54839E+00

 velocity boundary condition forces/rigid body moments 

 nd#    1393  xforce=   0.0000E+00   yforce=   0.0000E+00  zforce=  -2.1608E+01   energy=   6.8266E-04   setid =    1393 xmoment=   0.0000E+00 ymoment=   0.0000E+00 zmoment=   0.0000E+00
 nd#    1394  xforce=   0.0000E+00   yforce=   0.0000E+00  zforce=  -1.6429E+01   energy=   5.7475E-04   setid =    1394 xmoment=   0.0000E+00 ymoment=   0.0000E+00 zmoment=   0.0000E+00
 nd#    1395  xforce=   0.0000E+00   yforce=   0.0000E+00  zforce=  -2.0852E+01   energy=   6.8142E-04   setid =    1395 xmoment=   0.0000E+00 ymoment=   0.0000E+00 zmoment=   0.0000E+00
 nd#    1396  xforce=   0.0000E+00   yforce=   0.0000E+00  zforce=  -2.7163E+01   energy=   7.9880E-04   setid =    1396 xmoment=   0.0000E+00 ymoment=   0.0000E+00 zmoment=   0.0000E+00
 nd#    1508  xforce=   0.0000E+00   yforce=   0.0000E+00  zforce=  -1.4326E+01   energy=   5.3377E-04   setid =    1508 xmoment=   0.0000E+00 ymoment=   0.0000E+00 zmoment=   0.0000E+00
 nd#    1509  xforce=   0.0000E+00   yforce=   0.0000E+00  zforce=  -1.8909E+01   energy=   6.4844E-04   setid =    1509 xmoment=   0.0000E+00 ymoment=   0.0000E+00 zmoment=   0.0000E+00
 nd#    1510  xforce=   0.0000E+00   yforce=   0.0000E+00  zforce=  -2.6077E+01   energy=   7.9792E-04   setid =    1510 xmoment=   0.0000E+00 ymoment=   0.0000E+00 zmoment=   0.0000E+00
 nd#    1659  xforce=   0.0000E+00   yforce=   0.0000E+00  zforce=  -1.5020E+01   energy=   3.2030E-04   setid =    1659 xmoment=   0.0000E+00 ymoment=   0.0000E+00 zmoment=   0.0000E+00
 nd#    1660  xforce=   0.0000E+00   yforce=   0.0000E+00  zforce=  -3.0181E+01   energy=   7.5605E-04   setid =    1660 xmoment=   0.0000E+00 ymoment=   0.0000E+00 zmoment=   0.0000E+00
 nd#    1661  xforce=   0.0000E+00   yforce=   0.0000E+00  zforce=  -4.1777E+01   energy=   8.8779E-04   setid =    1661 xmoment=   0.0000E+00 ymoment=   0.0000E+00 zmoment=   0.0000E+00
 nd#    1662  xforce=   0.0000E+00   yforce=   0.0000E+00  zforce=  -3.5073E+01   energy=   5.9621E-04   setid =    1662 xmoment=   0.0000E+00 ymoment=   0.0000E+00 zmoment=   0.0000E+00
 nd#    1737  xforce=   0.0000E+00   yforce=   0.0000E+00  zforce=   1.1664E+01   energy=   2.0884E-04   setid =    1737 xmoment=   0.0000E+00 ymoment=   0.0000E+00 zmoment=   0.0000E+00
 nd#    1738  xforce=   0.0000E+00   yforce=   0.0000E+00  zforce=   2.8758E+00   energy=   3.8743E-04   setid =    1738 xmoment=   0.0000E+00 ymoment=   0.0000E+00 zmoment=   0.0000E+00
 nd#    1887  xforce=   0.0000E+00   yforce=   0.0000E+00  zforce=  -7.7803E+00   energy=   2.9854E-04   setid =    1887 xmoment=   0.0000E+00 ymoment=   0.0000E+00 zmoment=   0.0000E+00
 nd#    1888  xforce=   0.0000E+00   yforce=   0.0000E+00  zforce=  -1.6674E+01   energy=   6.1397E-04   setid =    1888 xmoment=   0.0000E+00 ymoment=   0.0000E+00 zmoment=   0.0000E+00
 nd#    1889  xforce=   0.0000E+00   yforce=   0.0000E+00  zforce=  -2.5993E+01   energy=   6.8247E-04   setid =    1889 xmoment=   0.0000E+00 ymoment=   0.0000E+00 zmoment=   0.0000E+00
 nd#    1890  xforce=   0.0000E+00   yforce=   0.0000E+00  zforce=  -1.3586E+01   energy=   2.4203E-04   setid =    1890 xmoment=   0.0000E+00 ymoment=   0.0000E+00 zmoment=   0.0000E+00
 nd#    2039  xforce=   0.0000E+00   yforce=   0.0000E+00  zforce=  -1.7253E+01   energy=   5.8143E-04   setid =    2039 xmoment=   0.0000E+00 ymoment=   0.0000E+00 zmoment=   0.0000E+00
 nd#    2040  xforce=   0.0000E+00   yforce=   0.0000E+00  zforce=  -1.4857E+01   energy=   5.8760E-04   setid =    2040 xmoment=   0.0000E+00 ymoment=   0.0000E+00 zmoment=   0.0000E+00
 nd#    2041  xforce=   0.0000E+00   yforce=   0.0000E+00  zforce=  -2.0183E+01   energy=   7.1696E-04   setid =    2041 xmoment=   0.0000E+00 ymoment=   0.0000E+00 zmoment=   0.0000E+00
 nd#    2042  xforce=   0.0000E+00   yforce=   0.0000E+00  zforce=  -1.6968E+01   energy=   5.8685E-04   setid =    2042 xmoment=   0.0000E+00 ymoment=   0.0000E+00 zmoment=   0.0000E+00
 nd#    2117  xforce=   0.0000E+00   yforce=   0.0000E+00  zforce=  -2.1563E+01   energy=   6.7896E-04   setid =    2117 xmoment=   0.0000E+00 ymoment=   0.0000E+00 zmoment=   0.0000E+00
 nd#    2118  xforce=   0.0000E+00   yforce=   0.0000E+00  zforce=  -1.5267E+01   energy=   5.3867E-04   setid =    2118 xmoment=   0.0000E+00 ymoment=   0.0000E+00 zmoment=   0.0000E+00
 nd#    2267  xforce=   0.0000E+00   yforce=   0.0000E+00  zforce=  -1.8583E+01   energy=   5.8991E-04   setid =    2267 xmoment=   0.0000E+00 ymoment=   0.0000E+00 zmoment=   0.0000E+00
 nd#    2268  xforce=   0.0000E+00   yforce=   0.0000E+00  zforce=  -1.8239E+01   energy=   5.4479E-04   setid =    2268 xmoment=   0.0000E+00 ymoment=   0.0000E+00 zmoment=   0.0000E+00
 nd#    2269  xforce=   0.0000E+00   yforce=   0.0000E+00  zforce=  -1.0454E+01   energy=   2.4416E-04   setid =    2269 xmoment=   0.0000E+00 ymoment=   0.0000E+00 zmoment=   0.0000E+00
 nd#    2270  xforce=   0.0000E+00   yforce=   0.0000E+00  zforce=  -7.4360E+00   energy=   2.1024E-04   setid =    2270 xmoment=   0.0000E+00 ymoment=   0.0000E+00 zmoment=   0.0000E+00
 nd#    2419  xforce=   0.0000E+00   yforce=   0.0000E+00  zforce=  -2.8244E+01   energy=   8.1463E-04   setid =    2419 xmoment=   0.0000E+00 ymoment=   0.0000E+00 zmoment=   0.0000E+00
 nd#    2420  xforce=   0.0000E+00   yforce=   0.0000E+00  zforce=  -1.4781E+01   energy=   5.7549E-04   setid =    2420 xmoment=   0.0000E+00 ymoment=   0.0000E+00 zmoment=   0.0000E+00
 nd#    2421  xforce=   0.0000E+00   yforce=   0.0000E+00  zforce=  -1.5355E+01   energy=   3.5853E-04   setid =    2421 xmoment=   0.0000E+00 ymoment=   0.0000E+00 zmoment=   0.0000E+00
 nd#    2422  xforce=   0.0000E+00   yforce=   0.0000E+00  zforce=  -2.3140E+01   energy=   6.8951E-04   setid =    2422 xmoment=   0.0000E+00 ymoment=   0.0000E+00 zmoment=   0.0000E+00
 nd#    2497  xforce=   0.0000E+00   yforce=   0.0000E+00  zforce=  -1.9013E+01   energy=   6.1377E-04   setid =    2497 xmoment=   0.0000E+00 ymoment=   0.0000E+00 zmoment=   0.0000E+00
 nd#    2498  xforce=   0.0000E+00   yforce=   0.0000E+00  zforce=  -8.5745E+00   energy=   4.1702E-04   setid =    2498 xmoment=   0.0000E+00 ymoment=   0.0000E+00 zmoment=   0.0000E+00
 nd#    2573  xforce=   0.0000E+00   yforce=   0.0000E+00  zforce=   1.6618E+00   energy=   1.0727E-04   setid =    2573 xmoment=   0.0000E+00 ymoment=   0.0000E+00 zmoment=   0.0000E+00
 nd#    2574  xforce=   0.0000E+00   yforce=   0.0000E+00  zforce=   4.3760E-01   energy=   1.4346E-04   setid =    2574 xmoment=   0.0000E+00 ymoment=   0.0000E+00 zmoment=   0.0000E+00
 nd#    2649  xforce=   0.0000E+00   yforce=   0.0000E+00  zforce=  -1.2688E+01   energy=   2.9539E-04   setid =    2649 xmoment=   0.0000E+00 ymoment=   0.0000E+00 zmoment=   0.0000E+00
 nd#    2650  xforce=   0.0000E+00   yforce=   0.0000E+00  zforce=  -1.6479E+01   energy=   3.6709E-04   setid =    2650 xmoment=   0.0000E+00 ymoment=   0.0000E+00 zmoment=   0.0000E+00
 nd#    2725  xforce=   0.0000E+00   yforce=   0.0000E+00  zforce=  -1.2940E+01   energy=   5.3274E-04   setid =    2725 xmoment=   0.0000E+00 ymoment=   0.0000E+00 zmoment=   0.0000E+00
 nd#    2726  xforce=   0.0000E+00   yforce=   0.0000E+00  zforce=  -9.0590E+00   energy=   4.7437E-04   setid =    2726 xmoment=   0.0000E+00 ymoment=   0.0000E+00 zmoment=   0.0000E+00
 nd#    2801  xforce=   0.0000E+00   yforce=   0.0000E+00  zforce=  -1.5227E+00   energy=   1.5939E-04   setid =    2801 xmoment=   0.0000E+00 ymoment=   0.0000E+00 zmoment=   0.0000E+00
 nd#    2802  xforce=   0.0000E+00   yforce=   0.0000E+00  zforce=  -1.1195E+01   energy=   2.7100E-04   setid =    2802 xmoment=   0.0000E+00 ymoment=   0.0000E+00 zmoment=   0.0000E+00
 nd#    2840  xforce=   0.0000E+00   yforce=   0.0000E+00  zforce=  -2.0486E+01   energy=   4.0450E-04   setid =    2840 xmoment=   0.0000E+00 ymoment=   0.0000E+00 zmoment=   0.0000E+00
 nd#    2915  xforce=   0.0000E+00   yforce=   0.0000E+00  zforce=  -8.9808E+00   energy=   3.9923E-04   setid =    2915 xmoment=   0.0000E+00 ymoment=   0.0000E+00 zmoment=   0.0000E+00
 nd#    2916  xforce=   0.0000E+00   yforce=   0.0000E+00  zforce=  -2.2184E-02   energy=   2.4190E-04   setid =    2916 xmoment=   0.0000E+00 ymoment=   0.0000E+00 zmoment=   0.0000E+00
 nd#    2991  xforce=   0.0000E+00   yforce=   0.0000E+00  zforce=  -2.2260E+01   energy=   5.8636E-04   setid =    2991 xmoment=   0.0000E+00 ymoment=   0.0000E+00 zmoment=   0.0000E+00
 nd#    2992  xforce=   0.0000E+00   yforce=   0.0000E+00  zforce=  -1.8410E+01   energy=   5.4835E-04   setid =    2992 xmoment=   0.0000E+00 ymoment=   0.0000E+00 zmoment=   0.0000E+00
 nd#    3067  xforce=   0.0000E+00   yforce=   0.0000E+00  zforce=  -1.5935E+01   energy=   5.3855E-04   setid =    3067 xmoment=   0.0000E+00 ymoment=   0.0000E+00 zmoment=   0.0000E+00
 nd#    3068  xforce=   0.0000E+00   yforce=   0.0000E+00  zforce=  -8.4052E+00   energy=   4.5686E-04   setid =    3068 xmoment=   0.0000E+00 ymoment=   0.0000E+00 zmoment=   0.0000E+00
 nd#    3143  xforce=   0.0000E+00   yforce=   0.0000E+00  zforce=  -2.9273E+01   energy=   8.5816E-04   setid =    3143 xmoment=   0.0000E+00 ymoment=   0.0000E+00 zmoment=   0.0000E+00
 nd#    3144  xforce=   0.0000E+00   yforce=   0.0000E+00  zforce=  -2.9101E+00   energy=   1.8831E-04   setid =    3144 xmoment=   0.0000E+00 ymoment=   0.0000E+00 zmoment=   0.0000E+00
 nd#    3182  xforce=   0.0000E+00   yforce=   0.0000E+00  zforce=  -1.1306E+01   energy=   3.9808E-04   setid =    3182 xmoment=   0.0000E+00 ymoment=   0.0000E+00 zmoment=   0.0000E+00
 nd#    3220  xforce=   0.0000E+00   yforce=   0.0000E+00  zforce=  -5.8554E+00   energy=   3.8300E-04   setid =    3220 xmoment=   0.0000E+00 ymoment=   0.0000E+00 zmoment=   0.0000E+00
 nd#    3258  xforce=   0.0000E+00   yforce=   0.0000E+00  zforce=  -1.5093E+01   energy=   3.0917E-04   setid =    3258 xmoment=   0.0000E+00 ymoment=   0.0000E+00 zmoment=   0.0000E+00
 nd#    3333  xforce=   0.0000E+00   yforce=   0.0000E+00  zforce=  -1.8473E+01   energy=   6.6328E-04   setid =    3333 xmoment=   0.0000E+00 ymoment=   0.0000E+00 zmoment=   0.0000E+00
 nd#    3334  xforce=   0.0000E+00   yforce=   0.0000E+00  zforce=  -1.8928E+01   energy=   6.0558E-04   setid =    3334 xmoment=   0.0000E+00 ymoment=   0.0000E+00 zmoment=   0.0000E+00
 nd#    3372  xforce=   0.0000E+00   yforce=   0.0000E+00  zforce=  -1.6320E+01   energy=   3.0383E-04   setid =    3372 xmoment=   0.0000E+00 ymoment=   0.0000E+00 zmoment=   0.0000E+00
 nd#    3410  xforce=   0.0000E+00   yforce=   0.0000E+00  zforce=  -3.0593E+01   energy=   4.7054E-04   setid =    3410 xmoment=   0.0000E+00 ymoment=   0.0000E+00 zmoment=   0.0000E+00
 nd#    3448  xforce=   0.0000E+00   yforce=   0.0000E+00  zforce=  -1.8674E+01   energy=   5.6860E-04   setid =    3448 xmoment=   0.0000E+00 ymoment=   0.0000E+00 zmoment=   0.0000E+00
 nd#    3486  xforce=   0.0000E+00   yforce=   0.0000E+00  zforce=  -1.7208E+01   energy=   4.4976E-04   setid =    3486 xmoment=   0.0000E+00 ymoment=   0.0000E+00 zmoment=   0.0000E+00
 nd#    3524  xforce=   0.0000E+00   yforce=   0.0000E+00  zforce=  -1.4071E+01   energy=   4.5239E-04   setid =    3524 xmoment=   0.0000E+00 ymoment=   0.0000E+00 zmoment=   0.0000E+00
 nd#    3562  xforce=   0.0000E+00   yforce=   0.0000E+00  zforce=   1.2929E-01   energy=   1.3850E-04   setid =    3562 xmoment=   0.0000E+00 ymoment=   0.0000E+00 zmoment=   0.0000E+00
 nd#    3613  xforce=   0.0000E+00   yforce=   0.0000E+00  zforce=  -1.5813E+01   energy=   1.8427E-04   setid =    3613 xmoment=   0.0000E+00 ymoment=   0.0000E+00 zmoment=   0.0000E+00
 nd#    3614  xforce=   0.0000E+00   yforce=   0.0000E+00  zforce=   1.3866E+01   energy=  -7.8201E-05   setid =    3614 xmoment=   0.0000E+00 ymoment=   0.0000E+00 zmoment=   0.0000E+00
 nd#    3615  xforce=   0.0000E+00   yforce=   0.0000E+00  zforce=  -3.0237E+01   energy=   7.0180E-04   setid =    3615 xmoment=   0.0000E+00 ymoment=   0.0000E+00 zmoment=   0.0000E+00
 nd#    3616  xforce=   0.0000E+00   yforce=   0.0000E+00  zforce=  -1.3032E+00   energy=  -9.9059E-06   setid =    3616 xmoment=   0.0000E+00 ymoment=   0.0000E+00 zmoment=   0.0000E+00
 nd#    3617  xforce=   0.0000E+00   yforce=   0.0000E+00  zforce=   1.9481E+01   energy=  -2.9506E-04   setid =    3617 xmoment=   0.0000E+00 ymoment=   0.0000E+00 zmoment=   0.0000E+00
 nd#    3618  xforce=   0.0000E+00   yforce=   0.0000E+00  zforce=  -1.8010E+01   energy=   5.8365E-04   setid =    3618 xmoment=   0.0000E+00 ymoment=   0.0000E+00 zmoment=   0.0000E+00
[...]
 nd#    3624  xforce=   0.0000E+00   yforce=   0.0000E+00  zforce=  -5.2307E-01   energy=  -2.0116E-03   setid =    3624 xmoment=   0.0000E+00 ymoment=   0.0000E+00 zmoment=   0.0000E+00
 nd#    3625  xforce=   0.0000E+00   yforce=   0.0000E+00  zforce=  -1.7395E+00   energy=   1.3113E-04   setid =    3625 xmoment=   0.0000E+00 ymoment=   0.0000E+00 zmoment=   0.0000E+00
 nd#    4590  xforce=   0.0000E+00   yforce=   0.0000E+00  zforce=  -1.2952E+00   energy=   2.1107E-02   setid =    4590 xmoment=   0.0000E+00 ymoment=   0.0000E+00 zmoment=   0.0000E+00
 nd#    4591  xforce=   0.0000E+00   yforce=   0.0000E+00  zforce=  -2.7420E+00   energy=   7.2726E-03   setid =    4591 xmoment=   0.0000E+00 ymoment=   0.0000E+00 zmoment=   0.0000E+00
 nd#    4594  xforce=   0.0000E+00   yforce=   0.0000E+00  zforce=  -2.4528E+00   energy=   3.0922E-02   setid =    4594 xmoment=   0.0000E+00 ymoment=   0.0000E+00 zmoment=   0.0000E+00
 nd#    4595  xforce=   0.0000E+00   yforce=   0.0000E+00  zforce=  -2.4830E+00   energy=   2.7588E-02   setid =    4595 xmoment=   0.0000E+00 ymoment=   0.0000E+00 zmoment=   0.0000E+00
 nd#    4598  xforce=   0.0000E+00   yforce=   0.0000E+00  zforce=   0.0000E+00   energy=   1.2590E-02   setid =    4598 xmoment=   0.0000E+00 ymoment=   0.0000E+00 zmoment=   0.0000E+00
 nd#    4599  xforce=   0.0000E+00   yforce=   0.0000E+00  zforce=   0.0000E+00   energy=   1.0597E-02   setid =    4599 xmoment=   0.0000E+00 ymoment=   0.0000E+00 zmoment=   0.0000E+00
 nd#    4602  xforce=   0.0000E+00   yforce=   0.0000E+00  zforce=   0.0000E+00   energy=   4.5908E-03   setid =    4602 xmoment=   0.0000E+00 ymoment=   0.0000E+00 zmoment=   0.0000E+00
 nd#    4603  xforce=   0.0000E+00   yforce=   0.0000E+00  zforce=   0.0000E+00   energy=   2.0006E-02   setid =    4603 xmoment=   0.0000E+00 ymoment=   0.0000E+00 zmoment=   0.0000E+00
 nd#    4606  xforce=   0.0000E+00   yforce=   0.0000E+00  zforce=   0.0000E+00   energy=   8.7600E-03   setid =    4606 xmoment=   0.0000E+00 ymoment=   0.0000E+00 zmoment=   0.0000E+00
 nd#    4607  xforce=   0.0000E+00   yforce=   0.0000E+00  zforce=   0.0000E+00   energy=   6.1919E-03   setid =    4607 xmoment=   0.0000E+00 ymoment=   0.0000E+00 zmoment=   0.0000E+00
 nd#    4610  xforce=   0.0000E+00   yforce=   0.0000E+00  zforce=  -8.0894E+00   energy=   3.3386E-02   setid =    4610 xmoment=   0.0000E+00 ymoment=   0.0000E+00 zmoment=   0.0000E+00
 nd#    4611  xforce=   0.0000E+00   yforce=   0.0000E+00  zforce=  -4.9098E-01   energy=   3.5121E-03   setid =    4611 xmoment=   0.0000E+00 ymoment=   0.0000E+00 zmoment=   0.0000E+00
 nd#    4614  xforce=   0.0000E+00   yforce=   0.0000E+00  zforce=   9.7449E+00   energy=   1.0824E-02   setid =    4614 xmoment=   0.0000E+00 ymoment=   0.0000E+00 zmoment=   0.0000E+00
 nd#    4615  xforce=   0.0000E+00   yforce=   0.0000E+00  zforce=   2.1292E+00   energy=   2.7705E-02   setid =    4615 xmoment=   0.0000E+00 ymoment=   0.0000E+00 zmoment=   0.0000E+00
 nd#    4618  xforce=   0.0000E+00   yforce=   0.0000E+00  zforce=   8.4848E+00   energy=   1.0505E-02   setid =    4618 xmoment=   0.0000E+00 ymoment=   0.0000E+00 zmoment=   0.0000E+00
 nd#    4619  xforce=   0.0000E+00   yforce=   0.0000E+00  zforce=   2.2061E+00   energy=   9.2081E-05   setid =    4619 xmoment=   0.0000E+00 ymoment=   0.0000E+00 zmoment=   0.0000E+00
 nd#    4622  xforce=   0.0000E+00   yforce=   0.0000E+00  zforce=  -2.0648E+00   energy=   3.8325E-02   setid =    4622 xmoment=   0.0000E+00 ymoment=   0.0000E+00 zmoment=   0.0000E+00
 nd#    4623  xforce=   0.0000E+00   yforce=   0.0000E+00  zforce=   1.2855E+00   energy=   3.2047E-02   setid =    4623 xmoment=   0.0000E+00 ymoment=   0.0000E+00 zmoment=   0.0000E+00
 nd#    4626  xforce=   0.0000E+00   yforce=   0.0000E+00  zforce=  -1.5206E+00   energy=   4.0310E-02   setid =    4626 xmoment=   0.0000E+00 ymoment=   0.0000E+00 zmoment=   0.0000E+00
 nd#    4627  xforce=   0.0000E+00   yforce=   0.0000E+00  zforce=  -1.1432E+00   energy=   1.8712E-02   setid =    4627 xmoment=   0.0000E+00 ymoment=   0.0000E+00 zmoment=   0.0000E+00
 nd#    4630  xforce=   0.0000E+00   yforce=   0.0000E+00  zforce=   0.0000E+00   energy=  -5.1330E-03   setid =    4630 xmoment=   0.0000E+00 ymoment=   0.0000E+00 zmoment=   0.0000E+00
 nd#    4631  xforce=   0.0000E+00   yforce=   0.0000E+00  zforce=   0.0000E+00   energy=  -3.5579E-03   setid =    4631 xmoment=   0.0000E+00 ymoment=   0.0000E+00 zmoment=   0.0000E+00
 nd#    4634  xforce=   0.0000E+00   yforce=   0.0000E+00  zforce=  -6.9744E-02   energy=   1.1097E-03   setid =    4634 xmoment=   0.0000E+00 ymoment=   0.0000E+00 zmoment=   0.0000E+00
 nd#    4635  xforce=   0.0000E+00   yforce=   0.0000E+00  zforce=  -1.2642E+00   energy=   1.1737E-02   setid =    4635 xmoment=   0.0000E+00 ymoment=   0.0000E+00 zmoment=   0.0000E+00
 nd#    4638  xforce=   0.0000E+00   yforce=   0.0000E+00  zforce=  -6.9544E-02   energy=   6.0933E-03   setid =    4638 xmoment=   0.0000E+00 ymoment=   0.0000E+00 zmoment=   0.0000E+00
 nd#    4639  xforce=   0.0000E+00   yforce=   0.0000E+00  zforce=  -1.2625E+00   energy=   2.2732E-03   setid =    4639 xmoment=   0.0000E+00 ymoment=   0.0000E+00 zmoment=   0.0000E+00
 nd#    4642  xforce=   0.0000E+00   yforce=   0.0000E+00  zforce=   0.0000E+00   energy=   3.1386E-03   setid =    4642 xmoment=   0.0000E+00 ymoment=   0.0000E+00 zmoment=   0.0000E+00
 nd#    4643  xforce=   0.0000E+00   yforce=   0.0000E+00  zforce=   0.0000E+00   energy=   1.1070E-03   setid =    4643 xmoment=   0.0000E+00 ymoment=   0.0000E+00 zmoment=   0.0000E+00
 nd#    4646  xforce=   0.0000E+00   yforce=   0.0000E+00  zforce=   5.0503E+00   energy=   1.2933E-02   setid =    4646 xmoment=   0.0000E+00 ymoment=   0.0000E+00 zmoment=   0.0000E+00
 nd#    4647  xforce=   0.0000E+00   yforce=   0.0000E+00  zforce=   5.4488E+00   energy=   1.6287E-04   setid =    4647 xmoment=   0.0000E+00 ymoment=   0.0000E+00 zmoment=   0.0000E+00
 nd#    4650  xforce=   0.0000E+00   yforce=   0.0000E+00  zforce=  -7.2771E+00   energy=  -8.8330E-03   setid =    4650 xmoment=   0.0000E+00 ymoment=   0.0000E+00 zmoment=   0.0000E+00
 nd#    4651  xforce=   0.0000E+00   yforce=   0.0000E+00  zforce=   1.3019E+00   energy=   2.6920E-03   setid =    4651 xmoment=   0.0000E+00 ymoment=   0.0000E+00 zmoment=   0.0000E+00
 nd#    4838  xforce=   0.0000E+00   yforce=   0.0000E+00  zforce=   7.9349E+00   energy=   2.8435E-02   setid =    4838 xmoment=   0.0000E+00 ymoment=   0.0000E+00 zmoment=   0.0000E+00
 nd#    4839  xforce=   0.0000E+00   yforce=   0.0000E+00  zforce=  -3.7442E+00   energy=   2.2971E-03   setid =    4839 xmoment=   0.0000E+00 ymoment=   0.0000E+00 zmoment=   0.0000E+00
 nd#    4842  xforce=   0.0000E+00   yforce=   0.0000E+00  zforce=   2.2751E+00   energy=  -5.2113E-03   setid =    4842 xmoment=   0.0000E+00 ymoment=   0.0000E+00 zmoment=   0.0000E+00
 nd#    4843  xforce=   0.0000E+00   yforce=   0.0000E+00  zforce=   1.7240E+00   energy=   6.8788E-03   setid =    4843 xmoment=   0.0000E+00 ymoment=   0.0000E+00 zmoment=   0.0000E+00
 nd#    4846  xforce=   0.0000E+00   yforce=   0.0000E+00  zforce=   0.0000E+00   energy=   1.7006E-02   setid =    4846 xmoment=   0.0000E+00 ymoment=   0.0000E+00 zmoment=   0.0000E+00
 nd#    4847  xforce=   0.0000E+00   yforce=   0.0000E+00  zforce=   0.0000E+00   energy=   9.6907E-04   setid =    4847 xmoment=   0.0000E+00 ymoment=   0.0000E+00 zmoment=   0.0000E+00
 nd#    4850  xforce=   0.0000E+00   yforce=   0.0000E+00  zforce=   0.0000E+00   energy=   9.7682E-04   setid =    4850 xmoment=   0.0000E+00 ymoment=   0.0000E+00 zmoment=   0.0000E+00
 nd#    4851  xforce=   0.0000E+00   yforce=   0.0000E+00  zforce=   0.0000E+00   energy=   2.1482E-02   setid =    4851 xmoment=   0.0000E+00 ymoment=   0.0000E+00 zmoment=   0.0000E+00
 nd#    4854  xforce=   0.0000E+00   yforce=   0.0000E+00  zforce=   0.0000E+00   energy=   6.4751E-03   setid =    4854 xmoment=   0.0000E+00 ymoment=   0.0000E+00 zmoment=   0.0000E+00
 nd#    4855  xforce=   0.0000E+00   yforce=   0.0000E+00  zforce=   0.0000E+00   energy=  -1.6466E-03   setid =    4855 xmoment=   0.0000E+00 ymoment=   0.0000E+00 zmoment=   0.0000E+00
 nd#    4858  xforce=   0.0000E+00   yforce=   0.0000E+00  zforce=   0.0000E+00   energy=   9.3210E-03   setid =    4858 xmoment=   0.0000E+00 ymoment=   0.0000E+00 zmoment=   0.0000E+00
 nd#    4859  xforce=   0.0000E+00   yforce=   0.0000E+00  zforce=   0.0000E+00   energy=   7.3003E-03   setid =    4859 xmoment=   0.0000E+00 ymoment=   0.0000E+00 zmoment=   0.0000E+00
 nd#    4862  xforce=   0.0000E+00   yforce=   0.0000E+00  zforce=   7.7584E+00   energy=   1.4163E-03   setid =    4862 xmoment=   0.0000E+00 ymoment=   0.0000E+00 zmoment=   0.0000E+00
 nd#    4863  xforce=   0.0000E+00   yforce=   0.0000E+00  zforce=   0.0000E+00   energy=  -1.5753E-03   setid =    4863 xmoment=   0.0000E+00 ymoment=   0.0000E+00 zmoment=   0.0000E+00
 nd#    4866  xforce=   0.0000E+00   yforce=   0.0000E+00  zforce=   5.6460E+00   energy=   3.1817E-04   setid =    4866 xmoment=   0.0000E+00 ymoment=   0.0000E+00 zmoment=   0.0000E+00
 nd#    4867  xforce=   0.0000E+00   yforce=   0.0000E+00  zforce=   0.0000E+00   energy=  -1.9384E-03   setid =    4867 xmoment=   0.0000E+00 ymoment=   0.0000E+00 zmoment=   0.0000E+00
 nd#    6646  xforce=   0.0000E+00   yforce=   0.0000E+00  zforce=   1.4029E+00   energy=   4.7437E-02   setid =    6646 xmoment=   0.0000E+00 ymoment=   0.0000E+00 zmoment=   0.0000E+00
 nd#    6647  xforce=   0.0000E+00   yforce=   0.0000E+00  zforce=  -1.5980E+01   energy=   2.0293E-02   setid =    6647 xmoment=   0.0000E+00 ymoment=   0.0000E+00 zmoment=   0.0000E+00
 nd#    6648  xforce=   0.0000E+00   yforce=   0.0000E+00  zforce=  -3.9761E-01   energy=   1.3145E-02   setid =    6648 xmoment=   0.0000E+00 ymoment=   0.0000E+00 zmoment=   0.0000E+00
 nd#    6649  xforce=   0.0000E+00   yforce=   0.0000E+00  zforce=   0.0000E+00   energy=   2.5932E-03   setid =    6649 xmoment=   0.0000E+00 ymoment=   0.0000E+00 zmoment=   0.0000E+00
 nd#    6650  xforce=   0.0000E+00   yforce=   0.0000E+00  zforce=   0.0000E+00   energy=   1.6207E-02   setid =    6650 xmoment=   0.0000E+00 ymoment=   0.0000E+00 zmoment=   0.0000E+00
 nd#    6651  xforce=   0.0000E+00   yforce=   0.0000E+00  zforce=   0.0000E+00   energy=   6.9362E-03   setid =    6651 xmoment=   0.0000E+00 ymoment=   0.0000E+00 zmoment=   0.0000E+00
 nd#    6652  xforce=   0.0000E+00   yforce=   0.0000E+00  zforce=   6.2621E+00   energy=   5.0957E-03   setid =    6652 xmoment=   0.0000E+00 ymoment=   0.0000E+00 zmoment=   0.0000E+00
 nd#    6653  xforce=   0.0000E+00   yforce=   0.0000E+00  zforce=  -3.0040E+00   energy=   3.0227E-03   setid =    6653 xmoment=   0.0000E+00 ymoment=   0.0000E+00 zmoment=   0.0000E+00
 nd#    6838  xforce=   0.0000E+00   yforce=   0.0000E+00  zforce=  -3.6060E+00   energy=   2.2664E-02   setid =    6838 xmoment=   0.0000E+00 ymoment=   0.0000E+00 zmoment=   0.0000E+00
 nd#    6839  xforce=   0.0000E+00   yforce=   0.0000E+00  zforce=   5.2427E-01   energy=   2.3325E-02   setid =    6839 xmoment=   0.0000E+00 ymoment=   0.0000E+00 zmoment=   0.0000E+00
 nd#    6841  xforce=   0.0000E+00   yforce=   0.0000E+00  zforce=  -2.4479E+00   energy=   4.7792E-03   setid =    6841 xmoment=   0.0000E+00 ymoment=   0.0000E+00 zmoment=   0.0000E+00
 nd#    6842  xforce=   0.0000E+00   yforce=   0.0000E+00  zforce=   2.7380E+00   energy=   1.1625E-02   setid =    6842 xmoment=   0.0000E+00 ymoment=   0.0000E+00 zmoment=   0.0000E+00
 nd#    6844  xforce=   0.0000E+00   yforce=   0.0000E+00  zforce=  -5.7608E+00   energy=   2.4480E-02   setid =    6844 xmoment=   0.0000E+00 ymoment=   0.0000E+00 zmoment=   0.0000E+00
 nd#    6845  xforce=   0.0000E+00   yforce=   0.0000E+00  zforce=   2.4239E+00   energy=   2.4193E-02   setid =    6845 xmoment=   0.0000E+00 ymoment=   0.0000E+00 zmoment=   0.0000E+00
 nd#    6847  xforce=   0.0000E+00   yforce=   0.0000E+00  zforce=   0.0000E+00   energy=  -8.1294E-03   setid =    6847 xmoment=   0.0000E+00 ymoment=   0.0000E+00 zmoment=   0.0000E+00
 nd#    6848  xforce=   0.0000E+00   yforce=   0.0000E+00  zforce=   0.0000E+00   energy=   1.6528E-02   setid =    6848 xmoment=   0.0000E+00 ymoment=   0.0000E+00 zmoment=   0.0000E+00
 nd#    6850  xforce=   0.0000E+00   yforce=   0.0000E+00  zforce=  -1.3703E+00   energy=   6.5705E-03   setid =    6850 xmoment=   0.0000E+00 ymoment=   0.0000E+00 zmoment=   0.0000E+00
 nd#    6851  xforce=   0.0000E+00   yforce=   0.0000E+00  zforce=  -8.2510E+00   energy=   8.6983E-03   setid =    6851 xmoment=   0.0000E+00 ymoment=   0.0000E+00 zmoment=   0.0000E+00
 nd#    6853  xforce=   0.0000E+00   yforce=   0.0000E+00  zforce=  -1.8312E-01   energy=  -3.3814E-02   setid =    6853 xmoment=   0.0000E+00 ymoment=   0.0000E+00 zmoment=   0.0000E+00
 nd#    6854  xforce=   0.0000E+00   yforce=   0.0000E+00  zforce=  -1.0965E+00   energy=  -1.3815E-03   setid =    6854 xmoment=   0.0000E+00 ymoment=   0.0000E+00 zmoment=   0.0000E+00
 nd#    6856  xforce=   0.0000E+00   yforce=   0.0000E+00  zforce=   5.4122E+00   energy=   2.6620E-02   setid =    6856 xmoment=   0.0000E+00 ymoment=   0.0000E+00 zmoment=   0.0000E+00
 nd#    6857  xforce=   0.0000E+00   yforce=   0.0000E+00  zforce=   3.9517E+00   energy=   1.3628E-02   setid =    6857 xmoment=   0.0000E+00 ymoment=   0.0000E+00 zmoment=   0.0000E+00
 nd#    6859  xforce=   0.0000E+00   yforce=   0.0000E+00  zforce=   4.0630E+00   energy=   7.0504E-04   setid =    6859 xmoment=   0.0000E+00 ymoment=   0.0000E+00 zmoment=   0.0000E+00
 nd#    6860  xforce=   0.0000E+00   yforce=   0.0000E+00  zforce=   2.6026E+00   energy=   7.2106E-03   setid =    6860 xmoment=   0.0000E+00 ymoment=   0.0000E+00 zmoment=   0.0000E+00
 nd#    6894  xforce=   0.0000E+00   yforce=   0.0000E+00  zforce=  -5.4082E+00   energy=   3.3378E-02   setid =    6894 xmoment=   0.0000E+00 ymoment=   0.0000E+00 zmoment=   0.0000E+00
 nd#    6895  xforce=   0.0000E+00   yforce=   0.0000E+00  zforce=  -2.9343E+00   energy=   3.1927E-02   setid =    6895 xmoment=   0.0000E+00 ymoment=   0.0000E+00 zmoment=   0.0000E+00
 nd#    6896  xforce=   0.0000E+00   yforce=   0.0000E+00  zforce=  -5.4432E-01   energy=  -7.8931E-03   setid =    6896 xmoment=   0.0000E+00 ymoment=   0.0000E+00 zmoment=   0.0000E+00
 nd#    6897  xforce=   0.0000E+00   yforce=   0.0000E+00  zforce=   0.0000E+00   energy=   7.2771E-03   setid =    6897 xmoment=   0.0000E+00 ymoment=   0.0000E+00 zmoment=   0.0000E+00
 nd#    6898  xforce=   0.0000E+00   yforce=   0.0000E+00  zforce=   0.0000E+00   energy=   3.3074E-03   setid =    6898 xmoment=   0.0000E+00 ymoment=   0.0000E+00 zmoment=   0.0000E+00
 nd#    6899  xforce=   0.0000E+00   yforce=   0.0000E+00  zforce=   3.1541E-01   energy=   5.8924E-03   setid =    6899 xmoment=   0.0000E+00 ymoment=   0.0000E+00 zmoment=   0.0000E+00
 nd#    6900  xforce=   0.0000E+00   yforce=   0.0000E+00  zforce=   6.9458E+00   energy=   2.6469E-02   setid =    6900 xmoment=   0.0000E+00 ymoment=   0.0000E+00 zmoment=   0.0000E+00
 nd#    6901  xforce=   0.0000E+00   yforce=   0.0000E+00  zforce=   5.6402E+00   energy=  -4.9634E-03   setid =    6901 xmoment=   0.0000E+00 ymoment=   0.0000E+00 zmoment=   0.0000E+00
 nd#    6990  xforce=   0.0000E+00   yforce=   0.0000E+00  zforce=  -7.2173E-01   energy=   1.7631E-02   setid =    6990 xmoment=   0.0000E+00 ymoment=   0.0000E+00 zmoment=   0.0000E+00
 nd#    6991  xforce=   0.0000E+00   yforce=   0.0000E+00  zforce=  -1.7496E+00   energy=   1.4282E-02   setid =    6991 xmoment=   0.0000E+00 ymoment=   0.0000E+00 zmoment=   0.0000E+00
 nd#    6992  xforce=   0.0000E+00   yforce=   0.0000E+00  zforce=  -2.7216E+00   energy=   2.2911E-02   setid =    6992 xmoment=   0.0000E+00 ymoment=   0.0000E+00 zmoment=   0.0000E+00
 nd#    6993  xforce=   0.0000E+00   yforce=   0.0000E+00  zforce=  -1.6585E+00   energy=   1.4281E-02   setid =    6993 xmoment=   0.0000E+00 ymoment=   0.0000E+00 zmoment=   0.0000E+00
 nd#    6994  xforce=   0.0000E+00   yforce=   0.0000E+00  zforce=   1.3718E+00   energy=   2.9805E-02   setid =    6994 xmoment=   0.0000E+00 ymoment=   0.0000E+00 zmoment=   0.0000E+00
 nd#    6995  xforce=   0.0000E+00   yforce=   0.0000E+00  zforce=  -5.5700E-01   energy=   5.9988E-03   setid =    6995 xmoment=   0.0000E+00 ymoment=   0.0000E+00 zmoment=   0.0000E+00
 nd#    6996  xforce=   0.0000E+00   yforce=   0.0000E+00  zforce=   2.3467E+00   energy=   5.0581E-02   setid =    6996 xmoment=   0.0000E+00 ymoment=   0.0000E+00 zmoment=   0.0000E+00
 nd#    6997  xforce=   0.0000E+00   yforce=   0.0000E+00  zforce=   0.0000E+00   energy=   8.7950E-03   setid =    6997 xmoment=   0.0000E+00 ymoment=   0.0000E+00 zmoment=   0.0000E+00
 nd#    7454  xforce=   0.0000E+00   yforce=   0.0000E+00  zforce=   4.0623E+00   energy=   3.2524E-02   setid =    7454 xmoment=   0.0000E+00 ymoment=   0.0000E+00 zmoment=   0.0000E+00
 nd#    7455  xforce=   0.0000E+00   yforce=   0.0000E+00  zforce=  -5.9726E-01   energy=  -2.9195E-02   setid =    7455 xmoment=   0.0000E+00 ymoment=   0.0000E+00 zmoment=   0.0000E+00
 nd#    7456  xforce=   0.0000E+00   yforce=   0.0000E+00  zforce=   0.0000E+00   energy=   6.1148E-03   setid =    7456 xmoment=   0.0000E+00 ymoment=   0.0000E+00 zmoment=   0.0000E+00
 nd#    7457  xforce=   0.0000E+00   yforce=   0.0000E+00  zforce=   0.0000E+00   energy=   4.9016E-03   setid =    7457 xmoment=   0.0000E+00 ymoment=   0.0000E+00 zmoment=   0.0000E+00
 nd#    7458  xforce=   0.0000E+00   yforce=   0.0000E+00  zforce=   0.0000E+00   energy=   8.4983E-04   setid =    7458 xmoment=   0.0000E+00 ymoment=   0.0000E+00 zmoment=   0.0000E+00
 nd#    7459  xforce=   0.0000E+00   yforce=   0.0000E+00  zforce=   0.0000E+00   energy=   4.7527E-04   setid =    7459 xmoment=   0.0000E+00 ymoment=   0.0000E+00 zmoment=   0.0000E+00
 nd#    7460  xforce=   0.0000E+00   yforce=   0.0000E+00  zforce=   9.8049E+00   energy=  -1.0017E-02   setid =    7460 xmoment=   0.0000E+00 ymoment=   0.0000E+00 zmoment=   0.0000E+00
 nd#    7461  xforce=   0.0000E+00   yforce=   0.0000E+00  zforce=   7.2706E+00   energy=  -1.1933E-02   setid =    7461 xmoment=   0.0000E+00 ymoment=   0.0000E+00 zmoment=   0.0000E+00
 nd#    7934  xforce=   0.0000E+00   yforce=   0.0000E+00  zforce=   1.6741E+00   energy=   2.6045E-02   setid =    7934 xmoment=   0.0000E+00 ymoment=   0.0000E+00 zmoment=   0.0000E+00
 nd#    7936  xforce=   0.0000E+00   yforce=   0.0000E+00  zforce=   1.4115E+00   energy=   1.6069E-02   setid =    7936 xmoment=   0.0000E+00 ymoment=   0.0000E+00 zmoment=   0.0000E+00
 nd#    7938  xforce=   0.0000E+00   yforce=   0.0000E+00  zforce=   0.0000E+00   energy=   1.9001E-02   setid =    7938 xmoment=   0.0000E+00 ymoment=   0.0000E+00 zmoment=   0.0000E+00
 nd#    7940  xforce=   0.0000E+00   yforce=   0.0000E+00  zforce=   0.0000E+00   energy=   1.1364E-02   setid =    7940 xmoment=   0.0000E+00 ymoment=   0.0000E+00 zmoment=   0.0000E+00
 nd#    7942  xforce=   0.0000E+00   yforce=   0.0000E+00  zforce=   0.0000E+00   energy=   2.7507E-03   setid =    7942 xmoment=   0.0000E+00 ymoment=   0.0000E+00 zmoment=   0.0000E+00
 nd#    7944  xforce=   0.0000E+00   yforce=   0.0000E+00  zforce=  -1.4307E+00   energy=  -8.2521E-03   setid =    7944 xmoment=   0.0000E+00 ymoment=   0.0000E+00 zmoment=   0.0000E+00
 nd#    7946  xforce=   0.0000E+00   yforce=   0.0000E+00  zforce=   1.9783E+00   energy=   3.1446E-02   setid =    7946 xmoment=   0.0000E+00 ymoment=   0.0000E+00 zmoment=   0.0000E+00
 nd#    7948  xforce=   0.0000E+00   yforce=   0.0000E+00  zforce=   7.0218E-01   energy=   4.9260E-03   setid =    7948 xmoment=   0.0000E+00 ymoment=   0.0000E+00 zmoment=   0.0000E+00
              xtotal=   0.0000E+00   ytotal=   0.0000E+00  ztotal=  -1.7075E+02   etotal=   3.2326E+00
