 LS-DYNA keyword deck by LS-PrePost                                      
                    ls-dyna smp d R14 R14.1.1s_1_ef50e1 date 06/16/2024



 e l e m e n t   s t r e s s   c a l c u l a t i o n s   f o r   t i m e  s t e p        1   ( at time 0.00000E+00 )

 element  materl
     ipt  stress       sig-xx      sig-yy      sig-zz      sig-xy      sig-yz      sig-zx                       yield
           state                                                                                  effsg      function
      49-      1
       1           0.0000E+00  0.0000E+00  0.0000E+00  0.0000E+00  0.0000E+00  0.0000E+00    0.0000E+00    0.0000E+00
      94-      1
       1          -1.9509E-06 -1.9509E-06 -1.9509E-06  0.0000E+00  0.0000E+00  0.0000E+00    0.0000E+00    0.0000E+00
     154-      1
       1          -1.9509E-06 -1.9509E-06 -1.9509E-06  0.0000E+00  0.0000E+00  0.0000E+00    0.0000E+00    0.0000E+00
     364-      1
       1          -3.9019E-06 -3.9019E-06 -3.9019E-06  0.0000E+00  0.0000E+00  0.0000E+00    0.0000E+00    0.0000E+00
     469-      1
       1          -5.8528E-06 -5.8528E-06 -5.8528E-06  0.0000E+00  0.0000E+00  0.0000E+00    0.0000E+00    0.0000E+00
     529-      1
       1           0.0000E+00  0.0000E+00  0.0000E+00  0.0000E+00  0.0000E+00  0.0000E+00    0.0000E+00    0.0000E+00
     589-      1
       1          -1.9509E-06 -1.9509E-06 -1.9509E-06  0.0000E+00  0.0000E+00  0.0000E+00    0.0000E+00    0.0000E+00
     604-      1
       1          -1.9509E-06 -1.9509E-06 -1.9509E-06  0.0000E+00  0.0000E+00  0.0000E+00    0.0000E+00    0.0000E+00



 e l e m e n t   s t r a i n   c a l c u l a t i o n s   f o r   t i m e  s t e p        1   ( at time  0.00000E+00 )

 element  strain       eps-xx      eps-yy      eps-zz      eps-xy      eps-yz      eps-zx                            yield
 num/ipt   state
      49-      1
      1            0.0000E+00  0.0000E+00  0.0000E+00  0.0000E+00  0.0000E+00  0.0000E+00
      94-      1
      1            0.0000E+00  0.0000E+00  0.0000E+00  0.0000E+00  0.0000E+00  0.0000E+00
     154-      1
      1            0.0000E+00  0.0000E+00  0.0000E+00  0.0000E+00  0.0000E+00  0.0000E+00
     364-      1
      1            0.0000E+00  0.0000E+00  0.0000E+00  0.0000E+00  0.0000E+00  0.0000E+00
     469-      1
      1            0.0000E+00  0.0000E+00  0.0000E+00  0.0000E+00  0.0000E+00  0.0000E+00
     529-      1
      1            0.0000E+00  0.0000E+00  0.0000E+00  0.0000E+00  0.0000E+00  0.0000E+00
     589-      1
      1            0.0000E+00  0.0000E+00  0.0000E+00  0.0000E+00  0.0000E+00  0.0000E+00
     604-      1
      1            0.0000E+00  0.0000E+00  0.0000E+00  0.0000E+00  0.0000E+00  0.0000E+00



 e l e m e n t   s t r e s s   c a l c u l a t i o n s   f o r   t i m e  s t e p       18   ( at time 1.29245E+00 )

 element  materl
     ipt  stress       sig-xx      sig-yy      sig-zz      sig-xy      sig-yz      sig-zx                       yield
           state                                                                                  effsg      function
      49-      1
       1          -3.6935E+07 -1.4813E+07 -2.7775E+08  6.8261E+06 -7.1804E+06 -2.1698E+06    2.5322E+08    1.4908E-04
      94-      1
       1          -3.4490E+07 -1.7929E+07 -2.7771E+08  1.0143E+07 -6.7687E+06 -3.5816E+06    2.5286E+08    1.5419E-04
     154-      1
       1          -3.9006E+07 -1.2969E+07 -2.7777E+08  1.4214E+06 -7.2530E+06 -6.2967E+05    2.5311E+08    1.5083E-04
     364-      1
       1          -2.6942E+07 -2.6906E+07 -2.7736E+08  1.3704E+07 -5.1793E+06 -6.1591E+06    2.5194E+08    1.6532E-04
     469-      1
       1          -1.4878E+07 -3.9508E+07 -2.7894E+08  3.2871E+06 -8.1288E+05 -8.4252E+06    2.5313E+08    1.5509E-04
     529-      1
       1          -3.0976E+07 -2.1742E+07 -2.7724E+08  1.2577E+07 -6.0906E+06 -4.9626E+06    2.5232E+08    1.6306E-04
     589-      1
       1          -2.1655E+07 -3.1947E+07 -2.7745E+08  1.2360E+07 -3.9351E+06 -7.1838E+06    2.5212E+08    1.6039E-04
     604-      1
       1          -1.7258E+07 -3.6521E+07 -2.7814E+08  8.7283E+06 -2.4702E+06 -7.9638E+06    2.5267E+08    1.5575E-04



 e l e m e n t   s t r a i n   c a l c u l a t i o n s   f o r   t i m e  s t e p       18   ( at time  1.29245E+00 )

 element  strain       eps-xx      eps-yy      eps-zz      eps-xy      eps-yz      eps-zx                            yield
 num/ipt   state
      49-      1
      1            1.0395E-03  1.5125E-03 -4.1187E-03  1.4591E-04 -1.5454E-04 -4.6581E-05
      94-      1
      1            1.1014E-03  1.4569E-03 -4.1280E-03  2.1772E-04 -1.4670E-04 -7.7279E-05
     154-      1
      1            9.9853E-04  1.5560E-03 -4.1224E-03  3.0333E-05 -1.5654E-04 -1.3533E-05
     364-      1
      1            1.2839E-03  1.2856E-03 -4.1443E-03  2.9666E-04 -1.1406E-04 -1.3434E-04
     469-      1
      1            1.5413E-03  1.0133E-03 -4.1395E-03  7.0627E-05 -1.7373E-05 -1.8134E-04
     529-      1
      1            1.1871E-03  1.3868E-03 -4.1429E-03  2.7188E-04 -1.3352E-04 -1.0795E-04
     589-      1
      1            1.3903E-03  1.1696E-03 -4.1339E-03  2.6661E-04 -8.6141E-05 -1.5595E-04
     604-      1
      1            1.4831E-03  1.0704E-03 -4.1317E-03  1.8769E-04 -5.3523E-05 -1.7187E-04



 e l e m e n t   s t r e s s   c a l c u l a t i o n s   f o r   t i m e  s t e p       48   ( at time 2.54839E+00 )

 element  materl
     ipt  stress       sig-xx      sig-yy      sig-zz      sig-xy      sig-yz      sig-zx                       yield
           state                                                                                  effsg      function
      49-      1
       1          -7.3491E+06 -1.1283E+07 -2.8110E+08 -1.5641E+06 -8.8146E+06 -2.5915E+06    2.7229E+08    9.7137E-03
      94-      1
       1          -1.2648E+07 -1.2343E+07 -2.8068E+08 -3.0510E+06 -8.2790E+06 -4.1696E+06    2.6872E+08    9.8597E-03
     154-      1
       1          -7.0043E+06 -1.0701E+07 -2.8038E+08 -2.8007E+06 -8.8247E+06 -6.6765E+05    2.7202E+08    9.7911E-03
     364-      1
       1          -2.3927E+07 -1.4397E+07 -2.7413E+08 -1.0530E+06 -5.7878E+06 -6.7920E+06    2.5558E+08    1.0568E-02
     469-      1
       1          -2.0308E+07 -1.4377E+07 -2.8429E+08  2.8476E+06 -8.8980E+05 -9.7733E+06    2.6758E+08    9.9078E-03
     529-      1
       1          -1.6980E+07 -1.3833E+07 -2.7625E+08 -2.8342E+06 -7.0587E+06 -5.6192E+06    2.6137E+08    1.0239E-02
     589-      1
       1          -2.2782E+07 -1.2955E+07 -2.7536E+08  1.1579E+06 -4.4452E+06 -8.1664E+06    2.5814E+08    1.0434E-02
     604-      1
       1          -2.1712E+07 -1.3914E+07 -2.8213E+08  2.0599E+06 -2.8220E+06 -9.3193E+06    2.6496E+08    1.0044E-02



 e l e m e n t   s t r a i n   c a l c u l a t i o n s   f o r   t i m e  s t e p       48   ( at time  2.54839E+00 )

 element  strain       eps-xx      eps-yy      eps-zz      eps-xy      eps-yz      eps-zx                            yield
 num/ipt   state
      49-      1
      1            6.8146E-03  6.5601E-03 -1.4886E-02 -1.0498E-04 -7.0437E-04 -2.0542E-04
      94-      1
      1            6.6228E-03  6.6818E-03 -1.4845E-02 -2.1343E-04 -6.7899E-04 -3.3467E-04
     154-      1
      1            6.8344E-03  6.6059E-03 -1.4946E-02 -2.1428E-04 -7.0797E-04 -5.2639E-05
     364-      1
      1            6.2446E-03  7.0094E-03 -1.4828E-02 -5.4219E-05 -5.3852E-04 -5.8698E-04
     469-      1
      1            6.4236E-03  6.8334E-03 -1.4856E-02  2.3476E-04 -5.5506E-05 -8.0265E-04
     529-      1
      1            6.5011E-03  6.7662E-03 -1.4815E-02 -1.9583E-04 -6.1841E-04 -4.6969E-04
     589-      1
      1            6.2614E-03  7.0205E-03 -1.4849E-02  1.2166E-04 -4.1024E-04 -6.9441E-04
     604-      1
      1            6.3465E-03  6.9106E-03 -1.4854E-02  1.8346E-04 -2.4584E-04 -7.6579E-04



 e l e m e n t   s t r e s s   c a l c u l a t i o n s   f o r   t i m e  s t e p      243   ( at time 3.13135E+00 )

 element  materl
     ipt  stress       sig-xx      sig-yy      sig-zz      sig-xy      sig-yz      sig-zx                       yield
           state                                                                                  effsg      function
      49-      1
       1          -1.0559E+07 -1.6399E+07 -2.8582E+08 -4.0916E+06 -9.2936E+06 -2.2687E+06    2.7298E+08    1.5610E-02
      94-      1
       1          -1.5585E+07 -2.0677E+07 -2.8519E+08 -3.2400E+06 -8.4051E+06 -4.6004E+06    2.6767E+08    1.5982E-02
     154-      1
       1          -1.1112E+07 -1.6736E+07 -2.8140E+08 -3.3968E+06 -8.8149E+06 -4.1463E+05    2.6802E+08    1.5955E-02
     364-      1
       1          -3.9399E+07 -3.1215E+07 -2.6809E+08 -3.2191E+06 -6.1501E+06 -7.9443E+06    2.3360E+08    1.8135E-02
     469-      1
       1          -3.4628E+07 -2.8708E+07 -2.6966E+08  1.0021E+07 -1.4975E+06 -4.2344E+06    2.3880E+08    1.5408E-02
     529-      1
       1          -2.6718E+07 -2.9348E+07 -2.7502E+08 -4.3369E+06 -6.9174E+06 -6.3420E+06    2.4765E+08    1.7203E-02
     589-      1
       1          -3.7902E+07 -2.7581E+07 -2.6621E+08 -1.4461E+06 -4.7603E+06 -8.3559E+06    2.3424E+08    1.7619E-02
     604-      1
       1          -3.9337E+07 -3.1090E+07 -2.7143E+08  6.3555E+04 -2.5325E+06 -8.5607E+06    2.3683E+08    1.6457E-02



 e l e m e n t   s t r a i n   c a l c u l a t i o n s   f o r   t i m e  s t e p      243   ( at time  3.13135E+00 )

 element  strain       eps-xx      eps-yy      eps-zz      eps-xy      eps-yz      eps-zx                            yield
 num/ipt   state
      49-      1
      1            9.7781E-03  9.3011E-03 -2.0678E-02 -2.8234E-04 -1.0048E-03 -2.6539E-04
      94-      1
      1            9.6452E-03  9.4278E-03 -2.0713E-02 -3.2158E-04 -9.6192E-04 -4.8401E-04
     154-      1
      1            9.8445E-03  9.3894E-03 -2.0818E-02 -3.3982E-04 -1.0018E-03 -5.9254E-05
     364-      1
      1            9.0299E-03  1.0073E-02 -2.0828E-02 -2.2984E-04 -8.8151E-04 -9.3681E-04
     469-      1
      1            8.4286E-03  9.0107E-03 -1.9114E-02  6.8139E-04 -1.6408E-05 -9.6594E-04
     529-      1
      1            9.5298E-03  9.5680E-03 -2.0786E-02 -3.8739E-04 -9.1441E-04 -7.1740E-04
     589-      1
      1            8.8512E-03  9.9875E-03 -2.0527E-02  1.1261E-05 -6.7841E-04 -1.0161E-03
     604-      1
      1            8.6799E-03  9.5119E-03 -1.9921E-02  1.3770E-04 -3.6830E-04 -1.0376E-03



 e l e m e n t   s t r e s s   c a l c u l a t i o n s   f o r   t i m e  s t e p      403   ( at time 4.03494E+00 )

 element  materl
     ipt  stress       sig-xx      sig-yy      sig-zz      sig-xy      sig-yz      sig-zx                       yield
           state                                                                                  effsg      function
      49-      1
       1          -2.7318E+07 -3.6259E+07 -2.7230E+08 -4.5430E+06 -8.9711E+06 -5.0694E+06    2.4143E+08    2.6901E-02
      94-      1
       1          -3.6124E+07 -3.4844E+07 -2.7322E+08 -8.6700E+06 -7.5266E+06 -6.8339E+06    2.3886E+08    2.6639E-02
     154-      1
       1          -2.4778E+07 -3.3559E+07 -2.7607E+08 -2.3772E+06 -9.6810E+06 -1.6386E+06    2.4764E+08    2.7377E-02
     364-      1
       1          -5.6329E+07 -5.1578E+07 -2.8505E+08 -2.8891E+06 -2.1033E+06 -6.7516E+06    2.3151E+08    2.8627E-02
     469-      1
       1          -3.6432E+07 -3.3402E+07 -3.0755E+08 -4.7055E+06  3.3654E+05 -1.5781E+06    2.7279E+08    2.3411E-02
     529-      1
       1          -5.1842E+07 -3.9456E+07 -2.8466E+08 -6.6612E+06 -4.6520E+06 -6.5252E+06    2.3994E+08    2.7635E-02
     589-      1
       1          -4.9049E+07 -3.7301E+07 -2.8892E+08 -4.5959E+05 -1.8068E+06 -6.4958E+06    2.4624E+08    2.6847E-02
     604-      1
       1          -4.6186E+07 -3.7148E+07 -3.0498E+08 -8.3131E+05 -5.4964E+05 -5.9006E+06    2.6363E+08    2.4653E-02



 e l e m e n t   s t r a i n   c a l c u l a t i o n s   f o r   t i m e  s t e p      403   ( at time  4.03494E+00 )

 element  strain       eps-xx      eps-yy      eps-zz      eps-xy      eps-yz      eps-zx                            yield
 num/ipt   state
      49-      1
      1            1.4420E-02  1.3759E-02 -2.9902E-02 -4.2962E-04 -1.7151E-03 -5.3215E-04
      94-      1
      1            1.3766E-02  1.3774E-02 -2.9301E-02 -6.0438E-04 -1.5608E-03 -8.2184E-04
     154-      1
      1            1.4621E-02  1.3992E-02 -3.0333E-02 -4.4997E-04 -1.7698E-03 -1.4230E-04
     364-      1
      1            1.2250E-02  1.3685E-02 -2.7928E-02 -1.9998E-04 -1.2580E-03 -1.3078E-03
     469-      1
      1            1.1632E-02  1.2011E-02 -2.5534E-02  8.9467E-04  7.0803E-05 -1.1457E-03
     529-      1
      1            1.3345E-02  1.3303E-02 -2.8557E-02 -4.6918E-04 -1.4420E-03 -1.0835E-03
     589-      1
      1            1.2005E-02  1.3379E-02 -2.7288E-02  1.2010E-04 -8.8441E-04 -1.3476E-03
     604-      1
      1            1.1827E-02  1.2741E-02 -2.6525E-02  2.6626E-04 -4.4526E-04 -1.2955E-03



 e l e m e n t   s t r e s s   c a l c u l a t i o n s   f o r   t i m e  s t e p      526   ( at time 5.16164E+00 )

 element  materl
     ipt  stress       sig-xx      sig-yy      sig-zz      sig-xy      sig-yz      sig-zx                       yield
           state                                                                                  effsg      function
      49-      1
       1          -3.9571E+07 -4.9635E+07 -2.8936E+08 -3.5321E+05 -5.4680E+06 -4.1450E+06    2.4520E+08    3.9254E-02
      94-      1
       1          -4.7855E+07 -5.2464E+07 -2.8456E+08 -6.2336E+06 -5.8941E+06 -4.6277E+06    2.3505E+08    3.9757E-02
     154-      1
       1          -3.6655E+07 -4.0869E+07 -2.9855E+08 -8.0673E+05 -5.8773E+06 -5.5348E+05    2.6001E+08    3.9271E-02
     364-      1
       1          -5.4162E+07 -4.3896E+07 -3.1666E+08 -2.7811E+06 -3.8710E+06 -3.5064E+06    2.6798E+08    3.7802E-02
     469-      1
       1          -4.7687E+07 -4.5065E+07 -3.3209E+08 -1.8608E+06 -1.1399E+05 -7.2168E+06    2.8601E+08    3.2393E-02
     529-      1
       1          -5.7062E+07 -4.4878E+07 -3.0211E+08 -7.1172E+06 -4.9011E+06 -2.6186E+06    2.5185E+08    3.9190E-02
     589-      1
       1          -4.4575E+07 -3.9350E+07 -3.1531E+08 -2.4202E+06 -3.7996E+06 -3.9052E+06    2.7358E+08    3.5550E-02
     604-      1
       1          -5.0870E+07 -4.6246E+07 -3.2885E+08 -3.5746E+06 -3.2155E+06 -6.0999E+06    2.8065E+08    3.3594E-02



 e l e m e n t   s t r a i n   c a l c u l a t i o n s   f o r   t i m e  s t e p      526   ( at time  5.16164E+00 )

 element  strain       eps-xx      eps-yy      eps-zz      eps-xy      eps-yz      eps-zx                            yield
 num/ipt   state
      49-      1
      1            1.9684E-02  1.8495E-02 -4.0115E-02 -5.9834E-04 -2.2379E-03 -7.9238E-04
      94-      1
      1            1.9025E-02  1.8537E-02 -3.9525E-02 -9.4844E-04 -2.0963E-03 -1.1243E-03
     154-      1
      1            1.9735E-02  1.8712E-02 -4.0375E-02 -5.5538E-04 -2.3227E-03 -2.1126E-04
     364-      1
      1            1.6108E-02  1.8077E-02 -3.6288E-02 -3.5202E-04 -1.4353E-03 -1.4483E-03
     469-      1
      1            1.5849E-02  1.6425E-02 -3.4397E-02  9.0510E-04  1.0757E-04 -1.4440E-03
     529-      1
      1            1.7633E-02  1.8204E-02 -3.7887E-02 -8.9418E-04 -1.8041E-03 -1.2698E-03
     589-      1
      1            1.5871E-02  1.7502E-02 -3.5399E-02 -9.6321E-06 -1.0002E-03 -1.5038E-03
     604-      1
      1            1.5859E-02  1.7079E-02 -3.5082E-02  1.1246E-04 -5.2797E-04 -1.5550E-03



 e l e m e n t   s t r e s s   c a l c u l a t i o n s   f o r   t i m e  s t e p      580   ( at time 6.09671E+00 )

 element  materl
     ipt  stress       sig-xx      sig-yy      sig-zz      sig-xy      sig-yz      sig-zx                       yield
           state                                                                                  effsg      function
      49-      1
       1          -4.4277E+07 -6.3576E+07 -3.0542E+08 -6.7538E+06 -7.4815E+06 -2.5166E+06    2.5269E+08    4.8532E-02
      94-      1
       1          -5.3130E+07 -6.7196E+07 -3.0684E+08 -9.0122E+06 -7.2015E+06 -3.0456E+06    2.4784E+08    4.8562E-02
     154-      1
       1          -3.7854E+07 -6.0305E+07 -2.9929E+08 -4.5288E+06 -7.5027E+06 -7.0876E+05    2.5143E+08    4.9216E-02
     364-      1
       1          -6.0989E+07 -5.6505E+07 -3.2417E+08 -1.2899E+07 -5.7844E+06 -1.6024E+06    2.6659E+08    4.5681E-02
     469-      1
       1          -6.9029E+07 -4.5056E+07 -3.4165E+08 -1.8706E+06 -1.0878E+06 -8.6678E+06    2.8579E+08    4.0456E-02
     529-      1
       1          -5.8753E+07 -6.4383E+07 -3.1231E+08 -1.2231E+07 -6.0163E+06 -2.4366E+06    2.5193E+08    4.7508E-02
     589-      1
       1          -5.6680E+07 -4.2833E+07 -3.2569E+08 -1.1537E+07 -5.6965E+06 -3.3317E+06    2.7716E+08    4.3353E-02
     604-      1
       1          -6.8426E+07 -4.9313E+07 -3.4118E+08 -9.7193E+06 -4.8407E+06 -7.1222E+06    2.8369E+08    4.1525E-02



 e l e m e n t   s t r a i n   c a l c u l a t i o n s   f o r   t i m e  s t e p      580   ( at time  6.09671E+00 )

 element  strain       eps-xx      eps-yy      eps-zz      eps-xy      eps-yz      eps-zx                            yield
 num/ipt   state
      49-      1
      1            2.3672E-02  2.1778E-02 -4.7561E-02 -8.9267E-04 -2.6642E-03 -8.8530E-04
      94-      1
      1            2.2587E-02  2.1712E-02 -4.6470E-02 -1.2648E-03 -2.4167E-03 -1.2597E-03
     154-      1
      1            2.4140E-02  2.2169E-02 -4.8351E-02 -7.8024E-04 -2.7988E-03 -2.3933E-04
     364-      1
      1            1.9534E-02  2.1596E-02 -4.3369E-02 -7.3490E-04 -1.6248E-03 -1.4901E-03
     469-      1
      1            1.9343E-02  2.0632E-02 -4.2254E-02  8.7458E-04  1.3675E-04 -1.6873E-03
     529-      1
      1            2.1059E-02  2.1562E-02 -4.4828E-02 -1.2843E-03 -2.0313E-03 -1.4080E-03
     589-      1
      1            1.9225E-02  2.1320E-02 -4.2702E-02 -3.1810E-04 -1.1644E-03 -1.5856E-03
     604-      1
      1            1.9305E-02  2.1097E-02 -4.2711E-02 -1.4833E-04 -6.3708E-04 -1.7704E-03



 e l e m e n t   s t r e s s   c a l c u l a t i o n s   f o r   t i m e  s t e p      630   ( at time 7.02502E+00 )

 element  materl
     ipt  stress       sig-xx      sig-yy      sig-zz      sig-xy      sig-yz      sig-zx                       yield
           state                                                                                  effsg      function
      49-      1
       1          -3.4117E+07 -4.7501E+07 -3.1674E+08 -4.8634E+06 -4.2706E+06 -9.9460E+05    2.7641E+08    5.8454E-02
      94-      1
       1          -4.8868E+07 -5.5599E+07 -3.2498E+08 -6.2647E+06 -4.3398E+06 -9.4050E+05    2.7313E+08    5.8173E-02
     154-      1
       1          -2.6787E+07 -4.0816E+07 -3.1002E+08 -3.2006E+06 -3.4866E+06 -3.8064E+05    2.7660E+08    5.9353E-02
     364-      1
       1          -5.2224E+07 -4.8141E+07 -3.4214E+08 -4.8301E+06 -4.8581E+06  4.4242E+04    2.9222E+08    5.3965E-02
     469-      1
       1          -9.4191E+06 -2.2084E+07 -3.1039E+08 -1.0666E+05 -2.9386E+06 -1.6832E+07    2.9633E+08    4.9460E-02
     529-      1
       1          -5.1414E+07 -4.8720E+07 -3.3259E+08 -7.7325E+06 -4.3279E+06 -3.6681E+05    2.8295E+08    5.6369E-02
     589-      1
       1          -5.0532E+07 -4.5942E+07 -3.4060E+08 -1.6710E+06 -6.4905E+06 -1.8054E+06    2.9263E+08    5.1436E-02
     604-      1
       1          -6.2693E+07 -6.6471E+07 -3.5723E+08  1.1867E+06 -7.6022E+06 -6.2820E+06    2.9317E+08    4.9668E-02



 e l e m e n t   s t r a i n   c a l c u l a t i o n s   f o r   t i m e  s t e p      630   ( at time  7.02502E+00 )

 element  strain       eps-xx      eps-yy      eps-zz      eps-xy      eps-yz      eps-zx                            yield
 num/ipt   state
      49-      1
      1            2.8172E-02  2.5891E-02 -5.6119E-02 -1.1018E-03 -2.8402E-03 -9.4796E-04
      94-      1
      1            2.6797E-02  2.5762E-02 -5.4754E-02 -1.5233E-03 -2.5668E-03 -1.3207E-03
     154-      1
      1            2.8752E-02  2.6375E-02 -5.7091E-02 -8.8390E-04 -2.9571E-03 -2.5913E-04
     364-      1
      1            2.3390E-02  2.5723E-02 -5.1367E-02 -9.2909E-04 -1.7616E-03 -1.5321E-03
     469-      1
      1            2.4202E-02  2.5085E-02 -5.1042E-02  8.0796E-04  1.3500E-04 -2.2479E-03
     529-      1
      1            2.4941E-02  2.5780E-02 -5.2927E-02 -1.5854E-03 -2.1547E-03 -1.4417E-03
     589-      1
      1            2.2967E-02  2.5349E-02 -5.0540E-02 -3.8604E-04 -1.3502E-03 -1.6699E-03
     604-      1
      1            2.3241E-02  2.5021E-02 -5.0713E-02 -1.2046E-04 -7.7025E-04 -1.9910E-03



 e l e m e n t   s t r e s s   c a l c u l a t i o n s   f o r   t i m e  s t e p      668   ( at time 8.12849E+00 )

 element  materl
     ipt  stress       sig-xx      sig-yy      sig-zz      sig-xy      sig-yz      sig-zx                       yield
           state                                                                                  effsg      function
      49-      1
       1          -6.7190E+07 -7.4971E+07 -3.1111E+08 -3.4228E+06 -7.5802E+06 -3.2100E+06    2.4062E+08    7.1302E-02
      94-      1
       1          -7.8539E+07 -8.5073E+07 -3.2352E+08 -3.7092E+06 -7.0735E+06 -3.8455E+06    2.4227E+08    7.0518E-02
     154-      1
       1          -5.6828E+07 -6.3490E+07 -3.0071E+08 -3.0335E+06 -6.8099E+06 -7.9692E+05    2.4097E+08    7.2815E-02
     364-      1
       1          -7.6970E+07 -7.8837E+07 -3.4002E+08 -5.1784E+06 -5.4047E+06 -3.1212E+06    2.6250E+08    6.4137E-02
     469-      1
       1          -2.9727E+07 -2.1589E+07 -3.2018E+08 -1.0066E+06 -1.0422E+06 -8.0933E+06    2.9495E+08    5.8398E-02
     529-      1
       1          -7.7098E+07 -8.2034E+07 -3.3157E+08 -4.8939E+06 -5.7560E+06 -3.7716E+06    2.5246E+08    6.7615E-02
     589-      1
       1          -7.2207E+07 -7.0578E+07 -3.4349E+08 -4.4284E+06 -5.6677E+06 -4.0860E+06    2.7248E+08    6.0822E-02
     604-      1
       1          -8.5292E+07 -8.1502E+07 -3.6891E+08 -4.1566E+06 -4.3960E+06 -5.1579E+06    2.8586E+08    5.8618E-02



 e l e m e n t   s t r a i n   c a l c u l a t i o n s   f o r   t i m e  s t e p      668   ( at time  8.12849E+00 )

 element  strain       eps-xx      eps-yy      eps-zz      eps-xy      eps-yz      eps-zx                            yield
 num/ipt   state
      49-      1
      1            3.3219E-02  3.0324E-02 -6.5880E-02 -1.3274E-03 -3.4030E-03 -1.0842E-03
      94-      1
      1            3.1626E-02  3.0033E-02 -6.4148E-02 -1.8007E-03 -3.0512E-03 -1.4859E-03
     154-      1
      1            3.3990E-02  3.1036E-02 -6.7219E-02 -1.0793E-03 -3.4908E-03 -2.7162E-04
     364-      1
      1            2.7587E-02  2.9886E-02 -5.9998E-02 -1.3208E-03 -2.0202E-03 -1.5918E-03
     469-      1
      1            2.8172E-02  2.9493E-02 -5.9579E-02  8.6019E-04  1.5700E-04 -2.5288E-03
     529-      1
      1            2.9445E-02  2.9972E-02 -6.1915E-02 -1.9689E-03 -2.4797E-03 -1.5593E-03
     589-      1
      1            2.6852E-02  2.9489E-02 -5.8816E-02 -6.9008E-04 -1.6086E-03 -1.7801E-03
     604-      1
      1            2.7072E-02  2.9235E-02 -5.9009E-02 -3.6781E-04 -9.4386E-04 -2.1592E-03



 e l e m e n t   s t r e s s   c a l c u l a t i o n s   f o r   t i m e  s t e p      699   ( at time 9.23195E+00 )

 element  materl
     ipt  stress       sig-xx      sig-yy      sig-zz      sig-xy      sig-yz      sig-zx                       yield
           state                                                                                  effsg      function
      49-      1
       1          -7.4569E+07 -8.4099E+07 -2.9871E+08 -3.2006E+06 -5.5538E+06 -3.0001E+06    2.1988E+08    8.4540E-02
      94-      1
       1          -8.9663E+07 -9.6137E+07 -3.0768E+08 -5.4747E+06 -5.0771E+06 -3.1745E+06    2.1531E+08    8.3096E-02
     154-      1
       1          -6.2768E+07 -7.1372E+07 -2.9904E+08 -1.7978E+06 -5.7580E+06 -9.3393E+05    2.3233E+08    8.6000E-02
     364-      1
       1          -8.6757E+07 -8.8540E+07 -3.3820E+08 -7.3107E+06 -4.3776E+06 -2.4535E+06    2.5103E+08    7.4715E-02
     469-      1
       1          -3.3704E+07 -3.0078E+07 -3.0693E+08  3.9078E+06 -2.7400E+06 -3.2431E+06    2.7524E+08    6.8097E-02
     529-      1
       1          -8.6618E+07 -8.8709E+07 -3.2303E+08 -7.2954E+06 -4.0963E+06 -2.2837E+06    2.3585E+08    7.8745E-02
     589-      1
       1          -8.6966E+07 -7.6247E+07 -3.3807E+08 -4.1615E+06 -4.4558E+06 -4.3603E+06    2.5696E+08    7.1490E-02
     604-      1
       1          -1.0185E+08 -9.5021E+07 -3.6852E+08 -3.9343E+06 -4.9634E+06 -6.3739E+06    2.7060E+08    6.8893E-02



 e l e m e n t   s t r a i n   c a l c u l a t i o n s   f o r   t i m e  s t e p      699   ( at time  9.23195E+00 )

 element  strain       eps-xx      eps-yy      eps-zz      eps-xy      eps-yz      eps-zx                            yield
 num/ipt   state
      49-      1
      1            3.8794E-02  3.4983E-02 -7.6160E-02 -1.6592E-03 -3.5470E-03 -1.1067E-03
      94-      1
      1            3.6679E-02  3.4552E-02 -7.3773E-02 -2.2902E-03 -3.1771E-03 -1.4560E-03
     154-      1
      1            3.9729E-02  3.5831E-02 -7.7839E-02 -1.2499E-03 -3.5661E-03 -2.8779E-04
     364-      1
      1            3.2155E-02  3.4615E-02 -6.9400E-02 -1.7999E-03 -2.1529E-03 -1.5544E-03
     469-      1
      1            3.2665E-02  3.4075E-02 -6.8672E-02  8.8759E-04  1.0817E-04 -2.8316E-03
     529-      1
      1            3.4058E-02  3.4581E-02 -7.1195E-02 -2.5204E-03 -2.5398E-03 -1.4989E-03
     589-      1
      1            3.1278E-02  3.4583E-02 -6.8430E-02 -9.8035E-04 -1.8464E-03 -1.8904E-03
     604-      1
      1            3.1553E-02  3.4171E-02 -6.8589E-02 -5.8587E-04 -1.2090E-03 -2.4378E-03



 e l e m e n t   s t r e s s   c a l c u l a t i o n s   f o r   t i m e  s t e p      723   ( at time 1.03354E+01 )

 element  materl
     ipt  stress       sig-xx      sig-yy      sig-zz      sig-xy      sig-yz      sig-zx                       yield
           state                                                                                  effsg      function
      49-      1
       1          -3.0314E+07 -5.3281E+07 -3.3586E+08 -8.3146E+06  1.2622E+06 -1.5047E+05    2.9509E+08    9.2249E-02
      94-      1
       1          -4.7495E+07 -6.3094E+07 -3.4865E+08 -1.2423E+07 -3.7480E+05  1.5449E+06    2.9447E+08    9.1235E-02
     154-      1
       1          -2.3569E+07 -4.7696E+07 -3.3010E+08 -4.5546E+06  2.6221E+06  3.9222E+05    2.9535E+08    9.3418E-02
     364-      1
       1          -6.4779E+07 -5.8544E+07 -3.6446E+08 -9.9830E+06 -4.0459E+06  2.8912E+06    3.0346E+08    8.3413E-02
     469-      1
       1           1.1240E+08  1.1839E+08 -1.9354E+08 -3.9832E+06  8.4090E+05 -9.5494E+06    3.0951E+08    8.2377E-02
     529-      1
       1          -5.3943E+07 -5.8378E+07 -3.5464E+08 -1.4586E+07 -1.9280E+06  2.8770E+06    2.9963E+08    8.7251E-02
     589-      1
       1          -6.3459E+07 -5.6890E+07 -3.6326E+08 -4.8142E+06 -8.1333E+06 -1.6864E+05    3.0358E+08    8.0580E-02
     604-      1
       1          -1.0230E+08 -1.0449E+08 -4.0907E+08  3.5905E+06 -5.4529E+06 -1.2417E+05    3.0588E+08    7.8749E-02



 e l e m e n t   s t r a i n   c a l c u l a t i o n s   f o r   t i m e  s t e p      723   ( at time  1.03354E+01 )

 element  strain       eps-xx      eps-yy      eps-zz      eps-xy      eps-yz      eps-zx                            yield
 num/ipt   state
      49-      1
      1            4.3447E-02  3.8544E-02 -8.4211E-02 -2.0695E-03 -3.3153E-03 -1.0792E-03
      94-      1
      1            4.1359E-02  3.8492E-02 -8.2250E-02 -2.8823E-03 -3.0182E-03 -1.3213E-03
     154-      1
      1            4.4150E-02  3.9108E-02 -8.5401E-02 -1.4685E-03 -3.2670E-03 -2.7493E-04
     364-      1
      1            3.6475E-02  3.9341E-02 -7.8345E-02 -2.3046E-03 -2.2569E-03 -1.4355E-03
     469-      1
      1            4.0337E-02  4.2103E-02 -8.2487E-02  6.0638E-04  4.8552E-04 -3.3054E-03
     529-      1
      1            3.8592E-02  3.8928E-02 -7.9948E-02 -3.2127E-03 -2.5042E-03 -1.3413E-03
     589-      1
      1            3.5787E-02  3.9394E-02 -7.7689E-02 -1.2892E-03 -2.1213E-03 -1.8887E-03
     604-      1
      1            3.6451E-02  3.9079E-02 -7.8655E-02 -4.8309E-04 -1.0603E-03 -2.3994E-03



 e l e m e n t   s t r e s s   c a l c u l a t i o n s   f o r   t i m e  s t e p      746   ( at time 1.10711E+01 )

 element  materl
     ipt  stress       sig-xx      sig-yy      sig-zz      sig-xy      sig-yz      sig-zx                       yield
           state                                                                                  effsg      function
      49-      1
       1          -1.8754E+07 -5.9622E+07 -3.2898E+08 -1.5438E+07  3.2391E+06  1.4346E+06    2.9323E+08    1.0088E-01
      94-      1
       1          -3.3092E+07 -5.8151E+07 -3.5136E+08 -2.1167E+07  2.7687E+06  6.2689E+06    3.0892E+08    9.9408E-02
     154-      1
       1          -1.2480E+07 -5.4887E+07 -3.0679E+08 -8.6600E+06 -3.2386E+04 -6.1654E+05    2.7597E+08    1.0301E-01
     364-      1
       1          -6.7170E+07 -6.2889E+07 -3.6645E+08 -1.7749E+07 -7.1506E+06  1.4638E+06    3.0327E+08    9.0098E-02
     469-      1
       1           9.4129E+07  1.2730E+08 -1.5878E+08  5.3007E+05  1.0178E+07  7.8689E+06    2.7194E+08    9.2307E-02
     529-      1
       1          -4.5429E+07 -5.3892E+07 -3.5657E+08 -2.3151E+07 -4.2178E+06  3.2701E+06    3.0974E+08    9.4652E-02
     589-      1
       1          -7.1009E+07 -5.0143E+07 -3.6037E+08 -1.1522E+07 -3.5905E+06 -2.6288E+06    3.0109E+08    8.7834E-02
     604-      1
       1          -9.1246E+07 -6.7908E+07 -3.8151E+08 -4.5892E+06  3.1366E+06  1.4859E+06    3.0277E+08    8.6856E-02



 e l e m e n t   s t r a i n   c a l c u l a t i o n s   f o r   t i m e  s t e p      746   ( at time  1.10711E+01 )

 element  strain       eps-xx      eps-yy      eps-zz      eps-xy      eps-yz      eps-zx                            yield
 num/ipt   state
      49-      1
      1            4.7445E-02  4.1192E-02 -9.0818E-02 -2.5579E-03 -3.3014E-03 -1.0028E-03
      94-      1
      1            4.4744E-02  4.1182E-02 -8.8261E-02 -3.4953E-03 -3.0406E-03 -1.2531E-03
     154-      1
      1            4.8751E-02  4.2039E-02 -9.2825E-02 -1.7936E-03 -3.3616E-03 -2.2940E-04
     364-      1
      1            3.9352E-02  4.2305E-02 -8.4241E-02 -2.8245E-03 -2.3838E-03 -1.3201E-03
     469-      1
      1            4.4728E-02  4.8267E-02 -9.2012E-02  1.1825E-03  6.9403E-04 -3.6835E-03
     529-      1
      1            4.1652E-02  4.1913E-02 -8.5953E-02 -3.8891E-03 -2.6028E-03 -1.2669E-03
     589-      1
      1            3.8571E-02  4.2896E-02 -8.3979E-02 -1.5836E-03 -2.1505E-03 -1.8803E-03
     604-      1
      1            3.9730E-02  4.3282E-02 -8.5792E-02 -2.5422E-04 -7.6866E-04 -2.4082E-03



 e l e m e n t   s t r e s s   c a l c u l a t i o n s   f o r   t i m e  s t e p      770   ( at time 1.21745E+01 )

 element  materl
     ipt  stress       sig-xx      sig-yy      sig-zz      sig-xy      sig-yz      sig-zx                       yield
           state                                                                                  effsg      function
      49-      1
       1          -2.9653E+07 -5.6518E+07 -3.3595E+08 -9.3356E+06 -5.3455E+04  1.2791E+06    2.9424E+08    1.1068E-01
      94-      1
       1          -3.9256E+07 -5.7780E+07 -3.4429E+08 -1.4450E+07 -1.7819E+06  3.7961E+06    2.9735E+08    1.0905E-01
     154-      1
       1          -1.5937E+07 -4.4715E+07 -3.2027E+08 -5.5119E+06  9.6883E+05  9.7346E+05    2.9118E+08    1.1284E-01
     364-      1
       1          -8.7981E+07 -8.0410E+07 -3.9109E+08 -1.0673E+07 -2.9378E+06  9.1846E+05    3.0757E+08    9.9295E-02
     469-      1
       1           1.4383E+08  1.4155E+08 -9.6847E+07  2.0677E+06  1.7219E+06 -3.9764E+06    2.3969E+08    1.0506E-01
     529-      1
       1          -6.7240E+07 -7.2748E+07 -3.7309E+08 -1.4416E+07 -4.5334E+06  2.9173E+06    3.0430E+08    1.0367E-01
     589-      1
       1          -7.7246E+07 -5.8438E+07 -3.7444E+08 -4.0057E+06  2.1230E+06 -2.6228E+05    3.0713E+08    9.7673E-02
     604-      1
       1          -6.1889E+07 -3.8285E+07 -3.5948E+08  7.3957E+06  6.0083E+06  8.6260E+06    3.1086E+08    9.8026E-02



 e l e m e n t   s t r a i n   c a l c u l a t i o n s   f o r   t i m e  s t e p      770   ( at time  1.21745E+01 )

 element  strain       eps-xx      eps-yy      eps-zz      eps-xy      eps-yz      eps-zx                            yield
 num/ipt   state
      49-      1
      1            5.2415E-02  4.5071E-02 -9.9757E-02 -2.8875E-03 -3.2504E-03 -9.4729E-04
      94-      1
      1            4.9508E-02  4.5149E-02 -9.7006E-02 -4.0138E-03 -3.0488E-03 -1.0899E-03
     154-      1
      1            5.3784E-02  4.5931E-02 -1.0180E-01 -1.9870E-03 -3.1956E-03 -1.6093E-04
     364-      1
      1            4.3552E-02  4.6818E-02 -9.3270E-02 -3.2207E-03 -2.3136E-03 -1.2601E-03
     469-      1
      1            5.2487E-02  5.7109E-02 -1.0666E-01  1.7983E-03  1.0759E-03 -3.8623E-03
     529-      1
      1            4.5910E-02  4.5973E-02 -9.4559E-02 -4.3741E-03 -2.6957E-03 -1.1206E-03
     589-      1
      1            4.2804E-02  4.8113E-02 -9.3586E-02 -1.7463E-03 -1.8635E-03 -1.8411E-03
     604-      1
      1            4.4600E-02  4.9625E-02 -9.6646E-02  1.0549E-04 -1.8175E-04 -1.9456E-03



 e l e m e n t   s t r e s s   c a l c u l a t i o n s   f o r   t i m e  s t e p      784   ( at time 1.31253E+01 )

 element  materl
     ipt  stress       sig-xx      sig-yy      sig-zz      sig-xy      sig-yz      sig-zx                       yield
           state                                                                                  effsg      function
      49-      1
       1          -3.7357E+07 -6.2098E+07 -3.5447E+08 -6.5083E+06  7.4336E+05  3.2554E+06    3.0576E+08    1.1838E-01
      94-      1
       1          -5.3241E+07 -7.1292E+07 -3.6513E+08 -1.1149E+07 -8.2521E+05  2.8772E+06    3.0393E+08    1.1675E-01
     154-      1
       1          -1.2321E+07 -3.9964E+07 -3.3129E+08 -3.4397E+06  4.5596E+06  1.8768E+06    3.0626E+08    1.2050E-01
     364-      1
       1          -9.1299E+07 -8.2938E+07 -3.9924E+08 -9.7327E+06 -7.9285E+05  2.8371E+06    3.1271E+08    1.0646E-01
     469-      1
       1           8.8575E+07  9.0346E+07 -1.1251E+08  3.0643E+05 -5.7640E+05 -4.7967E+06    2.0215E+08    1.1139E-01
     529-      1
       1          -7.1686E+07 -7.7045E+07 -3.8321E+08 -1.3743E+07 -1.9310E+06  2.7791E+06    3.0985E+08    1.1114E-01
     589-      1
       1          -8.5113E+07 -6.6919E+07 -3.8843E+08 -2.5326E+06  1.5590E+06  8.1985E+05    3.1285E+08    1.0514E-01
     604-      1
       1          -6.5629E+07 -4.9406E+07 -3.7438E+08  4.3362E+06  2.6962E+06  2.7748E+06    3.1733E+08    1.0618E-01



 e l e m e n t   s t r a i n   c a l c u l a t i o n s   f o r   t i m e  s t e p      784   ( at time  1.31253E+01 )

 element  strain       eps-xx      eps-yy      eps-zz      eps-xy      eps-yz      eps-zx                            yield
 num/ipt   state
      49-      1
      1            5.6397E-02  4.8324E-02 -1.0716E-01 -3.0334E-03 -3.2016E-03 -8.4089E-04
      94-      1
      1            5.3348E-02  4.8408E-02 -1.0436E-01 -4.3100E-03 -2.9855E-03 -1.0131E-03
     154-      1
      1            5.7846E-02  4.9176E-02 -1.0915E-01 -2.0593E-03 -2.9584E-03 -1.1772E-04
     364-      1
      1            4.6901E-02  5.0426E-02 -1.0031E-01 -3.4923E-03 -2.2515E-03 -1.1054E-03
     469-      1
      1            5.7489E-02  6.2292E-02 -1.1668E-01  1.9508E-03  1.1258E-03 -4.2336E-03
     529-      1
      1            4.9559E-02  4.9452E-02 -1.0180E-01 -4.7901E-03 -2.6724E-03 -1.0032E-03
     589-      1
      1            4.6137E-02  5.2002E-02 -1.0097E-01 -1.7873E-03 -1.7468E-03 -1.7966E-03
     604-      1
      1            4.8410E-02  5.3816E-02 -1.0481E-01  2.4115E-04  4.0281E-05 -2.0016E-03



 e l e m e n t   s t r e s s   c a l c u l a t i o n s   f o r   t i m e  s t e p      798   ( at time 1.42912E+01 )

 element  materl
     ipt  stress       sig-xx      sig-yy      sig-zz      sig-xy      sig-yz      sig-zx                       yield
           state                                                                                  effsg      function
      49-      1
       1          -4.3512E+07 -5.3240E+07 -3.6314E+08 -2.0787E+06  2.4540E+05  4.2376E+05    3.1490E+08    1.2805E-01
      94-      1
       1          -6.3587E+07 -7.2362E+07 -3.8074E+08 -5.8605E+06  2.7244E+05  1.6522E+05    3.1302E+08    1.2611E-01
     154-      1
       1          -3.0441E+07 -3.7436E+07 -3.5036E+08 -8.9096E+05  1.5759E+06 -6.8556E+04    3.1649E+08    1.3028E-01
     364-      1
       1          -9.1652E+07 -8.6929E+07 -4.0734E+08 -4.2231E+06 -7.8459E+05  2.6822E+06    3.1820E+08    1.1513E-01
     469-      1
       1           6.1415E+07  5.9377E+07 -1.4325E+08  3.3550E+05 -7.0689E+05 -6.7250E+06    2.0399E+08    1.1851E-01
     529-      1
       1          -7.2607E+07 -7.3617E+07 -3.8817E+08 -7.5503E+06  1.4447E+06  2.6137E+06    3.1537E+08    1.1997E-01
     589-      1
       1          -8.4699E+07 -7.0675E+07 -3.9509E+08  6.8075E+05 -8.8414E+05  2.5985E+06    3.1768E+08    1.1378E-01
     604-      1
       1          -8.3555E+07 -6.9285E+07 -3.9726E+08  2.9820E+06  1.2534E+06 -9.2016E+05    3.2113E+08    1.1535E-01



 e l e m e n t   s t r a i n   c a l c u l a t i o n s   f o r   t i m e  s t e p      798   ( at time  1.42912E+01 )

 element  strain       eps-xx      eps-yy      eps-zz      eps-xy      eps-yz      eps-zx                            yield
 num/ipt   state
      49-      1
      1            6.1222E-02  5.2713E-02 -1.1644E-01 -3.1598E-03 -3.1151E-03 -7.9724E-04
      94-      1
      1            5.7969E-02  5.2622E-02 -1.1335E-01 -4.5706E-03 -2.9660E-03 -9.1882E-04
     154-      1
      1            6.2596E-02  5.3691E-02 -1.1861E-01 -2.0956E-03 -2.8592E-03 -1.4538E-04
     364-      1
      1            5.1031E-02  5.4749E-02 -1.0885E-01 -3.6278E-03 -2.2736E-03 -1.0430E-03
     469-      1
      1            6.2856E-02  6.7798E-02 -1.2803E-01  2.1961E-03  1.2321E-03 -4.6561E-03
     529-      1
      1            5.3830E-02  5.3698E-02 -1.1036E-01 -5.0531E-03 -2.5724E-03 -8.7633E-04
     589-      1
      1            5.0056E-02  5.6504E-02 -1.0947E-01 -1.7435E-03 -1.7255E-03 -1.7086E-03
     604-      1
      1            5.2552E-02  5.8538E-02 -1.1400E-01  3.8725E-04  3.2013E-04 -2.1025E-03



 e l e m e n t   s t r e s s   c a l c u l a t i o n s   f o r   t i m e  s t e p      806   ( at time 1.52151E+01 )

 element  materl
     ipt  stress       sig-xx      sig-yy      sig-zz      sig-xy      sig-yz      sig-zx                       yield
           state                                                                                  effsg      function
      49-      1
       1          -3.7279E+07 -5.4399E+07 -3.6331E+08 -5.1079E+06  2.4775E+06  1.3902E+06    3.1798E+08    1.3564E-01
      94-      1
       1          -6.0072E+07 -7.2272E+07 -3.8177E+08 -8.5950E+06  4.6001E+05  2.8686E+06    3.1617E+08    1.3374E-01
     154-      1
       1          -2.1580E+07 -3.9348E+07 -3.5105E+08 -2.4258E+06  4.1426E+06  4.4469E+04    3.2106E+08    1.3775E-01
     364-      1
       1          -9.7165E+07 -9.0221E+07 -4.1407E+08 -5.6660E+06  1.4243E+06  1.0328E+06    3.2060E+08    1.2303E-01
     469-      1
       1           9.0708E+07  8.9394E+07 -1.1544E+08  4.1706E+05 -1.2147E+06 -5.0237E+06    2.0569E+08    1.2493E-01
     529-      1
       1          -7.6494E+07 -7.9417E+07 -3.9592E+08 -8.8464E+06  6.5983E+05  3.5851E+06    3.1841E+08    1.2767E-01
     589-      1
       1          -6.6757E+07 -4.9887E+07 -3.7850E+08 -1.7714E+06  1.2477E+06  4.1761E+06    3.2061E+08    1.2191E-01
     604-      1
       1          -8.0493E+07 -6.3935E+07 -3.9606E+08  3.8377E+05 -1.7959E+05  1.8332E+06    3.2417E+08    1.2399E-01



 e l e m e n t   s t r a i n   c a l c u l a t i o n s   f o r   t i m e  s t e p      806   ( at time  1.52151E+01 )

 element  strain       eps-xx      eps-yy      eps-zz      eps-xy      eps-yz      eps-zx                            yield
 num/ipt   state
      49-      1
      1            6.5243E-02  5.5994E-02 -1.2376E-01 -3.3932E-03 -2.9835E-03 -7.4409E-04
      94-      1
      1            6.1874E-02  5.6027E-02 -1.2069E-01 -4.9217E-03 -2.9071E-03 -8.0788E-04
     154-      1
      1            6.6637E-02  5.6921E-02 -1.2589E-01 -2.2087E-03 -2.7072E-03 -1.4468E-04
     364-      1
      1            5.4737E-02  5.8726E-02 -1.1666E-01 -3.8647E-03 -2.1695E-03 -1.0335E-03
     469-      1
      1            6.8132E-02  7.3166E-02 -1.3798E-01  2.3897E-03  1.1814E-03 -4.9250E-03
     529-      1
      1            5.7610E-02  5.7322E-02 -1.1788E-01 -5.3892E-03 -2.4859E-03 -7.7254E-04
     589-      1
      1            5.3788E-02  6.0915E-02 -1.1740E-01 -1.8619E-03 -1.5726E-03 -1.5278E-03
     604-      1
      1            5.6508E-02  6.3171E-02 -1.2259E-01  3.5150E-04  4.7486E-04 -2.0691E-03



 e l e m e n t   s t r e s s   c a l c u l a t i o n s   f o r   t i m e  s t e p      814   ( at time 1.61391E+01 )

 element  materl
     ipt  stress       sig-xx      sig-yy      sig-zz      sig-xy      sig-yz      sig-zx                       yield
           state                                                                                  effsg      function
      49-      1
       1          -3.9069E+07 -5.5055E+07 -3.6760E+08 -4.2609E+06  1.9605E+06  1.3048E+06    3.2095E+08    1.4331E-01
      94-      1
       1          -6.0836E+07 -7.3280E+07 -3.8644E+08 -7.9325E+06  8.4287E+05  8.3844E+05    3.1987E+08    1.4149E-01
     154-      1
       1          -2.1029E+07 -3.4882E+07 -3.5076E+08 -1.2495E+06  3.0086E+06 -3.1355E+04    3.2308E+08    1.4524E-01
     364-      1
       1          -9.9449E+07 -9.3162E+07 -4.1753E+08 -8.7045E+06  7.3759E+04  2.3362E+06    3.2165E+08    1.3060E-01
     469-      1
       1           9.3551E+07  9.4068E+07 -1.1187E+08  9.4475E+05 -1.8514E+06 -5.7336E+06    2.0595E+08    1.3074E-01
     529-      1
       1          -7.0906E+07 -7.3581E+07 -3.9144E+08 -1.0671E+07  2.1004E+06  2.5236E+06    3.1979E+08    1.3539E-01
     589-      1
       1          -6.9196E+07 -5.0192E+07 -3.8120E+08 -3.4434E+06  1.7367E+06  4.9843E+06    3.2211E+08    1.2915E-01
     604-      1
       1          -7.7677E+07 -5.7187E+07 -3.9384E+08 -1.3730E+06 -6.3049E+05  1.2981E+06    3.2691E+08    1.3205E-01



 e l e m e n t   s t r a i n   c a l c u l a t i o n s   f o r   t i m e  s t e p      814   ( at time  1.61391E+01 )

 element  strain       eps-xx      eps-yy      eps-zz      eps-xy      eps-yz      eps-zx                            yield
 num/ipt   state
      49-      1
      1            6.9198E-02  5.9411E-02 -1.3120E-01 -3.5245E-03 -2.9343E-03 -7.2273E-04
      94-      1
      1            6.5824E-02  5.9520E-02 -1.2820E-01 -5.1849E-03 -2.9060E-03 -8.3509E-04
     154-      1
      1            7.0465E-02  6.0353E-02 -1.3316E-01 -2.2310E-03 -2.7177E-03 -1.6510E-04
     364-      1
      1            5.8310E-02  6.2489E-02 -1.2407E-01 -4.2266E-03 -2.2359E-03 -9.5008E-04
     469-      1
      1            7.2709E-02  7.7891E-02 -1.4711E-01  2.6043E-03  1.0562E-03 -5.2068E-03
     529-      1
      1            6.1405E-02  6.1014E-02 -1.2534E-01 -5.7988E-03 -2.3702E-03 -7.2176E-04
     589-      1
      1            5.6980E-02  6.4775E-02 -1.2452E-01 -2.0130E-03 -1.4534E-03 -1.3755E-03
     604-      1
      1            6.0114E-02  6.7583E-02 -1.3060E-01  2.7081E-04  6.3606E-04 -2.1443E-03



 e l e m e n t   s t r e s s   c a l c u l a t i o n s   f o r   t i m e  s t e p      822   ( at time 1.70630E+01 )

 element  materl
     ipt  stress       sig-xx      sig-yy      sig-zz      sig-xy      sig-yz      sig-zx                       yield
           state                                                                                  effsg      function
      49-      1
       1          -3.9964E+07 -5.8543E+07 -3.7145E+08 -5.3344E+06  1.1354E+06  6.9509E+05    3.2274E+08    1.5106E-01
      94-      1
       1          -6.7449E+07 -8.0788E+07 -3.9325E+08 -8.9005E+06  4.4357E+05  3.0156E+05    3.1972E+08    1.4941E-01
     154-      1
       1          -1.7855E+07 -3.7113E+07 -3.5201E+08 -1.8102E+06  3.1691E+06  4.3889E+05    3.2501E+08    1.5285E-01
     364-      1
       1          -1.0032E+08 -9.1913E+07 -4.1752E+08 -8.7540E+06  1.1983E+06  3.4661E+06    3.2191E+08    1.3787E-01
     469-      1
       1           9.7039E+07  9.8298E+07 -1.0926E+08  1.2017E+06 -1.5287E+06 -5.6693E+06    2.0719E+08    1.3619E-01
     529-      1
       1          -7.2535E+07 -7.4346E+07 -3.9216E+08 -1.2154E+07  2.3011E+06  8.3955E+05    3.1944E+08    1.4319E-01
     589-      1
       1          -7.0410E+07 -4.9320E+07 -3.8308E+08 -3.4119E+06  1.1284E+06  4.0890E+06    3.2386E+08    1.3617E-01
     604-      1
       1          -7.1236E+07 -5.1640E+07 -3.8994E+08 -3.5001E+06 -1.7323E+05  1.3669E+06    3.2901E+08    1.3978E-01



 e l e m e n t   s t r a i n   c a l c u l a t i o n s   f o r   t i m e  s t e p      822   ( at time  1.70630E+01 )

 element  strain       eps-xx      eps-yy      eps-zz      eps-xy      eps-yz      eps-zx                            yield
 num/ipt   state
      49-      1
      1            7.3260E-02  6.2773E-02 -1.3871E-01 -3.7331E-03 -2.9356E-03 -7.3840E-04
      94-      1
      1            6.9796E-02  6.2992E-02 -1.3579E-01 -5.5202E-03 -2.9122E-03 -8.4653E-04
     154-      1
      1            7.4524E-02  6.3650E-02 -1.4056E-01 -2.3048E-03 -2.6474E-03 -1.4499E-04
     364-      1
      1            6.1676E-02  6.6152E-02 -1.3114E-01 -4.5199E-03 -2.2451E-03 -8.4171E-04
     469-      1
      1            7.7032E-02  8.2318E-02 -1.5573E-01  2.7620E-03  9.6236E-04 -5.4788E-03
     529-      1
      1            6.5142E-02  6.4693E-02 -1.3281E-01 -6.2554E-03 -2.3268E-03 -7.1322E-04
     589-      1
      1            6.0048E-02  6.8548E-02 -1.3140E-01 -2.1275E-03 -1.4205E-03 -1.3814E-03
     604-      1
      1            6.3633E-02  7.1759E-02 -1.3826E-01  1.1333E-04  7.8227E-04 -2.2508E-03



 e l e m e n t   s t r e s s   c a l c u l a t i o n s   f o r   t i m e  s t e p      838   ( at time 1.89108E+01 )

 element  materl
     ipt  stress       sig-xx      sig-yy      sig-zz      sig-xy      sig-yz      sig-zx                       yield
           state                                                                                  effsg      function
      49-      1
       1          -4.2206E+07 -5.7979E+07 -3.7363E+08 -6.2484E+06  2.3859E+06 -1.9872E+06    3.2405E+08    1.6652E-01
      94-      1
       1          -3.4481E+07 -4.8056E+07 -3.6363E+08 -7.6879E+06  2.6150E+06 -3.5228E+03    3.2288E+08    1.6546E-01
     154-      1
       1          -1.8996E+07 -3.6005E+07 -3.5181E+08 -2.9232E+06  3.3751E+06 -6.9801E+04    3.2473E+08    1.6765E-01
     364-      1
       1          -9.7921E+07 -8.8003E+07 -4.1840E+08 -7.6690E+06 -2.9723E+05  6.5487E+06    3.2602E+08    1.5252E-01
     469-      1
       1           1.1193E+08  1.1152E+08 -9.7486E+07  2.7252E+06 -4.7518E+05 -7.0424E+06    2.0962E+08    1.4747E-01
     529-      1
       1          -3.5142E+07 -3.8524E+07 -3.5874E+08 -1.0603E+07  1.2284E+06  5.6837E+06    3.2260E+08    1.5871E-01
     589-      1
       1          -7.3275E+07 -5.7491E+07 -3.9241E+08 -4.6066E+06 -2.0729E+06  4.3919E+06    3.2752E+08    1.5013E-01
     604-      1
       1          -7.9041E+07 -6.4275E+07 -4.0255E+08 -1.1376E+06  6.7964E+05  1.9000E+06    3.3116E+08    1.5443E-01



 e l e m e n t   s t r a i n   c a l c u l a t i o n s   f o r   t i m e  s t e p      838   ( at time  1.89108E+01 )

 element  strain       eps-xx      eps-yy      eps-zz      eps-xy      eps-yz      eps-zx                            yield
 num/ipt   state
      49-      1
      1            8.1152E-02  6.9584E-02 -1.5351E-01 -4.1606E-03 -2.7602E-03 -9.1760E-04
      94-      1
      1            7.8040E-02  7.0350E-02 -1.5102E-01 -6.0595E-03 -2.7947E-03 -9.1231E-04
     154-      1
      1            8.2158E-02  7.0099E-02 -1.5472E-01 -2.5330E-03 -2.4307E-03 -1.5231E-04
     364-      1
      1            6.8489E-02  7.3575E-02 -1.4542E-01 -5.0416E-03 -2.2853E-03 -5.2404E-04
     469-      1
      1            8.5848E-02  9.1491E-02 -1.7313E-01  3.3444E-03  1.0931E-03 -6.1755E-03
     529-      1
      1            7.2834E-02  7.2184E-02 -1.4757E-01 -6.9396E-03 -2.2843E-03 -3.9750E-04
     589-      1
      1            6.6407E-02  7.5793E-02 -1.4517E-01 -2.4682E-03 -1.5610E-03 -1.2408E-03
     604-      1
      1            7.0318E-02  7.9401E-02 -1.5282E-01  3.6713E-05  1.2173E-03 -2.2849E-03



 e l e m e n t   s t r e s s   c a l c u l a t i o n s   f o r   t i m e  s t e p      846   ( at time 1.98348E+01 )

 element  materl
     ipt  stress       sig-xx      sig-yy      sig-zz      sig-xy      sig-yz      sig-zx                       yield
           state                                                                                  effsg      function
      49-      1
       1          -3.9050E+07 -5.6912E+07 -3.7127E+08 -8.6054E+06  2.3729E+06 -1.3480E+06    3.2403E+08    1.7426E-01
      94-      1
       1          -3.2469E+07 -4.5809E+07 -3.6073E+08 -9.4829E+06  3.4992E+06  3.2716E+05    3.2227E+08    1.7296E-01
     154-      1
       1          -1.8121E+07 -3.7730E+07 -3.5355E+08 -2.8094E+06  3.9257E+06 -1.3847E+05    3.2618E+08    1.7549E-01
     364-      1
       1          -9.5797E+07 -8.8529E+07 -4.1820E+08 -8.9556E+06 -6.4737E+05  6.0332E+06    3.2663E+08    1.5972E-01
     469-      1
       1           1.1566E+08  1.1785E+08 -9.3759E+07  2.2667E+06 -1.2416E+06 -6.4821E+06    2.1087E+08    1.5259E-01
     529-      1
       1          -2.7503E+07 -2.7858E+07 -3.5144E+08 -1.2287E+07  1.8229E+06  3.8438E+06    3.2454E+08    1.6616E-01
     589-      1
       1          -7.5740E+07 -5.9618E+07 -3.9557E+08 -4.9324E+06 -2.7247E+06  5.1981E+06    3.2846E+08    1.5700E-01
     604-      1
       1          -8.1153E+07 -6.7096E+07 -4.0719E+08 -2.1428E+06 -3.2138E+05  2.5622E+06    3.3333E+08    1.6146E-01



 e l e m e n t   s t r a i n   c a l c u l a t i o n s   f o r   t i m e  s t e p      846   ( at time  1.98348E+01 )

 element  strain       eps-xx      eps-yy      eps-zz      eps-xy      eps-yz      eps-zx                            yield
 num/ipt   state
      49-      1
      1            8.5145E-02  7.2925E-02 -1.6085E-01 -4.5019E-03 -2.6988E-03 -8.9278E-04
      94-      1
      1            8.1794E-02  7.3657E-02 -1.5809E-01 -6.4043E-03 -2.6881E-03 -8.9642E-04
     154-      1
      1            8.6249E-02  7.3460E-02 -1.6222E-01 -2.6296E-03 -2.3202E-03 -1.1292E-04
     364-      1
      1            7.1880E-02  7.7134E-02 -1.5240E-01 -5.3574E-03 -2.3263E-03 -4.2746E-04
     469-      1
      1            8.9863E-02  9.5719E-02 -1.8117E-01  3.5410E-03  1.0353E-03 -6.4806E-03
     529-      1
      1            7.6414E-02  7.5799E-02 -1.5468E-01 -7.3764E-03 -2.2828E-03 -3.9165E-04
     589-      1
      1            6.9487E-02  7.9366E-02 -1.5189E-01 -2.6327E-03 -1.6424E-03 -1.1616E-03
     604-      1
      1            7.3563E-02  8.3061E-02 -1.5981E-01 -4.7488E-05  1.3525E-03 -2.3096E-03



 e l e m e n t   s t r e s s   c a l c u l a t i o n s   f o r   t i m e  s t e p      854   ( at time 2.07587E+01 )

 element  materl
     ipt  stress       sig-xx      sig-yy      sig-zz      sig-xy      sig-yz      sig-zx                       yield
           state                                                                                  effsg      function
      49-      1
       1          -3.5434E+07 -5.8115E+07 -3.6777E+08 -1.1278E+07  3.1311E+06 -1.8696E+04    3.2224E+08    1.8179E-01
      94-      1
       1          -2.9493E+07 -4.9831E+07 -3.5937E+08 -1.1809E+07  2.6647E+06  9.5407E+05    3.2088E+08    1.8055E-01
     154-      1
       1          -9.2569E+06 -3.7259E+07 -3.5003E+08 -4.2912E+06  6.1079E+06  2.7577E+05    3.2793E+08    1.8322E-01
     364-      1
       1          -9.0003E+07 -8.4965E+07 -4.1443E+08 -1.2722E+07 -4.1796E+06  7.4764E+06    3.2805E+08    1.6683E-01
     469-      1
       1           1.2404E+08  1.2514E+08 -8.5407E+07  3.6324E+06  9.0838E+05 -8.8403E+06    2.1066E+08    1.5768E-01
     529-      1
       1          -1.7308E+07 -2.4685E+07 -3.4399E+08 -1.6027E+07  9.3615E+05  4.8838E+06    3.2436E+08    1.7392E-01
     589-      1
       1          -7.9784E+07 -6.5303E+07 -4.0013E+08 -8.7603E+06 -8.2445E+06  3.9770E+06    3.2856E+08    1.6366E-01
     604-      1
       1          -5.3612E+07 -2.8246E+07 -3.7292E+08 -2.9958E+06 -9.3158E+05 -4.3712E+06    3.3285E+08    1.6876E-01



 e l e m e n t   s t r a i n   c a l c u l a t i o n s   f o r   t i m e  s t e p      854   ( at time  2.07587E+01 )

 element  strain       eps-xx      eps-yy      eps-zz      eps-xy      eps-yz      eps-zx                            yield
 num/ipt   state
      49-      1
      1            8.9069E-02  7.6004E-02 -1.6787E-01 -4.9268E-03 -2.5996E-03 -8.3609E-04
      94-      1
      1            8.5719E-02  7.6758E-02 -1.6515E-01 -6.8394E-03 -2.6011E-03 -9.3777E-04
     154-      1
      1            9.0497E-02  7.6601E-02 -1.6959E-01 -2.8052E-03 -2.1106E-03 -3.8528E-05
     364-      1
      1            7.5269E-02  8.0626E-02 -1.5926E-01 -5.8309E-03 -2.4869E-03 -1.6165E-04
     469-      1
      1            9.3863E-02  9.9823E-02 -1.8907E-01  4.0161E-03  1.0279E-03 -6.8415E-03
     529-      1
      1            8.0301E-02  7.9287E-02 -1.6200E-01 -7.9962E-03 -2.2456E-03 -2.8999E-04
     589-      1
      1            7.2489E-02  8.2754E-02 -1.5838E-01 -2.9742E-03 -1.7732E-03 -1.0122E-03
     604-      1
      1            7.6771E-02  8.7276E-02 -1.6679E-01 -1.6090E-04  1.5900E-03 -2.3959E-03



 e l e m e n t   s t r e s s   c a l c u l a t i o n s   f o r   t i m e  s t e p      862   ( at time 2.16826E+01 )

 element  materl
     ipt  stress       sig-xx      sig-yy      sig-zz      sig-xy      sig-yz      sig-zx                       yield
           state                                                                                  effsg      function
      49-      1
       1          -2.7674E+07 -5.2612E+07 -3.6082E+08 -1.2356E+07  3.3495E+06 -1.4078E+06    3.2217E+08    1.8948E-01
      94-      1
       1          -2.1597E+07 -4.3488E+07 -3.5341E+08 -1.4362E+07  7.3373E+05  1.8037E+06    3.2240E+08    1.8838E-01
     154-      1
       1          -1.1624E+07 -3.9098E+07 -3.4811E+08 -4.6262E+06  6.2079E+06 -5.5022E+05    3.2391E+08    1.9024E-01
     364-      1
       1          -9.1666E+07 -8.9610E+07 -4.1849E+08 -1.3283E+07 -5.2804E+06  5.9802E+06    3.2896E+08    1.7398E-01
     469-      1
       1           1.2936E+08  1.3459E+08 -7.8330E+07  5.3133E+06  1.4426E+06 -8.3056E+06    2.1106E+08    1.6264E-01
     529-      1
       1          -1.7835E+07 -2.8312E+07 -3.4526E+08 -1.5856E+07 -9.3720E+05  5.5143E+06    3.2363E+08    1.8129E-01
     589-      1
       1          -8.0992E+07 -6.6885E+07 -4.0471E+08 -1.2010E+07 -7.2387E+06  3.2773E+06    3.3194E+08    1.7088E-01
     604-      1
       1          -2.5455E+07  1.1673E+06 -3.4792E+08 -6.4077E+06 -1.7100E+06 -3.4483E+06    3.3681E+08    1.7679E-01



 e l e m e n t   s t r a i n   c a l c u l a t i o n s   f o r   t i m e  s t e p      862   ( at time  2.16826E+01 )

 element  strain       eps-xx      eps-yy      eps-zz      eps-xy      eps-yz      eps-zx                            yield
 num/ipt   state
      49-      1
      1            9.3103E-02  7.9151E-02 -1.7499E-01 -5.3602E-03 -2.4706E-03 -9.7847E-04
      94-      1
      1            8.9790E-02  8.0032E-02 -1.7244E-01 -7.3772E-03 -2.6601E-03 -8.8902E-04
     154-      1
      1            9.4151E-02  7.9422E-02 -1.7611E-01 -2.9552E-03 -1.9213E-03 -9.3018E-05
     364-      1
      1            7.8700E-02  8.4036E-02 -1.6618E-01 -6.2684E-03 -2.5991E-03 -9.8956E-05
     469-      1
      1            9.7598E-02  1.0403E-01 -1.9687E-01  4.5273E-03  8.7074E-04 -7.1794E-03
     529-      1
      1            8.3950E-02  8.2515E-02 -1.6894E-01 -8.5075E-03 -2.2711E-03 -1.7048E-04
     589-      1
      1            7.5785E-02  8.6477E-02 -1.6547E-01 -3.4320E-03 -1.7725E-03 -9.4330E-04
     604-      1
      1            8.0384E-02  9.1842E-02 -1.7462E-01 -4.5421E-04  1.6868E-03 -2.4382E-03



 e l e m e n t   s t r e s s   c a l c u l a t i o n s   f o r   t i m e  s t e p      870   ( at time 2.26065E+01 )

 element  materl
     ipt  stress       sig-xx      sig-yy      sig-zz      sig-xy      sig-yz      sig-zx                       yield
           state                                                                                  effsg      function
      49-      1
       1          -2.6926E+07 -5.0177E+07 -3.6052E+08 -1.3296E+07  3.0067E+06 -2.3477E+06    3.2348E+08    1.9725E-01
      94-      1
       1          -1.9904E+07 -3.7866E+07 -3.5200E+08 -1.5026E+07  7.5025E+05  1.7787E+06    3.2455E+08    1.9616E-01
     154-      1
       1          -1.3392E+07 -4.1552E+07 -3.5030E+08 -5.3506E+06  4.4143E+06 -1.0590E+06    3.2398E+08    1.9762E-01
     364-      1
       1          -8.9249E+07 -9.4793E+07 -4.2111E+08 -1.4067E+07 -5.7091E+06  5.9147E+06    3.3033E+08    1.8075E-01
     469-      1
       1           9.8312E+07  9.6287E+07 -6.9352E+07  5.9506E+06  4.5986E+06 -1.8305E+07    1.7015E+08    1.6706E-01
     529-      1
       1          -1.6321E+07 -2.5587E+07 -3.4707E+08 -1.4494E+07 -1.4153E+06  5.6068E+06    3.2733E+08    1.8838E-01
     589-      1
       1          -8.1442E+07 -6.9448E+07 -4.0739E+08 -1.7301E+07 -9.9871E+06  1.7662E+06    3.3391E+08    1.7752E-01
     604-      1
       1          -2.0729E+07  1.7404E+07 -3.3718E+08 -1.0731E+07 -2.9862E+06 -1.5156E+06    3.3770E+08    1.8424E-01



 e l e m e n t   s t r a i n   c a l c u l a t i o n s   f o r   t i m e  s t e p      870   ( at time  2.26065E+01 )

 element  strain       eps-xx      eps-yy      eps-zz      eps-xy      eps-yz      eps-zx                            yield
 num/ipt   state
      49-      1
      1            9.7091E-02  8.2381E-02 -1.8223E-01 -5.8263E-03 -2.4037E-03 -1.1029E-03
      94-      1
      1            9.3710E-02  8.3399E-02 -1.7972E-01 -7.8953E-03 -2.7304E-03 -8.6366E-04
     154-      1
      1            9.8027E-02  8.2381E-02 -1.8301E-01 -3.1424E-03 -1.7742E-03 -1.3115E-04
     364-      1
      1            8.2108E-02  8.7111E-02 -1.7272E-01 -6.7083E-03 -2.7168E-03 -4.1498E-05
     469-      1
      1            1.0202E-01  1.0823E-01 -2.0487E-01  5.1645E-03  1.0427E-03 -7.7009E-03
     529-      1
      1            8.7461E-02  8.5745E-02 -1.7570E-01 -8.9312E-03 -2.4799E-03 -1.2384E-04
     589-      1
      1            7.8856E-02  8.9836E-02 -1.7196E-01 -4.0501E-03 -1.9219E-03 -8.8494E-04
     604-      1
      1            8.3333E-02  9.6252E-02 -1.8187E-01 -8.8645E-04  1.8735E-03 -2.3467E-03



 e l e m e n t   s t r e s s   c a l c u l a t i o n s   f o r   t i m e  s t e p      878   ( at time 2.35305E+01 )

 element  materl
     ipt  stress       sig-xx      sig-yy      sig-zz      sig-xy      sig-yz      sig-zx                       yield
           state                                                                                  effsg      function
      49-      1
       1          -2.6019E+07 -5.4448E+07 -3.6109E+08 -1.2269E+07  3.6391E+06  7.0193E+05    3.2256E+08    2.0429E-01
      94-      1
       1          -2.7657E+07 -4.5067E+07 -3.5534E+08 -1.4589E+07  1.6948E+06  2.3105E+06    3.2037E+08    2.0318E-01
     154-      1
       1           2.7970E+06 -3.6804E+07 -3.4572E+08 -5.3122E+06  3.2798E+06  5.5068E+05    3.3068E+08    2.0512E-01
     364-      1
       1          -9.3218E+07 -1.0079E+08 -4.2783E+08 -1.4720E+07 -7.4861E+06  5.7400E+06    3.3227E+08    1.8792E-01
     469-      1
       1           4.6583E+07  4.7431E+07 -7.3366E+07  4.4809E+06  6.8883E+06 -2.4079E+07    1.2819E+08    1.7013E-01
     529-      1
       1          -1.2128E+07 -2.3077E+07 -3.4357E+08 -1.6770E+07 -3.1431E+06  4.8987E+06    3.2755E+08    1.9583E-01
     589-      1
       1          -8.1988E+07 -7.2777E+07 -4.1083E+08 -2.0633E+07 -8.4469E+06 -1.6565E+06    3.3578E+08    1.8497E-01
     604-      1
       1          -8.4381E+06  4.6814E+07 -3.1416E+08 -7.7356E+06 -6.1582E+06 -3.0245E+05    3.3720E+08    1.9190E-01



 e l e m e n t   s t r a i n   c a l c u l a t i o n s   f o r   t i m e  s t e p      878   ( at time  2.35305E+01 )

 element  strain       eps-xx      eps-yy      eps-zz      eps-xy      eps-yz      eps-zx                            yield
 num/ipt   state
      49-      1
      1            1.0079E-01  8.5118E-02 -1.8872E-01 -6.1815E-03 -2.2219E-03 -9.3925E-04
      94-      1
      1            9.7130E-02  8.6282E-02 -1.8615E-01 -8.3264E-03 -2.5364E-03 -8.8109E-04
     154-      1
      1            1.0238E-01  8.5236E-02 -1.9014E-01 -3.3136E-03 -1.6819E-03 -1.4972E-07
     364-      1
      1            8.5686E-02  9.0374E-02 -1.7968E-01 -7.1903E-03 -2.7943E-03  9.9993E-05
     469-      1
      1            1.0660E-01  1.1233E-01 -2.1223E-01  5.7365E-03  1.1896E-03 -8.1284E-03
     529-      1
      1            9.1186E-02  8.9043E-02 -1.8271E-01 -9.5185E-03 -2.5525E-03 -1.4638E-04
     589-      1
      1            8.2356E-02  9.3543E-02 -1.7924E-01 -4.8073E-03 -1.9394E-03 -7.7779E-04
     604-      1
      1            8.6030E-02  1.0110E-01 -1.8916E-01 -1.1199E-03  1.8355E-03 -2.1624E-03



 e l e m e n t   s t r e s s   c a l c u l a t i o n s   f o r   t i m e  s t e p      886   ( at time 2.44544E+01 )

 element  materl
     ipt  stress       sig-xx      sig-yy      sig-zz      sig-xy      sig-yz      sig-zx                       yield
           state                                                                                  effsg      function
      49-      1
       1          -3.7014E+07 -6.0364E+07 -3.7116E+08 -1.0842E+07  4.5721E+06  3.4919E+06    3.2380E+08    2.1146E-01
      94-      1
       1          -2.4926E+07 -4.5468E+07 -3.5353E+08 -1.2955E+07  1.6771E+06  2.9920E+06    3.1968E+08    2.1043E-01
     154-      1
       1           2.7233E+06 -3.2373E+07 -3.4710E+08 -5.3592E+06  7.0969E+06  3.7765E+06    3.3408E+08    2.1298E-01
     364-      1
       1          -9.4078E+07 -9.7428E+07 -4.2700E+08 -1.8081E+07 -7.1235E+06  3.6868E+06    3.3303E+08    1.9532E-01
     469-      1
       1           6.0347E+07  6.1531E+07 -6.1916E+07  2.6564E+06  1.0832E+07 -1.9960E+07    1.2908E+08    1.7307E-01
     529-      1
       1          -1.7720E+07 -2.7800E+07 -3.4620E+08 -1.6182E+07 -2.2514E+06  6.6455E+06    3.2500E+08    2.0288E-01
     589-      1
       1          -8.3879E+07 -7.4166E+07 -4.1156E+08 -2.0755E+07 -8.6584E+06 -2.6464E+06    3.3495E+08    1.9251E-01
     604-      1
       1          -7.8596E+06  4.0505E+07 -3.1677E+08 -8.2974E+06 -4.1806E+06  1.4006E+06    3.3611E+08    1.9932E-01



 e l e m e n t   s t r a i n   c a l c u l a t i o n s   f o r   t i m e  s t e p      886   ( at time  2.44544E+01 )

 element  strain       eps-xx      eps-yy      eps-zz      eps-xy      eps-yz      eps-zx                            yield
 num/ipt   state
      49-      1
      1            1.0437E-01  8.8063E-02 -1.9540E-01 -6.4894E-03 -2.0874E-03 -7.5343E-04
      94-      1
      1            1.0078E-01  8.9204E-02 -1.9273E-01 -8.6942E-03 -2.4586E-03 -8.4724E-04
     154-      1
      1            1.0667E-01  8.8430E-02 -1.9765E-01 -3.4935E-03 -1.4668E-03  2.3671E-04
     364-      1
      1            8.9258E-02  9.3879E-02 -1.8677E-01 -7.8434E-03 -2.8147E-03  8.3393E-05
     469-      1
      1            1.1058E-01  1.1646E-01 -2.1932E-01  6.1129E-03  1.4222E-03 -8.1460E-03
     529-      1
      1            9.4575E-02  9.2109E-02 -1.8926E-01 -1.0002E-02 -2.4775E-03 -3.2190E-05
     589-      1
      1            8.5815E-02  9.7299E-02 -1.8652E-01 -5.5066E-03 -2.0758E-03 -8.1528E-04
     604-      1
      1            8.8872E-02  1.0534E-01 -1.9631E-01 -1.4441E-03  1.8606E-03 -1.8908E-03



 e l e m e n t   s t r e s s   c a l c u l a t i o n s   f o r   t i m e  s t e p      894   ( at time 2.53783E+01 )

 element  materl
     ipt  stress       sig-xx      sig-yy      sig-zz      sig-xy      sig-yz      sig-zx                       yield
           state                                                                                  effsg      function
      49-      1
       1          -3.4577E+07 -6.1108E+07 -3.7121E+08 -1.3170E+07  3.4929E+06  2.5982E+06    3.2507E+08    2.1893E-01
      94-      1
       1          -2.2568E+07 -4.2463E+07 -3.5248E+08 -1.5571E+07  1.3200E+06  2.0855E+06    3.2159E+08    2.1775E-01
     154-      1
       1           4.2727E+06 -3.1958E+07 -3.4751E+08 -4.4911E+06  4.6195E+06  2.6116E+06    3.3536E+08    2.2076E-01
     364-      1
       1          -8.9395E+07 -8.9107E+07 -4.2177E+08 -2.0653E+07 -5.6307E+06  3.8208E+06    3.3464E+08    2.0238E-01
     469-      1
       1           6.2147E+07  6.4349E+07 -6.0466E+07  3.1543E+06  1.1064E+07 -1.9665E+07    1.2987E+08    1.7600E-01
     529-      1
       1          -1.7291E+07 -2.5099E+07 -3.4661E+08 -1.8674E+07 -1.1636E+06  4.9299E+06    3.2720E+08    2.1000E-01
     589-      1
       1          -8.1925E+07 -6.9418E+07 -4.0866E+08 -2.1202E+07 -8.7113E+06 -3.2210E+05    3.3552E+08    1.9948E-01
     604-      1
       1           2.2224E+06  5.2676E+07 -3.0557E+08 -1.0036E+07 -5.4464E+06  1.5377E+06    3.3647E+08    2.0633E-01



 e l e m e n t   s t r a i n   c a l c u l a t i o n s   f o r   t i m e  s t e p      894   ( at time  2.53783E+01 )

 element  strain       eps-xx      eps-yy      eps-zz      eps-xy      eps-yz      eps-zx                            yield
 num/ipt   state
      49-      1
      1            1.0826E-01  9.1035E-02 -2.0229E-01 -6.9510E-03 -1.9383E-03 -6.2229E-04
      94-      1
      1            1.0444E-01  9.2229E-02 -1.9942E-01 -9.2274E-03 -2.3682E-03 -7.9753E-04
     154-      1
      1            1.1097E-01  9.1502E-02 -2.0506E-01 -3.6227E-03 -1.3780E-03  3.5812E-04
     364-      1
      1            9.2646E-02  9.7305E-02 -1.9354E-01 -8.5296E-03 -2.8443E-03  1.5215E-04
     469-      1
      1            1.1420E-01  1.2055E-01 -2.2643E-01  6.5103E-03  1.7016E-03 -8.3275E-03
     529-      1
      1            9.8011E-02  9.5319E-02 -1.9593E-01 -1.0622E-02 -2.4041E-03  3.8572E-05
     589-      1
      1            8.8969E-02  1.0085E-01 -1.9321E-01 -6.1683E-03 -2.2472E-03 -7.9028E-04
     604-      1
      1            9.1488E-02  1.0950E-01 -2.0296E-01 -1.8075E-03  1.9068E-03 -1.7492E-03



 e l e m e n t   s t r e s s   c a l c u l a t i o n s   f o r   t i m e  s t e p      902   ( at time 2.63022E+01 )

 element  materl
     ipt  stress       sig-xx      sig-yy      sig-zz      sig-xy      sig-yz      sig-zx                       yield
           state                                                                                  effsg      function
      49-      1
       1          -2.8385E+07 -5.9346E+07 -3.6728E+08 -1.5503E+07  1.7468E+06  1.0462E+06    3.2566E+08    2.2607E-01
      94-      1
       1          -1.8048E+07 -4.1868E+07 -3.5230E+08 -1.7173E+07  7.0237E+04  2.9506E+06    3.2441E+08    2.2503E-01
     154-      1
       1           4.6752E+06 -3.3187E+07 -3.4534E+08 -4.5004E+06  4.3228E+06  6.3173E+05    3.3288E+08    2.2760E-01
     364-      1
       1          -8.9556E+07 -9.8917E+07 -4.2961E+08 -2.1307E+07 -5.3260E+06  3.9314E+06    3.3769E+08    2.0934E-01
     469-      1
       1           6.1396E+07  6.7595E+07 -6.0537E+07  3.7037E+06  9.1844E+06 -1.8743E+07    1.3042E+08    1.7867E-01
     529-      1
       1          -2.1445E+07 -2.7580E+07 -3.5213E+08 -1.8526E+07 -1.1890E+06  6.1841E+06    3.2941E+08    2.1694E-01
     589-      1
       1          -7.2386E+07 -5.3001E+07 -3.9556E+08 -2.7984E+07 -6.2465E+06  2.2783E+06    3.3699E+08    2.0696E-01
     604-      1
       1           2.2777E+06  5.8276E+07 -3.0353E+08 -1.0195E+07 -4.6955E+06  3.7131E+06    3.3793E+08    2.1325E-01



 e l e m e n t   s t r a i n   c a l c u l a t i o n s   f o r   t i m e  s t e p      902   ( at time  2.63022E+01 )

 element  strain       eps-xx      eps-yy      eps-zz      eps-xy      eps-yz      eps-zx                            yield
 num/ipt   state
      49-      1
      1            1.1205E-01  9.3793E-02 -2.0882E-01 -7.4622E-03 -1.8622E-03 -6.5577E-04
      94-      1
      1            1.0820E-01  9.5139E-02 -2.0610E-01 -9.7818E-03 -2.3567E-03 -7.4561E-04
     154-      1
      1            1.1472E-01  9.4116E-02 -2.1145E-01 -3.7531E-03 -1.2581E-03  3.3694E-04
     364-      1
      1            9.6227E-02  1.0037E-01 -2.0030E-01 -9.1887E-03 -2.8518E-03  1.6594E-04
     469-      1
      1            1.1750E-01  1.2456E-01 -2.3314E-01  7.0203E-03  1.7334E-03 -8.1829E-03
     529-      1
      1            1.0133E-01  9.8441E-02 -2.0246E-01 -1.1169E-02 -2.3595E-03  1.5708E-04
     589-      1
      1            9.2241E-02  1.0482E-01 -2.0030E-01 -7.2257E-03 -2.2852E-03 -6.3187E-04
     604-      1
      1            9.3930E-02  1.1368E-01 -2.0958E-01 -2.1532E-03  1.9743E-03 -1.4767E-03



 e l e m e n t   s t r e s s   c a l c u l a t i o n s   f o r   t i m e  s t e p      910   ( at time 2.72262E+01 )

 element  materl
     ipt  stress       sig-xx      sig-yy      sig-zz      sig-xy      sig-yz      sig-zx                       yield
           state                                                                                  effsg      function
      49-      1
       1          -1.6452E+07 -5.3467E+07 -3.6093E+08 -1.7311E+07  1.0911E+06  2.6491E+06    3.2895E+08    2.3345E-01
      94-      1
       1          -1.7429E+07 -4.4217E+07 -3.5547E+08 -1.6937E+07 -2.5428E+05  4.4443E+06    3.2689E+08    2.3244E-01
     154-      1
       1           8.7666E+06 -3.9756E+07 -3.4426E+08 -5.0433E+06  6.2008E+06 -1.3717E+06    3.3174E+08    2.3438E-01
     364-      1
       1          -8.9119E+07 -1.0289E+08 -4.3064E+08 -2.3975E+07 -7.1589E+06  3.4295E+06    3.3769E+08    2.1649E-01
     469-      1
       1           6.2540E+07  6.9189E+07 -5.7750E+07  4.4818E+06  1.1560E+07 -1.9429E+07    1.3003E+08    1.8121E-01
     529-      1
       1          -1.8514E+07 -2.6589E+07 -3.5199E+08 -2.1660E+07 -1.1266E+06  5.8638E+06    3.3181E+08    2.2412E-01
     589-      1
       1          -7.0328E+07 -4.7798E+07 -3.9141E+08 -2.7171E+07 -7.0445E+06  2.6395E+06    3.3648E+08    2.1409E-01
     604-      1
       1           8.0970E+06  6.9546E+07 -2.9460E+08 -1.2119E+07 -2.6742E+06  2.5817E+06    3.3836E+08    2.2022E-01



 e l e m e n t   s t r a i n   c a l c u l a t i o n s   f o r   t i m e  s t e p      910   ( at time  2.72262E+01 )

 element  strain       eps-xx      eps-yy      eps-zz      eps-xy      eps-yz      eps-zx                            yield
 num/ipt   state
      49-      1
      1            1.1614E-01  9.6583E-02 -2.1561E-01 -8.0313E-03 -1.8943E-03 -6.6124E-04
      94-      1
      1            1.1205E-01  9.8065E-02 -2.1293E-01 -1.0304E-02 -2.3818E-03 -6.6912E-04
     154-      1
      1            1.1863E-01  9.6433E-02 -2.1771E-01 -3.9151E-03 -9.9256E-04  1.4149E-04
     364-      1
      1            9.9898E-02  1.0348E-01 -2.0714E-01 -9.9812E-03 -2.9021E-03  2.5087E-04
     469-      1
      1            1.2049E-01  1.2821E-01 -2.3924E-01  7.7064E-03  1.7961E-03 -7.9843E-03
     529-      1
      1            1.0485E-01  1.0164E-01 -2.0920E-01 -1.1892E-02 -2.3141E-03  2.3826E-04
     589-      1
      1            9.5285E-02  1.0856E-01 -2.0707E-01 -8.0629E-03 -2.3559E-03 -4.3639E-04
     604-      1
      1            9.6314E-02  1.1796E-01 -2.1616E-01 -2.6038E-03  2.0563E-03 -1.2215E-03



 e l e m e n t   s t r e s s   c a l c u l a t i o n s   f o r   t i m e  s t e p      918   ( at time 2.81501E+01 )

 element  materl
     ipt  stress       sig-xx      sig-yy      sig-zz      sig-xy      sig-yz      sig-zx                       yield
           state                                                                                  effsg      function
      49-      1
       1          -1.5560E+07 -5.1718E+07 -3.5978E+08 -1.9517E+07  1.8766E+06  3.4390E+06    3.2945E+08    2.4109E-01
      94-      1
       1          -1.8350E+07 -4.2698E+07 -3.5609E+08 -1.8983E+07 -4.1363E+05  5.2502E+06    3.2803E+08    2.4000E-01
     154-      1
       1           3.6556E+06 -4.9149E+07 -3.4754E+08 -6.6227E+06  7.4495E+06 -1.3250E+06    3.2845E+08    2.4125E-01
     364-      1
       1          -9.1783E+07 -1.0654E+08 -4.3540E+08 -2.4874E+07 -8.1683E+06  3.5499E+06    3.3958E+08    2.2360E-01
     469-      1
       1           6.4055E+07  6.8993E+07 -5.8312E+07  4.2988E+06  1.2477E+07 -1.8065E+07    1.3078E+08    1.8377E-01
     529-      1
       1          -2.3571E+07 -3.1294E+07 -3.5839E+08 -2.1589E+07 -1.4950E+06  5.9342E+06    3.3330E+08    2.3116E-01
     589-      1
       1          -6.2101E+07 -3.8031E+07 -3.8217E+08 -3.0193E+07 -7.2419E+06  1.7892E+06    3.3709E+08    2.2123E-01
     604-      1
       1           3.2777E+06  6.9933E+07 -2.9681E+08 -7.5948E+06 -1.9783E+06  1.5164E+06    3.3866E+08    2.2698E-01



 e l e m e n t   s t r a i n   c a l c u l a t i o n s   f o r   t i m e  s t e p      918   ( at time  2.81501E+01 )

 element  strain       eps-xx      eps-yy      eps-zz      eps-xy      eps-yz      eps-zx                            yield
 num/ipt   state
      49-      1
      1            1.2021E-01  9.9487E-02 -2.2261E-01 -8.6916E-03 -1.7970E-03 -6.6972E-04
      94-      1
      1            1.1589E-01  1.0113E-01 -2.1987E-01 -1.0941E-02 -2.4223E-03 -5.5966E-04
     154-      1
      1            1.2249E-01  9.8698E-02 -2.2395E-01 -4.1441E-03 -6.2031E-04 -3.6221E-05
     364-      1
      1            1.0353E-01  1.0660E-01 -2.1398E-01 -1.0759E-02 -3.0012E-03  2.5261E-04
     469-      1
      1            1.2360E-01  1.3175E-01 -2.4553E-01  8.2038E-03  1.9202E-03 -7.9848E-03
     529-      1
      1            1.0825E-01  1.0477E-01 -2.1583E-01 -1.2536E-02 -2.2996E-03  3.2538E-04
     589-      1
      1            9.8341E-02  1.1230E-01 -2.1377E-01 -9.0722E-03 -2.4677E-03 -2.6843E-04
     604-      1
      1            9.8488E-02  1.2213E-01 -2.2257E-01 -2.7538E-03  2.1444E-03 -1.1058E-03



 e l e m e n t   s t r e s s   c a l c u l a t i o n s   f o r   t i m e  s t e p      924   ( at time 2.90740E+01 )

 element  materl
     ipt  stress       sig-xx      sig-yy      sig-zz      sig-xy      sig-yz      sig-zx                       yield
           state                                                                                  effsg      function
      49-      1
       1          -3.1493E+07 -4.7236E+07 -3.7817E+08 -9.9282E+06 -3.7109E+05  1.3968E+06    3.3952E+08    2.4743E-01
      94-      1
       1          -2.9979E+07 -4.4429E+07 -3.7595E+08 -1.0296E+07 -1.5060E+06  2.4489E+06    3.3949E+08    2.4611E-01
     154-      1
       1          -2.7297E+07 -4.4562E+07 -3.7214E+08 -2.3690E+06  3.2981E+06 -1.6417E+06    3.3663E+08    2.4725E-01
     364-      1
       1          -9.7925E+07 -1.0765E+08 -4.4738E+08 -1.3147E+07 -7.8899E+06  2.5543E+06    3.4575E+08    2.2951E-01
     469-      1
       1           3.2603E+07  3.4171E+07 -9.5529E+07  1.9829E+06  8.9679E+06 -1.4971E+07    1.3246E+08    1.8602E-01
     529-      1
       1          -3.2310E+07 -3.8338E+07 -3.7621E+08 -1.2054E+07 -7.5264E+05  3.5602E+06    3.4162E+08    2.3707E-01
     589-      1
       1          -7.0047E+07 -6.3901E+07 -4.1017E+08 -1.3427E+07 -6.1386E+06  2.5660E+06    3.4422E+08    2.2685E-01
     604-      1
       1          -1.4325E+07  1.6126E+07 -3.4476E+08 -4.5038E+06 -3.2712E+06  1.5368E+05    3.4680E+08    2.3280E-01



 e l e m e n t   s t r a i n   c a l c u l a t i o n s   f o r   t i m e  s t e p      924   ( at time  2.90740E+01 )

 element  strain       eps-xx      eps-yy      eps-zz      eps-xy      eps-yz      eps-zx                            yield
 num/ipt   state
      49-      1
      1            1.2327E-01  1.0249E-01 -2.2884E-01 -8.7668E-03 -1.8848E-03 -7.1045E-04
      94-      1
      1            1.1891E-01  1.0395E-01 -2.2590E-01 -1.1037E-02 -2.5604E-03 -5.5079E-04
     154-      1
      1            1.2518E-01  1.0162E-01 -2.2983E-01 -4.1209E-03 -5.9102E-04 -1.3518E-04
     364-      1
      1            1.0650E-01  1.0942E-01 -2.1989E-01 -1.0866E-02 -3.2264E-03  1.6399E-04
     469-      1
      1            1.2626E-01  1.3434E-01 -2.5184E-01  8.2140E-03  2.0337E-03 -7.8970E-03
     529-      1
      1            1.1115E-01  1.0755E-01 -2.2169E-01 -1.2656E-02 -2.3133E-03  2.9428E-04
     589-      1
      1            1.0114E-01  1.1490E-01 -2.1949E-01 -9.0762E-03 -2.5066E-03 -2.7232E-04
     604-      1
      1            1.0118E-01  1.2488E-01 -2.2860E-01 -2.8041E-03  2.1997E-03 -1.1695E-03



 e l e m e n t   s t r e s s   c a l c u l a t i o n s   f o r   t i m e  s t e p      932   ( at time 3.05383E+01 )

 element  materl
     ipt  stress       sig-xx      sig-yy      sig-zz      sig-xy      sig-yz      sig-zx                       yield
           state                                                                                  effsg      function
      49-      1
       1          -2.8091E+07 -5.3420E+07 -3.8288E+08 -1.0938E+07  2.8302E+06  5.0148E+06    3.4350E+08    2.5911E-01
      94-      1
       1          -2.3213E+07 -4.2743E+07 -3.7442E+08 -1.4078E+07  1.5700E+06  4.7299E+06    3.4284E+08    2.5807E-01
     154-      1
       1          -6.0800E+06 -3.7887E+07 -3.6510E+08 -1.8248E+06  8.6761E+06  9.5742E+05    3.4456E+08    2.5833E-01
     364-      1
       1          -1.0402E+08 -1.1513E+08 -4.5554E+08 -1.6650E+07 -6.5764E+06  4.3189E+06    3.4757E+08    2.4076E-01
     469-      1
       1           6.6206E+07  6.5898E+07 -6.5160E+07  9.5465E+05  8.3456E+06 -1.2789E+07    1.3386E+08    1.9068E-01
     529-      1
       1          -3.3454E+07 -3.9802E+07 -3.8012E+08 -1.5293E+07 -3.5279E+05  5.5834E+06    3.4470E+08    2.4865E-01
     589-      1
       1          -6.1273E+07 -4.9847E+07 -3.9971E+08 -2.0360E+07 -6.2416E+06  3.6436E+06    3.4632E+08    2.3817E-01
     604-      1
       1           6.8646E+06  4.1423E+07 -3.2324E+08 -7.9118E+06 -3.4154E+06  1.7201E+06    3.4901E+08    2.4404E-01



 e l e m e n t   s t r a i n   c a l c u l a t i o n s   f o r   t i m e  s t e p      932   ( at time  3.05383E+01 )

 element  strain       eps-xx      eps-yy      eps-zz      eps-xy      eps-yz      eps-zx                            yield
 num/ipt   state
      49-      1
      1            1.2952E-01  1.0731E-01 -2.4004E-01 -9.3116E-03 -1.8047E-03 -6.2626E-04
      94-      1
      1            1.2514E-01  1.0908E-01 -2.3730E-01 -1.1803E-02 -2.4163E-03 -4.4151E-04
     154-      1
      1            1.3139E-01  1.0613E-01 -2.4046E-01 -4.1982E-03 -2.7839E-04 -2.8541E-04
     364-      1
      1            1.1223E-01  1.1452E-01 -2.3091E-01 -1.1729E-02 -3.4234E-03  2.4870E-04
     469-      1
      1            1.3268E-01  1.4102E-01 -2.6341E-01  8.3329E-03  2.3454E-03 -7.8711E-03
     529-      1
      1            1.1687E-01  1.1291E-01 -2.3290E-01 -1.3460E-02 -2.3001E-03  3.9363E-04
     589-      1
      1            1.0638E-01  1.2069E-01 -2.3045E-01 -1.0218E-02 -2.5587E-03 -1.2459E-04
     604-      1
      1            1.0591E-01  1.3129E-01 -2.3950E-01 -3.2870E-03  2.3212E-03 -1.0896E-03



 e l e m e n t   s t r e s s   c a l c u l a t i o n s   f o r   t i m e  s t e p      940   ( at time 3.20027E+01 )

[...]
 num/ipt   state
      49-      1
      1            2.6418E-01  2.3972E-01 -5.0547E-01 -2.3771E-02 -8.6451E-04  3.9140E-03
      94-      1
      1            2.5597E-01  2.4186E-01 -4.9976E-01 -1.9035E-02 -2.5820E-03  3.2493E-04
     154-      1
      1            2.9201E-01  2.4940E-01 -5.3722E-01 -1.6477E-02  5.5617E-03  4.8232E-03
     364-      1
      1            2.7631E-01  2.8247E-01 -5.4859E-01 -1.7331E-02 -6.8989E-03 -1.5263E-02
     469-      1
      1            3.2863E-01  3.5674E-01 -6.2122E-01 -2.5146E-02 -1.3438E-02 -4.6826E-02
     529-      1
      1            2.4434E-01  2.5630E-01 -4.9868E-01 -1.7255E-02  2.9673E-03 -9.8079E-03
     589-      1
      1            2.7058E-01  2.9358E-01 -5.6191E-01 -1.8063E-02 -1.1040E-02 -9.8709E-03
     604-      1
      1            2.6228E-01  2.8700E-01 -5.4442E-01 -2.0499E-02  2.5000E-03 -9.2282E-03



 e l e m e n t   s t r e s s   c a l c u l a t i o n s   f o r   t i m e  s t e p     3127   ( at time 6.42272E+01 )

 element  materl
     ipt  stress       sig-xx      sig-yy      sig-zz      sig-xy      sig-yz      sig-zx                       yield
           state                                                                                  effsg      function
      49-      1
       1          -3.4052E+07  1.9107E+07 -1.2836E+08  1.9847E+07 -3.5878E+06  4.4795E+06    1.3421E+08    4.9879E-01
      94-      1
       1          -2.5356E+07 -1.0408E+07 -9.4612E+07  1.0685E+07  3.3130E+06  1.6462E+06    8.0241E+07    5.3744E-01
     154-      1
       1          -2.1728E+07  1.8470E+07 -7.7086E+07  1.7416E+07 -8.6093E+06 -7.0015E+05    8.9663E+07    4.8855E-01
     364-      1
       1          -4.4206E+07 -3.0157E+07 -8.2365E+07  1.1423E+07  1.4105E+07  2.8298E+05    5.6375E+07    8.0961E-01
     529-      1
       1          -6.0132E+07 -5.1890E+07 -1.0308E+08  1.3080E+07  8.7986E+06  4.5380E+06    5.5441E+07    6.5764E-01
     589-      1
       1          -1.5297E+07 -9.3075E+06 -3.3246E+07  3.6911E+06  5.9989E+06  9.0270E+05    2.4836E+07    6.7997E-01
     604-      1
       1           0.0000E+00  0.0000E+00  0.0000E+00  0.0000E+00  0.0000E+00  0.0000E+00    0.0000E+00    5.6844E-01



 e l e m e n t   s t r a i n   c a l c u l a t i o n s   f o r   t i m e  s t e p     3127   ( at time  6.42272E+01 )

 element  strain       eps-xx      eps-yy      eps-zz      eps-xy      eps-yz      eps-zx                            yield
 num/ipt   state
      49-      1
      1            2.6769E-01  2.5062E-01 -5.1633E-01 -1.7478E-02 -1.3190E-03  1.3117E-03
      94-      1
      1            2.6297E-01  2.5589E-01 -5.1706E-01 -8.4851E-03 -2.9120E-03 -5.5733E-03
     154-      1
      1            2.9030E-01  2.5613E-01 -5.4181E-01 -1.4900E-02  4.3360E-03  4.3124E-03
     364-      1
      1            3.3462E-01  3.3229E-01 -6.3115E-01  5.2038E-03 -1.2544E-02 -1.7024E-02
     529-      1
      1            3.0696E-01  2.8070E-01 -5.5424E-01  1.0367E-03  1.0664E-03 -2.5575E-02
     589-      1
      1            3.0615E-01  3.4205E-01 -6.2258E-01 -1.1660E-02 -1.2673E-02 -1.4191E-02
     604-      1
      1            3.0181E-01  3.1849E-01 -5.9067E-01 -2.7854E-02  3.8566E-02 -2.0243E-02



 e l e m e n t   s t r e s s   c a l c u l a t i o n s   f o r   t i m e  s t e p     3139   ( at time 6.55197E+01 )

 element  materl
     ipt  stress       sig-xx      sig-yy      sig-zz      sig-xy      sig-yz      sig-zx                       yield
           state                                                                                  effsg      function
      49-      1
       1          -8.1346E+07 -4.3208E+07 -2.0301E+08  1.5079E+07 -7.4779E+05  3.1679E+06    1.4700E+08    5.0030E-01
      94-      1
       1          -5.0448E+07 -3.9607E+07 -1.3974E+08  9.0463E+06 -1.2381E+06  7.7774E+05    9.6493E+07    5.3834E-01
     154-      1
       1          -3.0129E+07  4.6533E+06 -1.0390E+08  1.0378E+07 -5.5607E+06  5.9124E+05    9.8154E+07    4.8941E-01
     364-      1
       1          -6.7208E+07 -5.6420E+07 -1.1317E+08  9.0586E+06  8.2823E+06 -1.6290E+06    5.6429E+07    8.1016E-01
     529-      1
       1          -7.5186E+07 -6.8793E+07 -1.2409E+08  1.0176E+07  2.8007E+06  3.9591E+05    5.5498E+07    6.5820E-01
     589-      1
       1          -4.6335E+07 -4.7505E+07 -7.2820E+07  2.3871E+06  2.4307E+06 -8.8192E+05    2.6627E+07    6.7997E-01
     604-      1
       1           0.0000E+00  0.0000E+00  0.0000E+00  0.0000E+00  0.0000E+00  0.0000E+00    0.0000E+00    5.6844E-01



 e l e m e n t   s t r a i n   c a l c u l a t i o n s   f o r   t i m e  s t e p     3139   ( at time  6.55197E+01 )

 element  strain       eps-xx      eps-yy      eps-zz      eps-xy      eps-yz      eps-zx                            yield
 num/ipt   state
      49-      1
      1            2.6897E-01  2.5269E-01 -5.2128E-01 -1.7107E-02 -1.7603E-03  1.1507E-03
      94-      1
      1            2.6423E-01  2.5757E-01 -5.2159E-01 -8.0997E-03 -3.3857E-03 -5.8689E-03
     154-      1
      1            2.9129E-01  2.5835E-01 -5.4639E-01 -1.4740E-02  3.8092E-03  4.1876E-03
     364-      1
      1            3.3628E-01  3.3410E-01 -6.3654E-01  6.0131E-03 -1.2252E-02 -1.6520E-02
     529-      1
      1            3.0833E-01  2.8220E-01 -5.5901E-01  1.8558E-03  1.0138E-03 -2.5831E-02
     589-      1
      1            3.0780E-01  3.4314E-01 -6.2725E-01 -1.1015E-02 -1.2607E-02 -1.4313E-02
     604-      1
      1            3.0395E-01  3.1932E-01 -5.9571E-01 -2.7462E-02  3.9822E-02 -2.0751E-02



 e l e m e n t   s t r e s s   c a l c u l a t i o n s   f o r   t i m e  s t e p     3143   ( at time 6.67756E+01 )

 element  materl
     ipt  stress       sig-xx      sig-yy      sig-zz      sig-xy      sig-yz      sig-zx                       yield
           state                                                                                  effsg      function
      49-      1
       1          -1.2922E+08 -9.9372E+07 -2.6188E+08  1.2714E+07 -4.4957E+05  2.7671E+06    1.5152E+08    5.0224E-01
      94-      1
       1          -8.6884E+07 -7.9494E+07 -1.8021E+08  7.5724E+06 -4.1458E+06  2.9995E+05    9.8378E+07    5.3970E-01
     154-      1
       1          -4.0149E+07 -8.8370E+06 -1.2090E+08  5.7629E+06 -3.1406E+06  1.8835E+06    1.0084E+08    4.9067E-01
     364-      1
       1          -9.6029E+07 -8.7057E+07 -1.4503E+08  7.4607E+06  4.7851E+06 -3.3719E+06    5.6490E+07    8.1078E-01
     529-      1
       1          -1.0391E+08 -9.8324E+07 -1.5422E+08  8.9118E+06  5.7283E+05 -1.3431E+06    5.5567E+07    6.5887E-01
     589-      1
       1          -7.0039E+07 -7.3710E+07 -1.2473E+08  5.2715E+06  5.2575E+06 -7.6791E+05    5.4519E+07    6.8016E-01
     604-      1
       1           0.0000E+00  0.0000E+00  0.0000E+00  0.0000E+00  0.0000E+00  0.0000E+00    0.0000E+00    5.6844E-01



 e l e m e n t   s t r a i n   c a l c u l a t i o n s   f o r   t i m e  s t e p     3143   ( at time  6.67756E+01 )

 element  strain       eps-xx      eps-yy      eps-zz      eps-xy      eps-yz      eps-zx                            yield
 num/ipt   state
      49-      1
      1            2.7062E-01  2.5531E-01 -5.2699E-01 -1.6611E-02 -2.0155E-03  1.0140E-03
      94-      1
      1            2.6616E-01  2.5990E-01 -5.2694E-01 -7.6728E-03 -3.8663E-03 -6.1744E-03
     154-      1
      1            2.9263E-01  2.6138E-01 -5.5187E-01 -1.4586E-02  3.4566E-03  4.1788E-03
     364-      1
      1            3.3812E-01  3.3605E-01 -6.4259E-01  6.9039E-03 -1.2143E-02 -1.6043E-02
     529-      1
      1            3.0977E-01  2.8403E-01 -5.6447E-01  2.7597E-03  8.0963E-04 -2.6095E-02
     589-      1
      1            3.0979E-01  3.4417E-01 -6.3208E-01 -1.0305E-02 -1.2659E-02 -1.4269E-02
     604-      1
      1            3.0641E-01  3.2017E-01 -6.0071E-01 -2.6966E-02  4.0975E-02 -2.1186E-02



 e l e m e n t   s t r e s s   c a l c u l a t i o n s   f o r   t i m e  s t e p     3158   ( at time 6.87662E+01 )

 element  materl
     ipt  stress       sig-xx      sig-yy      sig-zz      sig-xy      sig-yz      sig-zx                       yield
           state                                                                                  effsg      function
      49-      1
       1           1.4208E+08  1.5025E+08 -9.3720E+07  2.6096E+07 -2.1584E+06  1.3915E+07    2.4542E+08    5.3245E-01
      94-      1
       1          -5.7294E+07 -2.3847E+07 -1.1467E+08  1.0808E+07 -4.9314E+06  6.1162E+06    8.2858E+07    5.5533E-01
     154-      1
       1          -1.0870E+08 -7.0107E+07 -1.4226E+08  5.7130E+06  1.3613E+06  7.5872E+06    6.4711E+07    5.0239E-01
     604-      1
       1           0.0000E+00  0.0000E+00  0.0000E+00  0.0000E+00  0.0000E+00  0.0000E+00    0.0000E+00    5.6844E-01



 e l e m e n t   s t r a i n   c a l c u l a t i o n s   f o r   t i m e  s t e p     3158   ( at time  6.87662E+01 )

 element  strain       eps-xx      eps-yy      eps-zz      eps-xy      eps-yz      eps-zx                            yield
 num/ipt   state
      49-      1
      1            2.9248E-01  2.8250E-01 -5.6738E-01 -1.0131E-02  6.9601E-03  4.4527E-04
      94-      1
      1            2.7762E-01  2.9985E-01 -5.7192E-01  1.7872E-03 -5.9409E-03 -1.4542E-02
     154-      1
      1            3.0248E-01  2.8084E-01 -5.8193E-01  8.2148E-04 -4.6450E-03  5.2983E-03
     604-      1
      1            3.5078E-01  3.3390E-01 -5.8381E-01 -3.0898E-02  3.4196E-02 -2.5130E-02



 e l e m e n t   s t r e s s   c a l c u l a t i o n s   f o r   t i m e  s t e p     3164   ( at time 7.07567E+01 )

 element  materl
     ipt  stress       sig-xx      sig-yy      sig-zz      sig-xy      sig-yz      sig-zx                       yield
           state                                                                                  effsg      function
      49-      1
       1          -1.8476E+07 -1.6867E+07 -1.1489E+08  6.8709E+06 -1.8984E+07  5.9805E+06    1.0384E+08    5.3516E-01
      94-      1
       1           3.8888E+07  3.1006E+07 -1.1127E+08  1.8364E+06  6.2493E+06  3.8499E+06    1.4696E+08    5.6023E-01
     154-      1
       1           2.4298E+07  6.5366E+07 -1.1404E+07 -8.8231E+06 -7.2749E+05 -2.6833E+07    8.2599E+07    5.0317E-01
     604-      1
       1           0.0000E+00  0.0000E+00  0.0000E+00  0.0000E+00  0.0000E+00  0.0000E+00    0.0000E+00    5.6844E-01



 e l e m e n t   s t r a i n   c a l c u l a t i o n s   f o r   t i m e  s t e p     3164   ( at time  7.07567E+01 )

 element  strain       eps-xx      eps-yy      eps-zz      eps-xy      eps-yz      eps-zx                            yield
 num/ipt   state
      49-      1
      1            2.9535E-01  2.8757E-01 -5.8320E-01 -9.0781E-03  4.5271E-03  1.5336E-04
      94-      1
      1            2.8661E-01  3.0800E-01 -5.8713E-01  2.5348E-03 -3.5942E-03 -1.4024E-02
     154-      1
      1            3.0593E-01  2.8603E-01 -5.9042E-01 -1.1326E-04 -5.4723E-03 -1.5425E-05
     604-      1
      1            3.5696E-01  3.3672E-01 -6.0617E-01 -2.9272E-02  3.7044E-02 -2.4525E-02



 e l e m e n t   s t r e s s   c a l c u l a t i o n s   f o r   t i m e  s t e p     3168   ( at time 7.39115E+01 )

 element  materl
     ipt  stress       sig-xx      sig-yy      sig-zz      sig-xy      sig-yz      sig-zx                       yield
           state                                                                                  effsg      function
      49-      1
       1          -2.1862E+08 -1.9030E+08 -3.5377E+08  9.7364E+06 -1.7827E+07  3.6964E+06    1.5548E+08    5.3791E-01
      94-      1
       1          -2.2420E+08 -2.2453E+08 -3.2149E+08  5.3141E+06 -1.1327E+07 -1.1587E+06    9.9539E+07    5.6408E-01
     154-      1
       1          -6.9539E+07 -6.9539E+07 -6.9539E+07  0.0000E+00  0.0000E+00  0.0000E+00    0.0000E+00    5.0317E-01
     604-      1
       1          -6.1589E+07 -6.1589E+07 -6.1589E+07  0.0000E+00  0.0000E+00  0.0000E+00    0.0000E+00    5.6844E-01



 e l e m e n t   s t r a i n   c a l c u l a t i o n s   f o r   t i m e  s t e p     3168   ( at time  7.39115E+01 )

 element  strain       eps-xx      eps-yy      eps-zz      eps-xy      eps-yz      eps-zx                            yield
 num/ipt   state
      49-      1
      1            2.9696E-01  2.9247E-01 -5.9404E-01 -8.1087E-03  3.6263E-03 -1.2003E-03
      94-      1
      1            2.9062E-01  3.1332E-01 -6.0358E-01  3.9929E-03 -2.8631E-03 -1.7045E-02
     154-      1
      1            3.0760E-01  2.9106E-01 -6.0097E-01  2.7998E-04 -6.6667E-03  2.0580E-04
     604-      1
      1            3.6227E-01  3.3982E-01 -6.2729E-01 -2.7689E-02  3.9816E-02 -2.4203E-02



 e l e m e n t   s t r e s s   c a l c u l a t i o n s   f o r   t i m e  s t e p     3183   ( at time 7.89115E+01 )

 element  materl
     ipt  stress       sig-xx      sig-yy      sig-zz      sig-xy      sig-yz      sig-zx                       yield
           state                                                                                  effsg      function
      49-      1
       1           1.3733E+08  1.1230E+08 -9.4026E+07 -1.7470E+07  5.4778E+06 -1.1711E+05    2.2219E+08    5.7294E-01
      94-      1
       1           3.5947E+07  8.2170E+07  1.3170E+07 -8.4896E+06  5.0332E+06  6.0770E+06    6.4119E+07    5.8313E-01
     154-      1
       1          -6.8694E+06  7.8173E+06 -4.3478E+07 -1.0107E+07 -1.1293E+06  3.5635E+06    4.9416E+07    5.1060E-01



 e l e m e n t   s t r a i n   c a l c u l a t i o n s   f o r   t i m e  s t e p     3183   ( at time  7.89115E+01 )

 element  strain       eps-xx      eps-yy      eps-zz      eps-xy      eps-yz      eps-zx                            yield
 num/ipt   state
      49-      1
      1            3.3769E-01  3.2740E-01 -6.2145E-01 -9.9134E-03  3.4740E-03  8.5807E-03
      94-      1
      1            3.2740E-01  3.4462E-01 -6.0323E-01  3.0105E-03 -1.4065E-02 -3.9509E-03
     154-      1
      1            3.4721E-01  3.2449E-01 -6.4667E-01 -5.3547E-03 -1.3803E-02  9.7907E-03



 e l e m e n t   s t r e s s   c a l c u l a t i o n s   f o r   t i m e  s t e p     3189   ( at time 8.39115E+01 )

 element  materl
     ipt  stress       sig-xx      sig-yy      sig-zz      sig-xy      sig-yz      sig-zx                       yield
           state                                                                                  effsg      function
      49-      1
       1           5.5654E+06  1.7603E+07 -3.7401E+07  5.8920E+06 -1.0119E+07 -1.0452E+06    5.4063E+07    5.7612E-01
      94-      1
       1          -2.7114E+07 -2.7114E+07 -2.7114E+07  0.0000E+00  0.0000E+00  0.0000E+00    0.0000E+00    5.8313E-01
     154-      1
       1          -2.1588E+07 -2.1588E+07 -2.1588E+07  0.0000E+00  0.0000E+00  0.0000E+00    0.0000E+00    5.1060E-01



 e l e m e n t   s t r a i n   c a l c u l a t i o n s   f o r   t i m e  s t e p     3189   ( at time  8.39115E+01 )

 element  strain       eps-xx      eps-yy      eps-zz      eps-xy      eps-yz      eps-zx                            yield
 num/ipt   state
      49-      1
      1            3.4197E-01  3.4166E-01 -6.5833E-01 -5.7598E-03 -4.8743E-04  5.0109E-03
      94-      1
      1            3.3631E-01  3.6046E-01 -6.5942E-01  8.3196E-03 -1.4740E-02 -1.7115E-02
     154-      1
      1            3.5188E-01  3.4129E-01 -6.7980E-01 -3.5355E-03 -1.4237E-02  8.4146E-03



 e l e m e n t   s t r e s s   c a l c u l a t i o n s   f o r   t i m e  s t e p     3204   ( at time 8.89115E+01 )

 element  materl
     ipt  stress       sig-xx      sig-yy      sig-zz      sig-xy      sig-yz      sig-zx                       yield
           state                                                                                  effsg      function
      49-      1
       1          -1.9600E+07 -9.5513E+06 -6.7498E+07 -7.8301E+05 -7.6141E+06 -2.4139E+06    5.5405E+07    5.8877E-01
     154-      1
       1           0.0000E+00  0.0000E+00  0.0000E+00  0.0000E+00  0.0000E+00  0.0000E+00    0.0000E+00    5.1060E-01



 e l e m e n t   s t r a i n   c a l c u l a t i o n s   f o r   t i m e  s t e p     3204   ( at time  8.89115E+01 )

 element  strain       eps-xx      eps-yy      eps-zz      eps-xy      eps-yz      eps-zx                            yield
 num/ipt   state
      49-      1
      1            3.7563E-01  4.0275E-01 -7.7133E-01 -3.6351E-03  1.4918E-02 -8.7179E-03
     154-      1
      1            3.7207E-01  3.9665E-01 -7.3717E-01 -4.3902E-03  1.1490E-02  4.3216E-03



 e l e m e n t   s t r e s s   c a l c u l a t i o n s   f o r   t i m e  s t e p     3210   ( at time 9.39115E+01 )

 element  materl
     ipt  stress       sig-xx      sig-yy      sig-zz      sig-xy      sig-yz      sig-zx                       yield
           state                                                                                  effsg      function
      49-      1
       1          -1.1350E+08 -9.9181E+07 -1.9769E+08  1.2643E+07 -2.2290E+06 -1.6274E+07    9.8930E+07    5.9675E-01
     154-      1
       1          -2.8855E+07 -2.8855E+07 -2.8855E+07  0.0000E+00  0.0000E+00  0.0000E+00    0.0000E+00    5.1060E-01



 e l e m e n t   s t r a i n   c a l c u l a t i o n s   f o r   t i m e  s t e p     3210   ( at time  9.39115E+01 )

 element  strain       eps-xx      eps-yy      eps-zz      eps-xy      eps-yz      eps-zx                            yield
 num/ipt   state
      49-      1
      1            3.8662E-01  4.1702E-01 -8.0518E-01  1.6234E-03  6.1975E-03 -1.0125E-02
     154-      1
      1            3.7325E-01  4.0858E-01 -7.6924E-01 -4.2568E-03  2.2466E-03 -2.2063E-04



 e l e m e n t   s t r e s s   c a l c u l a t i o n s   f o r   t i m e  s t e p     3225   ( at time 9.89115E+01 )

 element  materl
     ipt  stress       sig-xx      sig-yy      sig-zz      sig-xy      sig-yz      sig-zx                       yield
           state                                                                                  effsg      function
      49-      1
       1           1.4240E+07  1.5792E+07 -3.0031E+07  2.7662E+07 -1.4255E+07 -8.8701E+06    7.1919E+07    6.1085E-01
     154-      1
       1          -1.8680E+08 -1.8680E+08 -1.8680E+08  0.0000E+00  0.0000E+00  0.0000E+00    0.0000E+00    5.1060E-01



 e l e m e n t   s t r a i n   c a l c u l a t i o n s   f o r   t i m e  s t e p     3225   ( at time  9.89115E+01 )

 element  strain       eps-xx      eps-yy      eps-zz      eps-xy      eps-yz      eps-zx                            yield
 num/ipt   state
      49-      1
      1            4.2406E-01  4.5993E-01 -8.4530E-01  1.2608E-02 -3.3435E-02  3.4623E-03
     154-      1
      1            3.9098E-01  4.6471E-01 -8.4854E-01 -1.8002E-03 -1.1784E-02 -1.6824E-02



 e l e m e n t   s t r e s s   c a l c u l a t i o n s   f o r   t i m e  s t e p     3229   ( at time 1.00000E+02 )

 element  materl
     ipt  stress       sig-xx      sig-yy      sig-zz      sig-xy      sig-yz      sig-zx                       yield
           state                                                                                  effsg      function
      49-      1
       1           0.0000E+00  0.0000E+00  0.0000E+00  0.0000E+00  0.0000E+00  0.0000E+00    0.0000E+00    6.1085E-01
     154-      1
       1          -1.7297E+08 -1.4593E+08 -2.1707E+08  9.1626E+06 -5.5229E+04  5.1478E+06    6.4805E+07    5.1060E-01



 e l e m e n t   s t r a i n   c a l c u l a t i o n s   f o r   t i m e  s t e p     3229   ( at time  1.00000E+02 )

 element  strain       eps-xx      eps-yy      eps-zz      eps-xy      eps-yz      eps-zx                            yield
 num/ipt   state
      49-      1
      1            4.2522E-01  4.6288E-01 -8.5282E-01  1.3063E-02 -3.2976E-02  1.9380E-03
     154-      1
      1            3.9129E-01  4.6698E-01 -8.5325E-01 -1.4141E-03 -1.1766E-02 -1.6635E-02
