 LS-DYNA keyword deck by LS-PrePost                                      
                    ls-dyna smp d R14 R14.1.1s_1_ef50e1 date 06/16/2024



 n o d a l  s t r e s s  c a l c u l a t i o n s   f o r   t i m e  s t e p        1   ( at time 0.00000E+00 )

 node (global)
          stress       sig-xx      sig-yy      sig-zz      sig-xy      sig-yz      sig-zx       plastic
                                                                                                 strain 
     269-
 mid.  surface    -1.7159E-04 -1.7159E-04 -1.7159E-04  0.0000E+00  0.0000E+00  0.0000E+00  0.0000E+00
     270-
 mid.  surface    -1.2992E-04 -1.2992E-04 -1.2992E-04  0.0000E+00  0.0000E+00  0.0000E+00  0.0000E+00
     284-
 mid.  surface    -1.1843E-04 -1.1843E-04 -1.1843E-04  0.0000E+00  0.0000E+00  0.0000E+00  0.0000E+00
     285-
 mid.  surface    -1.5616E-05 -1.5616E-05 -1.5616E-05  0.0000E+00  0.0000E+00  0.0000E+00  0.0000E+00
     286-
 mid.  surface     5.0664E-05  5.0664E-05  5.0664E-05  0.0000E+00  0.0000E+00  0.0000E+00  0.0000E+00
     287-
 mid.  surface     8.1181E-06  8.1181E-06  8.1181E-06  0.0000E+00  0.0000E+00  0.0000E+00  0.0000E+00
     288-
 mid.  surface    -7.8082E-06 -7.8082E-06 -7.8082E-06  0.0000E+00  0.0000E+00  0.0000E+00  0.0000E+00
     289-
 mid.  surface     7.7465E-05  7.7465E-05  7.7465E-05  0.0000E+00  0.0000E+00  0.0000E+00  0.0000E+00
     290-
 mid.  surface     1.0312E-05  1.0312E-05  1.0312E-05  0.0000E+00  0.0000E+00  0.0000E+00  0.0000E+00
     291-
 mid.  surface     3.6803E-05  3.6803E-05  3.6803E-05  0.0000E+00  0.0000E+00  0.0000E+00  0.0000E+00
     292-
 mid.  surface     3.5971E-05  3.5971E-05  3.5971E-05  0.0000E+00  0.0000E+00  0.0000E+00  0.0000E+00
     311-
 mid.  surface     7.7465E-05  7.7465E-05  7.7465E-05  0.0000E+00  0.0000E+00  0.0000E+00  0.0000E+00
     314-
 mid.  surface     8.5273E-05  8.5273E-05  8.5273E-05  0.0000E+00  0.0000E+00  0.0000E+00  0.0000E+00
     317-
 mid.  surface     2.6801E-05  2.6801E-05  2.6801E-05  0.0000E+00  0.0000E+00  0.0000E+00  0.0000E+00
     320-
 mid.  surface    -1.6451E-05 -1.6451E-05 -1.6451E-05  0.0000E+00  0.0000E+00  0.0000E+00  0.0000E+00
     327-
 mid.  surface    -1.2905E-04 -1.2905E-04 -1.2905E-04  0.0000E+00  0.0000E+00  0.0000E+00  0.0000E+00
     328-
 mid.  surface    -9.4750E-06 -9.4750E-06 -9.4750E-06  0.0000E+00  0.0000E+00  0.0000E+00  0.0000E+00
     329-
 mid.  surface     6.1937E-05  6.1937E-05  6.1937E-05  0.0000E+00  0.0000E+00  0.0000E+00  0.0000E+00
     330-
 mid.  surface     4.7638E-05  4.7638E-05  4.7638E-05  0.0000E+00  0.0000E+00  0.0000E+00  0.0000E+00
     331-
 mid.  surface     2.6801E-05  2.6801E-05  2.6801E-05  0.0000E+00  0.0000E+00  0.0000E+00  0.0000E+00
     332-
 mid.  surface     2.9827E-05  2.9827E-05  2.9827E-05  0.0000E+00  0.0000E+00  0.0000E+00  0.0000E+00
     333-
 mid.  surface    -2.1580E-05 -2.1580E-05 -2.1580E-05  0.0000E+00  0.0000E+00  0.0000E+00  0.0000E+00
     510-
 mid.  surface     1.8158E-05  1.8158E-05  1.8158E-05  0.0000E+00  0.0000E+00  0.0000E+00  0.0000E+00
     511-
 mid.  surface    -5.9216E-05 -5.9216E-05 -5.9216E-05  0.0000E+00  0.0000E+00  0.0000E+00  0.0000E+00
     647-
 mid.  surface     6.1937E-05  6.1937E-05  6.1937E-05  0.0000E+00  0.0000E+00  0.0000E+00  0.0000E+00
     648-
 mid.  surface    -3.5441E-05 -3.5441E-05 -3.5441E-05  0.0000E+00  0.0000E+00  0.0000E+00  0.0000E+00
     705-
 mid.  surface    -5.2982E-05 -5.2982E-05 -5.2982E-05  0.0000E+00  0.0000E+00  0.0000E+00  0.0000E+00
     706-
 mid.  surface    -1.6011E-04 -1.6011E-04 -1.6011E-04  0.0000E+00  0.0000E+00  0.0000E+00  0.0000E+00
     841-
 mid.  surface     3.1186E-05  3.1186E-05  3.1186E-05  0.0000E+00  0.0000E+00  0.0000E+00  0.0000E+00
     990-
 mid.  surface    -9.4657E-05 -9.4657E-05 -9.4657E-05  0.0000E+00  0.0000E+00  0.0000E+00  0.0000E+00
    1035-
 mid.  surface     2.8995E-05  2.8995E-05  2.8995E-05  0.0000E+00  0.0000E+00  0.0000E+00  0.0000E+00
    1036-
 mid.  surface     3.1186E-05  3.1186E-05  3.1186E-05  0.0000E+00  0.0000E+00  0.0000E+00  0.0000E+00
    1140-
 mid.  surface    -9.2552E-05 -9.2552E-05 -9.2552E-05  0.0000E+00  0.0000E+00  0.0000E+00  0.0000E+00
    1141-
 mid.  surface    -1.2992E-04 -1.2992E-04 -1.2992E-04  0.0000E+00  0.0000E+00  0.0000E+00  0.0000E+00
    1142-
 mid.  surface     2.2417E-05  2.2417E-05  2.2417E-05  0.0000E+00  0.0000E+00  0.0000E+00  0.0000E+00
    1230-
 mid.  surface    -2.7167E-06 -2.7167E-06 -2.7167E-06  0.0000E+00  0.0000E+00  0.0000E+00  0.0000E+00



 n o d a l  s t r a i n  c a l c u l a t i o n s   f o r   t i m e  s t e p        1   ( at time 0.00000E+00 )

 node (global)
          strain       eps-xx      eps-yy      eps-zz      eps-xy      eps-yz      eps-zx       
     269-
 mid.  surface     0.0000E+00  0.0000E+00  0.0000E+00  0.0000E+00  0.0000E+00  0.0000E+00
     270-
 mid.  surface     0.0000E+00  0.0000E+00  0.0000E+00  0.0000E+00  0.0000E+00  0.0000E+00
     284-
 mid.  surface     0.0000E+00  0.0000E+00  0.0000E+00  0.0000E+00  0.0000E+00  0.0000E+00
     285-
 mid.  surface     0.0000E+00  0.0000E+00  0.0000E+00  0.0000E+00  0.0000E+00  0.0000E+00
     286-
 mid.  surface     0.0000E+00  0.0000E+00  0.0000E+00  0.0000E+00  0.0000E+00  0.0000E+00
     287-
 mid.  surface     0.0000E+00  0.0000E+00  0.0000E+00  0.0000E+00  0.0000E+00  0.0000E+00
     288-
 mid.  surface     0.0000E+00  0.0000E+00  0.0000E+00  0.0000E+00  0.0000E+00  0.0000E+00
     289-
 mid.  surface     0.0000E+00  0.0000E+00  0.0000E+00  0.0000E+00  0.0000E+00  0.0000E+00
     290-
 mid.  surface     0.0000E+00  0.0000E+00  0.0000E+00  0.0000E+00  0.0000E+00  0.0000E+00
     291-
 mid.  surface     0.0000E+00  0.0000E+00  0.0000E+00  0.0000E+00  0.0000E+00  0.0000E+00
     292-
 mid.  surface     0.0000E+00  0.0000E+00  0.0000E+00  0.0000E+00  0.0000E+00  0.0000E+00
     311-
 mid.  surface     0.0000E+00  0.0000E+00  0.0000E+00  0.0000E+00  0.0000E+00  0.0000E+00
     314-
 mid.  surface     0.0000E+00  0.0000E+00  0.0000E+00  0.0000E+00  0.0000E+00  0.0000E+00
     317-
 mid.  surface     0.0000E+00  0.0000E+00  0.0000E+00  0.0000E+00  0.0000E+00  0.0000E+00
     320-
 mid.  surface     0.0000E+00  0.0000E+00  0.0000E+00  0.0000E+00  0.0000E+00  0.0000E+00
     327-
 mid.  surface     0.0000E+00  0.0000E+00  0.0000E+00  0.0000E+00  0.0000E+00  0.0000E+00
     328-
 mid.  surface     0.0000E+00  0.0000E+00  0.0000E+00  0.0000E+00  0.0000E+00  0.0000E+00
     329-
 mid.  surface     0.0000E+00  0.0000E+00  0.0000E+00  0.0000E+00  0.0000E+00  0.0000E+00
     330-
 mid.  surface     0.0000E+00  0.0000E+00  0.0000E+00  0.0000E+00  0.0000E+00  0.0000E+00
     331-
 mid.  surface     0.0000E+00  0.0000E+00  0.0000E+00  0.0000E+00  0.0000E+00  0.0000E+00
     332-
 mid.  surface     0.0000E+00  0.0000E+00  0.0000E+00  0.0000E+00  0.0000E+00  0.0000E+00
     333-
 mid.  surface     0.0000E+00  0.0000E+00  0.0000E+00  0.0000E+00  0.0000E+00  0.0000E+00
     510-
 mid.  surface     0.0000E+00  0.0000E+00  0.0000E+00  0.0000E+00  0.0000E+00  0.0000E+00
     511-
 mid.  surface     0.0000E+00  0.0000E+00  0.0000E+00  0.0000E+00  0.0000E+00  0.0000E+00
     647-
 mid.  surface     0.0000E+00  0.0000E+00  0.0000E+00  0.0000E+00  0.0000E+00  0.0000E+00
     648-
 mid.  surface     0.0000E+00  0.0000E+00  0.0000E+00  0.0000E+00  0.0000E+00  0.0000E+00
     705-
 mid.  surface     0.0000E+00  0.0000E+00  0.0000E+00  0.0000E+00  0.0000E+00  0.0000E+00
     706-
 mid.  surface     0.0000E+00  0.0000E+00  0.0000E+00  0.0000E+00  0.0000E+00  0.0000E+00
     841-
 mid.  surface     0.0000E+00  0.0000E+00  0.0000E+00  0.0000E+00  0.0000E+00  0.0000E+00
     990-
 mid.  surface     0.0000E+00  0.0000E+00  0.0000E+00  0.0000E+00  0.0000E+00  0.0000E+00
    1035-
 mid.  surface     0.0000E+00  0.0000E+00  0.0000E+00  0.0000E+00  0.0000E+00  0.0000E+00
    1036-
 mid.  surface     0.0000E+00  0.0000E+00  0.0000E+00  0.0000E+00  0.0000E+00  0.0000E+00
    1140-
 mid.  surface     0.0000E+00  0.0000E+00  0.0000E+00  0.0000E+00  0.0000E+00  0.0000E+00
    1141-
 mid.  surface     0.0000E+00  0.0000E+00  0.0000E+00  0.0000E+00  0.0000E+00  0.0000E+00
    1142-
 mid.  surface     0.0000E+00  0.0000E+00  0.0000E+00  0.0000E+00  0.0000E+00  0.0000E+00
    1230-
 mid.  surface     0.0000E+00  0.0000E+00  0.0000E+00  0.0000E+00  0.0000E+00  0.0000E+00



 n o d a l  s t r e s s  c a l c u l a t i o n s   f o r   t i m e  s t e p       18   ( at time 1.29245E+00 )

 node (global)
          stress       sig-xx      sig-yy      sig-zz      sig-xy      sig-yz      sig-zx       plastic
                                                                                                 strain 
     269-
 mid.  surface    -8.1745E+06 -3.9839E+07 -2.7514E+08  1.8072E+07 -2.5760E+06 -2.1368E+07  6.2711E-05
     270-
 mid.  surface    -3.0621E+07 -3.4890E+07 -2.8384E+08  1.3621E+07 -9.6010E+05 -1.4351E+07  2.9806E-04
     284-
 mid.  surface    -2.4076E+07  1.8144E+07 -2.5421E+08 -4.5396E+06 -1.3522E+07  7.5822E+05  3.1245E-05
     285-
 mid.  surface    -4.6047E+07 -2.3568E+07 -2.8922E+08 -8.8743E+06 -1.3992E+07  1.6192E+06  2.6152E-04
     286-
 mid.  surface    -5.0684E+07 -2.9978E+07 -2.9376E+08  7.5481E+04  1.3533E+06  9.0127E+06  2.7910E-04
     287-
 mid.  surface    -4.5056E+07 -2.3004E+07 -2.8859E+08  4.1996E+06 -1.0858E+07  1.1536E+07  2.6697E-04
     288-
 mid.  surface    -3.9902E+07 -1.4650E+07 -2.8256E+08  7.4362E+06 -2.2487E+07  1.2398E+07  2.6266E-04
     289-
 mid.  surface    -3.7161E+07 -2.1673E+07 -2.8641E+08  1.3237E+07 -3.6136E+07  8.3545E+06  2.1909E-04
     290-
 mid.  surface    -3.6412E+07 -2.6612E+07 -2.8887E+08  1.7574E+07 -4.3795E+07  5.7977E+05  1.5853E-04
     291-
 mid.  surface    -2.3181E+07 -3.1534E+07 -2.8313E+08  1.6319E+07 -4.0062E+07 -9.8392E+06  1.0778E-04
     292-
 mid.  surface    -1.2496E+07 -3.7268E+07 -2.7728E+08  9.5743E+06 -2.4673E+07 -1.9093E+07  7.1115E-05
     311-
 mid.  surface    -1.2132E+07 -1.8811E+07 -2.5554E+08  1.7828E+07 -9.5261E+06 -1.2559E+07  1.5011E-04
     314-
 mid.  surface    -1.8919E+07 -2.4005E+06 -2.5404E+08  1.9952E+07 -7.3354E+06 -9.2126E+06  1.0022E-04
     317-
 mid.  surface    -2.3386E+07  6.5252E+06 -2.5573E+08  1.4518E+07 -4.1036E+06 -5.2726E+06  6.5773E-05
     320-
 mid.  surface    -2.8308E+07  9.4777E+06 -2.5801E+08  6.3664E+06  3.1553E+06 -3.7882E+05  5.8165E-05
     327-
 mid.  surface    -1.2947E+07 -2.2171E+07 -2.5598E+08  1.0654E+07 -9.0071E+06 -1.3258E+07  2.0251E-04
     328-
 mid.  surface    -2.0082E+07 -2.9658E+07 -2.6636E+08  5.8218E+06 -6.9362E+06 -1.3539E+07  2.4809E-04
     329-
 mid.  surface    -2.7561E+07 -3.3733E+07 -2.7815E+08  2.2002E+06 -3.7580E+06 -1.4733E+07  2.7946E-04
     330-
 mid.  surface    -2.6663E+07  2.6861E+06 -2.5946E+08  1.4375E+07 -8.1374E+06 -2.6848E+05  5.7904E-05
     331-
 mid.  surface    -4.7812E+07 -2.6510E+07 -2.9210E+08  3.9212E+06 -1.8656E+06 -1.6260E+07  2.6030E-04
     332-
 mid.  surface    -5.2374E+07 -3.2734E+07 -2.9465E+08 -9.2284E+04 -1.3901E+07 -1.0624E+07  2.7520E-04
     333-
 mid.  surface    -3.0340E+07  6.4508E+06 -2.5950E+08  6.5206E+06 -1.6171E+07 -2.4838E+06  5.1759E-05
     510-
 mid.  surface    -2.3153E+07 -7.4823E+06 -2.6041E+08  1.9481E+07 -3.1213E+06  1.8046E+06  8.6931E-05
     511-
 mid.  surface    -4.3785E+07 -1.9644E+07 -2.8951E+08  6.9403E+06  9.6251E+06 -1.9581E+07  2.4831E-04
     647-
 mid.  surface    -3.2484E+07 -3.7923E+07 -2.8507E+08  1.2090E+06  1.9084E+06  2.3655E+06  2.6842E-04
     648-
 mid.  surface    -2.5817E+07 -3.5353E+07 -2.7357E+08  4.3780E+06  2.2305E+06  3.4825E+06  2.4025E-04
     705-
 mid.  surface    -4.8791E+07 -2.6989E+07 -2.9491E+08 -9.3302E+06 -3.7306E+05 -8.3735E+06  2.4870E-04
     706-
 mid.  surface    -2.7288E+07  1.4753E+07 -2.5899E+08 -4.7394E+06  1.9840E+06  7.0760E+05  2.3545E-05
     841-
 mid.  surface    -1.7707E+07 -2.5774E+07 -2.6414E+08  1.6702E+07  1.1544E+06  4.5008E+06  1.3562E-04
     990-
 mid.  surface    -1.8908E+07 -2.8924E+07 -2.6413E+08  9.1404E+06  2.3888E+06  4.6831E+06  1.9224E-04
    1035-
 mid.  surface    -4.3497E+07 -3.5432E+07 -3.0090E+08  1.6416E+07  2.7106E+07 -1.6755E+07  1.3745E-04
    1036-
 mid.  surface    -4.2981E+07 -2.9150E+07 -2.9734E+08  1.2336E+07  2.0984E+07 -1.9127E+07  1.9708E-04
    1140-
 mid.  surface    -3.4723E+07 -3.8102E+07 -2.9024E+08  1.2991E+07  2.8611E+06  1.1487E+05  2.8519E-04
    1141-
 mid.  surface    -1.4207E+07 -4.6183E+07 -2.8227E+08  1.7521E+07  2.1182E+07 -6.4800E+06  5.6071E-05
    1142-
 mid.  surface    -1.9005E+07 -4.4180E+07 -2.8563E+08  8.5842E+06  1.6098E+07 -7.3704E+06  6.1852E-05
    1230-
 mid.  surface    -3.0484E+07 -4.0067E+07 -2.9366E+08  1.5116E+07  2.5785E+07 -1.2430E+07  9.3296E-05



 n o d a l  s t r a i n  c a l c u l a t i o n s   f o r   t i m e  s t e p       18   ( at time 1.29245E+00 )

 node (global)
          strain       eps-xx      eps-yy      eps-zz      eps-xy      eps-yz      eps-zx       
     269-
 mid.  surface     1.4920E-03  8.3280E-04 -3.8605E-03  3.7240E-04 -4.7731E-05 -4.3758E-04
     270-
 mid.  surface     1.5087E-03  1.3775E-03 -4.5476E-03  3.0656E-04 -1.8361E-05 -3.5051E-04
     284-
 mid.  surface     7.8724E-04  1.6541E-03 -3.6787E-03 -1.1465E-04 -2.5727E-04  1.7548E-05
     285-
 mid.  surface     1.1452E-03  1.6575E-03 -4.5097E-03 -1.6954E-04 -3.2441E-04  3.2457E-05
     286-
 mid.  surface     1.1544E-03  1.6334E-03 -4.5684E-03  2.0442E-05  1.1627E-05  1.7773E-04
     287-
 mid.  surface     1.1728E-03  1.6541E-03 -4.5233E-03  1.1320E-04 -2.4528E-04  2.1614E-04
     288-
 mid.  surface     1.1875E-03  1.7010E-03 -4.4925E-03  1.8586E-04 -4.8176E-04  2.2378E-04
     289-
 mid.  surface     1.2515E-03  1.5187E-03 -4.4126E-03  2.9218E-04 -7.4888E-04  1.3686E-04
     290-
 mid.  surface     1.2212E-03  1.3678E-03 -4.2623E-03  3.6113E-04 -8.8168E-04 -1.8483E-05
     291-
 mid.  surface     1.3422E-03  1.1280E-03 -4.0764E-03  3.2234E-04 -7.9270E-04 -2.1876E-04
     292-
 mid.  surface     1.4407E-03  9.1333E-04 -3.9084E-03  1.8339E-04 -4.8763E-04 -3.9655E-04
     311-
 mid.  surface     1.3009E-03  1.2183E-03 -3.8817E-03  3.8527E-04 -1.5028E-04 -3.0049E-04
     314-
 mid.  surface     1.0378E-03  1.4289E-03 -3.7762E-03  4.1229E-04 -1.2168E-04 -2.1952E-04
     317-
 mid.  surface     9.0037E-04  1.5384E-03 -3.7351E-03  2.9158E-04 -6.2006E-05 -1.2910E-04
     320-
 mid.  surface     8.1850E-04  1.6048E-03 -3.7396E-03  1.1752E-04  8.1897E-05 -1.8678E-05
     327-
 mid.  surface     1.3787E-03  1.2451E-03 -4.0085E-03  2.5472E-04 -1.1698E-04 -3.2287E-04
     328-
 mid.  surface     1.4467E-03  1.2682E-03 -4.2184E-03  1.6073E-04 -7.2359E-05 -3.3161E-04
     329-
 mid.  surface     1.4825E-03  1.3322E-03 -4.4290E-03  7.1773E-05 -3.3599E-05 -3.5656E-04
     330-
 mid.  surface     8.8031E-04  1.5041E-03 -3.7320E-03  2.8832E-04 -1.7996E-04  2.5829E-05
     331-
 mid.  surface     1.1603E-03  1.6225E-03 -4.5253E-03  1.0674E-04 -6.4949E-05 -3.3899E-04
     332-
 mid.  surface     1.1432E-03  1.5970E-03 -4.5458E-03  1.7356E-05 -3.2775E-04 -2.2293E-04
     333-
 mid.  surface     8.0348E-04  1.5665E-03 -3.7171E-03  1.2140E-04 -3.3790E-04 -3.4895E-05
     510-
 mid.  surface     1.0164E-03  1.3864E-03 -3.7864E-03  4.0068E-04 -9.9353E-05  7.6234E-05
     511-
 mid.  surface     1.1748E-03  1.6595E-03 -4.5129E-03  1.7289E-04  1.7942E-04 -4.0896E-04
     647-
 mid.  surface     1.4483E-03  1.3202E-03 -4.4591E-03  5.0802E-05 -1.7239E-05  4.4011E-05
     648-
 mid.  surface     1.4128E-03  1.2414E-03 -4.2462E-03  1.2976E-04 -4.2850E-05  7.8921E-05
     705-
 mid.  surface     1.1377E-03  1.6301E-03 -4.5306E-03 -1.7901E-04 -1.7461E-05 -1.6960E-04
     706-
 mid.  surface     7.7214E-04  1.6316E-03 -3.6948E-03 -1.1789E-04  4.8909E-05  3.0394E-05
     841-
 mid.  surface     1.2776E-03  1.1649E-03 -3.9049E-03  3.5862E-04 -3.7683E-05  1.3126E-04
     990-
 mid.  surface     1.3490E-03  1.2026E-03 -4.0351E-03  2.2081E-04 -3.7911E-05  1.2057E-04
    1035-
 mid.  surface     1.1950E-03  1.3059E-03 -4.3063E-03  3.3102E-04  5.4593E-04 -3.3268E-04
    1036-
 mid.  surface     1.2334E-03  1.4609E-03 -4.4511E-03  2.6772E-04  4.2428E-04 -3.9241E-04
    1140-
 mid.  surface     1.4774E-03  1.3715E-03 -4.5756E-03  2.9320E-04  4.0935E-06 -8.3469E-06
    1141-
 mid.  surface     1.4595E-03  7.9814E-04 -3.8861E-03  3.6072E-04  4.1859E-04 -1.1458E-04
    1142-
 mid.  surface     1.4062E-03  8.7650E-04 -3.9404E-03  1.6191E-04  3.1250E-04 -1.2942E-04
    1230-
 mid.  surface     1.3093E-03  1.0748E-03 -4.1151E-03  2.9396E-04  5.0947E-04 -2.3703E-04



 n o d a l  s t r e s s  c a l c u l a t i o n s   f o r   t i m e  s t e p       48   ( at time 2.54839E+00 )

 node (global)
          stress       sig-xx      sig-yy      sig-zz      sig-xy      sig-yz      sig-zx       plastic
                                                                                                 strain 
     269-
 mid.  surface     1.1700E+08  1.1992E+08 -1.8602E+08  3.6359E+07 -5.8100E+06  1.1459E+07  4.7098E-03
     270-
 mid.  surface    -2.6799E+08 -1.9953E+08 -5.1442E+08  3.3148E+07 -5.9817E+06  1.8667E+07  1.3633E-02
     284-
 mid.  surface     5.7326E+07  6.7675E+07 -2.1417E+08 -1.5881E+07 -2.9669E+07  2.5120E+06  7.7361E-03
     285-
 mid.  surface     2.3120E+07  1.0958E+07 -2.6313E+08 -1.6355E+07 -3.2198E+07  3.7058E+06  1.0328E-02
     286-
 mid.  surface    -3.2054E+07 -3.8838E+07 -3.0264E+08 -6.8217E+06  8.8819E+06  1.7597E+07  1.1694E-02
     287-
 mid.  surface     9.3877E+06  9.8073E+06 -2.6418E+08 -7.4693E+06 -2.6220E+07  1.8962E+07  1.1005E-02
     288-
 mid.  surface     2.0288E+07  3.3198E+07 -2.3995E+08 -8.5924E+06 -5.1747E+07  2.1696E+07  1.1386E-02
     289-
 mid.  surface     5.0330E+07  6.3958E+07 -2.3599E+08 -1.3828E+06 -9.3155E+07  3.8927E+06  9.4298E-03
     290-
 mid.  surface     3.3483E+07  5.7856E+07 -2.4962E+08  2.5437E+06 -1.1112E+08 -9.8348E+06  8.2310E-03
     291-
 mid.  surface     7.9547E+07  9.5156E+07 -2.0637E+08  4.4381E+06 -1.0674E+08 -2.5749E+07  7.0302E-03
     292-
 mid.  surface     1.3232E+08  1.3288E+08 -1.3195E+08  5.1895E+06 -6.9973E+07 -2.6637E+07  7.2770E-03
     311-
 mid.  surface     3.5478E+07  3.2880E+07 -1.7174E+08  6.9309E+06 -4.7719E+07 -3.5525E+07  1.2231E-02
     314-
 mid.  surface     9.4378E+06  2.0090E+07 -2.0100E+08  7.0852E+06 -2.5837E+07 -1.8482E+07  1.1176E-02
     317-
 mid.  surface     2.9105E+07  4.0942E+07 -2.1524E+08  4.2598E+06 -1.6992E+07 -1.1256E+07  9.3151E-03
     320-
 mid.  surface     7.6588E+06  2.0287E+07 -2.4313E+08 -2.2544E+06  5.8286E+06  5.5919E+05  9.3228E-03
     327-
 mid.  surface    -2.7176E+07 -1.4812E+07 -2.0328E+08 -1.4748E+06 -4.9985E+07 -3.9399E+07  1.4532E-02
     328-
 mid.  surface    -1.1717E+08 -8.6160E+07 -2.9487E+08 -3.4623E+06 -4.4499E+07 -3.8089E+07  1.5409E-02
     329-
 mid.  surface    -2.0748E+08 -1.5780E+08 -3.9508E+08 -1.8931E+05 -2.8190E+07 -2.4495E+07  1.6269E-02
     330-
 mid.  surface    -3.6743E+06  1.1237E+07 -2.5319E+08  5.4717E+06  4.3966E+04  2.4749E+06  8.8867E-03
     331-
 mid.  surface    -1.8048E+07 -1.5835E+07 -2.9703E+08 -6.6623E+06  1.6454E+07 -2.2105E+07  1.0710E-02
     332-
 mid.  surface    -4.4842E+07 -4.9094E+07 -3.1304E+08 -6.0870E+06 -1.6214E+07 -1.8152E+07  1.1577E-02
     333-
 mid.  surface    -1.2050E+07  3.8238E+06 -2.6101E+08 -9.2292E+05 -2.5664E+07 -5.1016E+06  9.1039E-03
     510-
 mid.  surface    -3.2003E+07 -2.0979E+07 -2.5699E+08  8.0608E+06  1.4673E+07  8.6222E+06  1.0381E-02
     511-
 mid.  surface    -2.0092E+07 -7.5029E+06 -2.9623E+08 -8.1111E+06  4.2018E+07 -2.4156E+07  1.0673E-02
     647-
 mid.  surface    -2.4651E+08 -2.0435E+08 -4.4829E+08 -2.5447E+05  2.6576E+07  1.1642E+07  1.5740E-02
     648-
 mid.  surface    -1.7290E+08 -1.4820E+08 -3.6175E+08 -3.6019E+06  3.5590E+07  2.7075E+07  1.5122E-02
     705-
 mid.  surface    -7.5955E+06 -1.6957E+07 -3.0107E+08 -1.6585E+07  1.5249E+07 -1.5732E+07  9.9490E-03
     706-
 mid.  surface     2.1893E+07  3.6339E+07 -2.5326E+08 -1.5812E+07  1.3941E+07  8.4914E+05  7.4254E-03
     841-
 mid.  surface    -3.0276E+07 -3.5773E+07 -2.5989E+08  6.7846E+06  3.6922E+07  2.5244E+07  1.1193E-02
     990-
 mid.  surface    -9.2037E+07 -8.4209E+07 -2.8634E+08 -1.9087E+06  3.8373E+07  2.9827E+07  1.3792E-02
    1035-
 mid.  surface    -4.7011E+07 -2.6113E+07 -3.5430E+08  2.9273E+06  8.4433E+07 -3.6254E+06  7.1648E-03
    1036-
 mid.  surface    -2.3317E+07 -1.1631E+07 -3.3553E+08 -1.5697E+06  7.3969E+07 -9.6087E+06  8.2734E-03
    1140-
 mid.  surface    -2.8660E+08 -2.2509E+08 -5.4172E+08  3.2227E+07  2.3772E+07 -4.7143E+07  1.3020E-02
    1141-
 mid.  surface     9.2231E+07  8.5994E+07 -2.0852E+08  3.6154E+07  6.9037E+07 -5.5384E+07  4.6719E-03
    1142-
 mid.  surface     8.5051E+07  7.7046E+07 -1.9079E+08  5.4020E+06  5.6735E+07 -2.1256E+06  6.9502E-03
    1230-
 mid.  surface     1.0139E+07  1.9402E+07 -2.9270E+08  5.1817E+06  8.2146E+07  1.2585E+06  6.4678E-03



 n o d a l  s t r a i n  c a l c u l a t i o n s   f o r   t i m e  s t e p       48   ( at time 2.54839E+00 )

 node (global)
          strain       eps-xx      eps-yy      eps-zz      eps-xy      eps-yz      eps-zx       
     269-
 mid.  surface     5.3756E-03  5.6660E-03 -1.0842E-02  2.9939E-03 -3.4218E-04  4.4302E-04
     270-
 mid.  surface     5.3925E-03  1.0217E-02 -2.0372E-02  2.3299E-03 -7.9280E-05  7.4848E-04
     284-
 mid.  surface     5.9019E-03  6.7494E-03 -1.3133E-02 -1.1794E-03 -2.3176E-03  2.2027E-04
     285-
 mid.  surface     7.5636E-03  6.7508E-03 -1.5490E-02 -1.3267E-03 -2.4451E-03  3.1612E-04
     286-
 mid.  surface     7.4995E-03  7.0478E-03 -1.6434E-02 -5.5837E-04  5.7856E-04  1.4137E-03
     287-
 mid.  surface     7.2493E-03  7.3686E-03 -1.5881E-02 -5.7014E-04 -2.1556E-03  1.5359E-03
     288-
 mid.  surface     6.8267E-03  7.9683E-03 -1.5789E-02 -6.7531E-04 -4.1823E-03  1.7050E-03
     289-
 mid.  surface     6.6499E-03  7.9237E-03 -1.5254E-02 -5.0633E-05 -7.3929E-03  3.2415E-04
     290-
 mid.  surface     5.6414E-03  7.8297E-03 -1.4320E-02  3.1142E-04 -8.6323E-03 -7.8062E-04
     291-
 mid.  surface     5.5770E-03  7.0280E-03 -1.2832E-02  5.1801E-04 -7.8989E-03 -1.9037E-03
     292-
 mid.  surface     5.7924E-03  6.0577E-03 -1.1273E-02  6.3164E-04 -5.0496E-03 -2.5393E-03
     311-
 mid.  surface     6.7065E-03  6.4455E-03 -1.3732E-02  5.5954E-04 -4.0043E-03 -2.9639E-03
     314-
 mid.  surface     5.8692E-03  6.6648E-03 -1.3428E-02  5.6831E-04 -2.3894E-03 -1.4012E-03
     317-
 mid.  surface     5.8674E-03  6.7906E-03 -1.3418E-02  3.5861E-04 -1.5241E-03 -7.5910E-04
     320-
 mid.  surface     5.9142E-03  6.9166E-03 -1.3936E-02 -1.4755E-04  4.0311E-04  1.3109E-04
     327-
 mid.  surface     6.4074E-03  7.2700E-03 -1.4956E-02 -1.3529E-04 -3.7635E-03 -3.4267E-03
     328-
 mid.  surface     6.0972E-03  8.2740E-03 -1.6859E-02 -3.4633E-04 -2.9120E-03 -3.2797E-03
     329-
 mid.  surface     5.9484E-03  9.5030E-03 -1.9176E-02 -1.5691E-04 -1.6749E-03 -2.7535E-03
     330-
 mid.  surface     5.5508E-03  6.7098E-03 -1.3497E-02  4.6088E-04  6.8050E-05  1.4168E-04
     331-
 mid.  surface     7.0476E-03  7.2965E-03 -1.6017E-02 -5.0622E-04  1.2492E-03 -1.8820E-03
     332-
 mid.  surface     7.2571E-03  6.9902E-03 -1.6289E-02 -5.0084E-04 -1.3767E-03 -1.4934E-03
     333-
 mid.  surface     5.5866E-03  6.8419E-03 -1.3787E-02 -3.9325E-05 -2.0620E-03 -4.6917E-04
     510-
 mid.  surface     5.6396E-03  6.4380E-03 -1.3621E-02  6.5798E-04  1.0316E-03  6.0171E-04
     511-
 mid.  surface     6.6723E-03  7.7661E-03 -1.6080E-02 -6.3222E-04  3.2543E-03 -2.1530E-03
     647-
 mid.  surface     6.0407E-03  9.0659E-03 -1.9491E-02 -2.0592E-04  1.2165E-03  9.5558E-04
     648-
 mid.  surface     6.1120E-03  7.7963E-03 -1.7284E-02 -3.8867E-04  2.0393E-03  1.8801E-03
     705-
 mid.  surface     7.3339E-03  6.7330E-03 -1.5708E-02 -1.3363E-03  1.1432E-03 -1.2900E-03
     706-
 mid.  surface     5.5665E-03  6.7499E-03 -1.3306E-02 -1.1664E-03  1.2474E-03  2.6808E-06
     841-
 mid.  surface     6.5645E-03  6.0003E-03 -1.4195E-02  5.5452E-04  2.8445E-03  2.0574E-03
     990-
 mid.  surface     6.3435E-03  6.7795E-03 -1.5433E-02 -1.8705E-04  2.6909E-03  2.2978E-03
    1035-
 mid.  surface     5.5002E-03  7.3385E-03 -1.4959E-02  3.2656E-04  7.0045E-03 -2.4280E-04
    1036-
 mid.  surface     6.4737E-03  7.5283E-03 -1.5858E-02 -6.4510E-05  6.2377E-03 -8.7292E-04
    1140-
 mid.  surface     5.4153E-03  9.7808E-03 -2.0281E-02  2.2179E-03  1.1170E-03 -2.8737E-03
    1141-
 mid.  surface     5.4149E-03  5.0955E-03 -1.0681E-02  2.9445E-03  4.5795E-03 -3.2497E-03
    1142-
 mid.  surface     5.8801E-03  5.5415E-03 -1.1611E-02  6.1362E-04  3.6974E-03  2.0850E-04
    1230-
 mid.  surface     5.5435E-03  6.4897E-03 -1.3362E-02  5.5379E-04  6.1928E-03  1.7205E-04



 n o d a l  s t r e s s  c a l c u l a t i o n s   f o r   t i m e  s t e p      243   ( at time 3.13135E+00 )

 node (global)
          stress       sig-xx      sig-yy      sig-zz      sig-xy      sig-yz      sig-zx       plastic
                                                                                                 strain 
     269-
 mid.  surface     1.7687E+08  2.1179E+08 -2.4603E+08  6.7038E+07 -1.0879E+07  1.5007E+08  1.6026E-03
     270-
 mid.  surface    -4.9365E+08 -3.5585E+08 -8.1832E+08  7.3005E+07 -3.0201E+07  2.0816E+08  1.7063E-02
     284-
 mid.  surface     9.0640E+07  8.7645E+07 -1.9959E+08 -2.3334E+07 -6.5161E+07  4.6082E+06  1.2232E-02
     285-
 mid.  surface     3.1451E+07  9.5369E+06 -2.6422E+08 -1.5200E+07 -8.4620E+07  5.2740E+06  1.5519E-02
     286-
 mid.  surface    -4.0752E+07 -3.6660E+07 -2.8852E+08 -7.5879E+06 -3.9780E+07  2.1888E+07  1.9138E-02
     287-
 mid.  surface     2.3792E+05 -7.1087E+06 -2.6422E+08 -5.1011E+06 -3.8603E+07  3.0776E+07  1.7840E-02
     288-
 mid.  surface    -3.4663E+06 -1.9330E+07 -2.4559E+08 -1.1709E+07 -7.8161E+07  2.1803E+07  1.8556E-02
     289-
 mid.  surface     1.2691E+08  1.2436E+08 -1.7850E+08  7.1732E+06 -1.1362E+08 -1.0769E+07  1.4914E-02
     290-
 mid.  surface     2.9235E+07  4.1596E+07 -2.1035E+08 -7.3928E+06 -1.2459E+08 -3.3646E+06  1.5466E-02
     291-
 mid.  surface     9.9985E+07  1.0422E+08 -1.5425E+08 -9.8757E+06 -1.4817E+08 -1.7600E+07  1.3361E-02
     292-
 mid.  surface     2.3063E+08  2.2437E+08  5.0852E+07 -3.1599E+06 -1.8597E+08 -1.0400E+07  1.4835E-02
     311-
 mid.  surface     1.0948E+08  1.1982E+08 -7.6190E+07  1.2923E+07 -1.0438E+08 -4.6857E+07  2.1042E-02
     314-
 mid.  surface    -1.2348E+07 -1.4444E+07 -1.7942E+08 -4.6537E+06 -6.0858E+07 -1.0804E+07  2.0130E-02
     317-
 mid.  surface     3.8759E+07  3.8321E+07 -1.8280E+08  5.1981E+06 -3.1050E+07  5.9600E+05  1.6428E-02
     320-
 mid.  surface     3.0420E+07  5.2415E+07 -1.9079E+08 -6.6417E+06 -3.7240E+07  6.8880E+06  1.6241E-02
     327-
 mid.  surface    -4.7531E+07 -2.8182E+07 -1.4371E+08  1.0560E+06 -1.0628E+08 -3.4970E+07  2.6067E-02
     328-
 mid.  surface    -1.6754E+08 -1.4254E+08 -2.5758E+08 -6.3814E+05 -1.2560E+08 -4.3194E+07  2.7395E-02
     329-
 mid.  surface    -3.1727E+08 -2.5970E+08 -3.8863E+08  4.9563E+06 -1.6738E+08  6.9838E+06  2.9543E-02
     330-
 mid.  surface    -8.3067E+06 -3.7429E+06 -2.3957E+08  4.4138E+06  1.8136E+07 -1.2016E+07  1.5663E-02
     331-
 mid.  surface    -4.7359E+07 -4.9544E+07 -3.2036E+08 -5.9948E+06  3.2555E+07 -3.1203E+07  1.7259E-02
     332-
 mid.  surface    -7.0608E+07 -6.6392E+07 -3.2989E+08 -6.7869E+06  2.7319E+07 -2.1175E+07  1.8703E-02
     333-
 mid.  surface    -4.5776E+06  1.8381E+07 -2.3807E+08 -5.7212E+06  2.3377E+07 -7.6913E+06  1.5631E-02
     510-
 mid.  surface    -9.3829E+07 -9.3540E+07 -2.7659E+08 -4.7654E+06  5.1610E+07  3.0034E+06  1.8978E-02
     511-
 mid.  surface    -8.5865E+07 -9.9981E+07 -3.4627E+08 -1.2097E+07  7.4941E+07 -2.2328E+07  1.7452E-02
     647-
 mid.  surface    -3.8827E+08 -3.4903E+08 -4.7065E+08  7.2171E+06  9.3955E+07  3.3731E+07  2.8498E-02
     648-
 mid.  surface    -2.4580E+08 -2.3435E+08 -3.7385E+08  3.5851E+06  6.4699E+07  2.0634E+07  2.5949E-02
     705-
 mid.  surface    -2.0829E+07 -4.2646E+07 -3.4470E+08 -1.4139E+07  4.7973E+07 -2.1938E+07  1.4387E-02
     706-
 mid.  surface     2.2817E+07  2.2924E+07 -2.7247E+08 -2.2439E+07  6.3635E+07 -4.5608E+06  1.1896E-02
     841-
 mid.  surface    -2.0081E+07 -8.2348E+06 -2.4412E+08  9.7073E+06  7.6386E+07  2.0559E+07  1.8525E-02
     990-
 mid.  surface    -1.6940E+08 -1.5682E+08 -3.0213E+08 -1.6508E+06  6.0674E+07  1.6189E+07  2.3848E-02
    1035-
 mid.  surface    -1.2546E+08 -1.1370E+08 -3.9272E+08 -7.6352E+06  1.0656E+08  6.0221E+06  1.3230E-02
    1036-
 mid.  surface    -3.3403E+07 -3.1383E+07 -3.5629E+08  4.4690E+06  1.1691E+08  1.0228E+07  1.3326E-02
    1140-
 mid.  surface    -5.2498E+08 -4.0532E+08 -7.7794E+08  6.8046E+07  2.1885E+08 -2.2393E+08  1.7405E-02
    1141-
 mid.  surface     1.2784E+08  1.4356E+08 -1.7680E+08  5.9730E+07  2.7848E+08 -2.7053E+08  4.4718E-03
    1142-
 mid.  surface     1.5563E+08  1.3184E+08 -4.5133E+07 -2.7270E+06  1.3022E+08  1.5377E+06  1.3734E-02
    1230-
 mid.  surface    -1.5664E+06 -8.9636E+06 -2.8726E+08 -4.7051E+06  1.1673E+08  1.6056E+07  1.1906E-02



 n o d a l  s t r a i n  c a l c u l a t i o n s   f o r   t i m e  s t e p      243   ( at time 3.13135E+00 )

 node (global)
          strain       eps-xx      eps-yy      eps-zz      eps-xy      eps-yz      eps-zx       
     269-
 mid.  surface     5.7321E-03  8.1410E-03 -1.3122E-02  5.3599E-03 -4.3361E-04  4.3274E-03
     270-
 mid.  surface     5.6719E-03  1.4178E-02 -2.7752E-02  3.7746E-03  1.5400E-04  5.4582E-03
     284-
 mid.  surface     8.6641E-03  9.1686E-03 -1.7999E-02 -1.9841E-03 -5.1856E-03  4.8442E-04
     285-
 mid.  surface     1.0684E-02  8.9835E-03 -2.0845E-02 -1.7409E-03 -6.0001E-03  6.0805E-04
     286-
 mid.  surface     1.0593E-02  1.0460E-02 -2.2941E-02 -8.4898E-04 -1.5398E-03  2.1953E-03
     287-
 mid.  surface     1.0499E-02  1.0210E-02 -2.2125E-02 -6.9078E-04 -3.7539E-03  2.7174E-03
     288-
 mid.  surface     9.9051E-03  9.9897E-03 -2.1292E-02 -1.0918E-03 -7.7021E-03  2.3677E-03
     289-
 mid.  surface     1.0312E-02  1.1348E-02 -2.1431E-02  4.7509E-04 -1.3045E-02 -5.0519E-04
     290-
 mid.  surface     8.2007E-03  1.0976E-02 -1.9958E-02  1.4499E-05 -1.4593E-02 -1.3299E-03
     291-
 mid.  surface     8.1621E-03  1.0020E-02 -1.8056E-02  2.4332E-04 -1.3613E-02 -2.6364E-03
     292-
 mid.  surface     8.2360E-03  8.6285E-03 -1.4526E-02  1.1963E-03 -9.8888E-03 -5.5625E-03
     311-
 mid.  surface     9.9660E-03  1.0374E-02 -1.9750E-02  1.0263E-03 -9.2723E-03 -4.7721E-03
     314-
 mid.  surface     8.6334E-03  9.1980E-03 -1.8917E-02  1.4184E-04 -5.1672E-03 -1.4716E-03
     317-
 mid.  surface     8.7882E-03  9.4803E-03 -1.8865E-02  4.9177E-04 -2.8947E-03 -4.7170E-04
     320-
 mid.  surface     8.4330E-03  1.0324E-02 -1.9375E-02 -4.7980E-04 -1.6665E-03  4.8963E-04
     327-
 mid.  surface     8.8235E-03  1.0647E-02 -2.0676E-02 -2.3213E-04 -8.6854E-03 -4.7606E-03
     328-
 mid.  surface     8.5710E-03  1.1622E-02 -2.3063E-02 -4.8360E-04 -7.4429E-03 -4.8537E-03
     329-
 mid.  surface     8.3727E-03  1.2915E-02 -2.5996E-02 -6.1581E-05 -5.1472E-03 -5.7143E-03
     330-
 mid.  surface     8.3054E-03  9.4074E-03 -1.8998E-02  5.2944E-04  8.7115E-04 -5.4569E-04
     331-
 mid.  surface     1.0102E-02  1.0136E-02 -2.2347E-02 -6.8570E-04  2.4206E-03 -3.0742E-03
     332-
 mid.  surface     1.0323E-02  1.0311E-02 -2.2995E-02 -7.5525E-04  2.0133E-04 -2.2431E-03
     333-
 mid.  surface     8.0525E-03  1.0166E-02 -1.9382E-02 -3.3990E-04 -5.8540E-04 -7.8085E-04
     510-
 mid.  surface     8.1573E-03  8.8047E-03 -1.9264E-02  1.6729E-04  3.4026E-03  4.1501E-04
     511-
 mid.  surface     9.5338E-03  9.6066E-03 -2.1785E-02 -1.1152E-03  5.9608E-03 -3.2486E-03
     647-
 mid.  surface     8.7544E-03  1.2225E-02 -2.6881E-02 -1.3485E-04  3.8049E-03  3.6593E-03
     648-
 mid.  surface     8.8650E-03  1.0650E-02 -2.3748E-02 -3.5174E-04  5.5321E-03  2.5080E-03
     705-
 mid.  surface     1.0438E-02  8.8708E-03 -2.1366E-02 -1.6719E-03  3.3273E-03 -2.1187E-03
     706-
 mid.  surface     8.2062E-03  9.0907E-03 -1.8450E-02 -1.9230E-03  4.2022E-03 -2.4227E-04
     841-
 mid.  surface     9.5060E-03  9.6961E-03 -2.0612E-02  8.0805E-04  7.4039E-03  3.0287E-03
     990-
 mid.  surface     8.6564E-03  9.6022E-03 -2.1391E-02 -4.7976E-04  6.6317E-03  2.8817E-03
    1035-
 mid.  surface     7.7367E-03  1.0049E-02 -2.0891E-02 -5.5115E-05  1.1941E-02  1.8733E-05
    1036-
 mid.  surface     9.6719E-03  1.0682E-02 -2.2473E-02  2.1919E-04  1.1811E-02 -2.5173E-04
    1140-
 mid.  surface     5.7857E-03  1.3657E-02 -2.7608E-02  3.4445E-03  4.0525E-03 -7.7989E-03
    1141-
 mid.  surface     5.7940E-03  7.4034E-03 -1.2781E-02  4.9775E-03  9.1265E-03 -9.1007E-03
    1142-
 mid.  surface     8.6301E-03  7.8933E-03 -1.5463E-02  1.0822E-03  6.7644E-03  2.4985E-03
    1230-
 mid.  surface     8.3390E-03  9.0331E-03 -1.8895E-02  5.0159E-04  1.1002E-02  8.5169E-04



 n o d a l  s t r e s s  c a l c u l a t i o n s   f o r   t i m e  s t e p      403   ( at time 4.03494E+00 )

 node (global)
          stress       sig-xx      sig-yy      sig-zz      sig-xy      sig-yz      sig-zx       plastic
                                                                                                 strain 
     269-
 mid.  surface     1.7071E+08  1.8601E+08 -1.2510E+08  2.0404E+07 -1.0044E+07  5.0387E+07 -7.9681E-04
     270-
 mid.  surface    -6.4300E+08 -5.7252E+08 -9.0911E+08  4.4751E+07 -3.4470E+07  8.7192E+07  1.7856E-02
     284-
 mid.  surface     9.8280E+07  9.0952E+07 -9.9341E+07 -1.4055E+07 -1.2929E+08  1.5787E+06  2.4580E-02
     285-
 mid.  surface     4.3189E+07  2.7195E+07 -2.0222E+08 -1.6096E+07 -6.8581E+07  1.7672E+06  2.7388E-02
     286-
 mid.  surface    -1.1781E+07 -2.4128E+07 -2.2919E+08 -2.9827E+05 -6.5126E+07 -3.9477E+05  3.2972E-02
     287-
 mid.  surface     5.1481E+07  5.2637E+07 -2.0636E+08 -5.2584E+06 -9.0220E+07 -1.0310E+07  2.8191E-02
     288-
 mid.  surface    -5.1090E+07 -1.4206E+07 -2.3231E+08 -1.6947E+07 -1.1541E+08  8.0015E+05  3.5144E-02
     289-
 mid.  surface     1.4315E+08  1.1775E+08 -1.1401E+08 -1.1196E+07 -7.6270E+07  6.1976E+07  2.1568E-02
     290-
 mid.  surface     1.1886E+07  6.5050E+05 -1.7897E+08 -9.5153E+06 -7.0662E+07  4.0599E+07  2.8911E-02
     291-
 mid.  surface     8.6153E+07  9.8615E+07 -1.4397E+08 -2.1062E+07 -8.7141E+07  4.6403E+07  2.2396E-02
     292-
 mid.  surface     3.1528E+08  3.1919E+08  7.3025E+07 -3.3414E+07 -1.0848E+08  1.1886E+08  2.8768E-02
     311-
 mid.  surface     1.5789E+08  1.5724E+08 -5.8613E+07 -4.2521E+06 -1.1720E+08  2.9542E+07  2.9762E-02
     314-
 mid.  surface    -3.3553E+07  1.7987E+07 -1.6845E+08 -8.7184E+06 -1.6166E+08 -1.8294E+07  3.7887E-02
     317-
 mid.  surface     7.9408E+07  9.4481E+07 -1.1931E+08 -1.7352E+06 -1.4498E+08 -2.1272E+07  2.8129E-02
     320-
 mid.  surface     5.9170E+07  5.7962E+07 -1.0619E+08  5.2185E+05 -1.2395E+08 -7.0396E+06  3.1077E-02
     327-
 mid.  surface    -3.5297E+07 -1.8887E+07 -1.9639E+08  1.4888E+05 -9.6237E+07  9.2291E+06  4.2399E-02
     328-
 mid.  surface    -1.8145E+08 -1.3948E+08 -3.7043E+08  5.6274E+05 -1.0050E+08  2.5080E+07  3.9753E-02
     329-
 mid.  surface    -3.5829E+08 -3.0955E+08 -5.6059E+08 -5.2337E+06 -1.1976E+08  1.1966E+08  4.7027E-02
     330-
 mid.  surface    -5.6473E+07 -4.9262E+07 -2.8703E+08 -2.7003E+06  5.8681E+07  6.3531E+06  2.5767E-02
     331-
 mid.  surface    -1.1527E+08 -1.1525E+08 -3.7667E+08 -9.7550E+06  1.2568E+08  2.3895E+06  2.7517E-02
     332-
 mid.  surface    -1.6542E+08 -1.7721E+08 -3.7601E+08 -6.4538E+06  1.1948E+08 -2.5095E+06  3.2969E-02
     333-
 mid.  surface    -7.2509E+07 -7.5723E+07 -2.5959E+08 -3.0074E+06  5.1585E+07 -2.2263E+06  2.9234E-02
     510-
 mid.  surface    -1.7702E+08 -1.4520E+08 -3.1511E+08 -6.9594E+06  1.2259E+08  1.5503E+07  3.6043E-02
     511-
 mid.  surface    -2.1899E+08 -1.9354E+08 -3.8257E+08 -1.8095E+07  1.8522E+08  9.4382E+06  3.4547E-02
     647-
 mid.  surface    -4.4462E+08 -4.1466E+08 -6.6620E+08  5.2556E+06  7.7656E+07 -8.6709E+07  4.5650E-02
     648-
 mid.  surface    -2.8205E+08 -2.5001E+08 -5.1172E+08  1.0525E+07  4.5541E+07 -4.9307E+07  3.6568E-02
     705-
 mid.  surface    -1.2263E+08 -1.3146E+08 -3.5519E+08 -1.0300E+07  1.1996E+08  2.3257E+05  2.6724E-02
     706-
 mid.  surface    -4.7050E+07 -4.8703E+07 -2.6069E+08 -7.4247E+06  5.1999E+07  4.2696E+06  2.3123E-02
     841-
 mid.  surface    -2.7617E+07 -4.0557E+07 -2.5329E+08 -8.2041E+05  3.7923E+07 -7.3104E+07  2.5601E-02
     990-
 mid.  surface    -1.8491E+08 -1.6743E+08 -3.8994E+08  4.1942E+06  4.0746E+07 -3.1757E+07  3.7948E-02
    1035-
 mid.  surface    -1.8253E+08 -1.8536E+08 -3.9137E+08 -4.0840E+06  9.7013E+07 -2.4027E+07  2.5528E-02
    1036-
 mid.  surface    -8.7147E+07 -1.1485E+08 -3.2747E+08 -8.5670E+06  9.9119E+07 -6.8309E+07  1.9400E-02
    1140-
 mid.  surface    -6.6424E+08 -6.2048E+08 -9.2808E+08  1.5941E+07  1.9190E+08 -9.7929E+07  1.9959E-02
    1141-
 mid.  surface     1.4373E+08  1.3552E+08 -1.3841E+08 -9.0915E+06  2.2314E+08 -1.2239E+08  4.8283E-03
    1142-
 mid.  surface     2.2158E+08  2.0928E+08 -3.4233E+07 -2.3164E+07  1.1128E+08 -9.5952E+07  2.7441E-02
    1230-
 mid.  surface    -4.0770E+07 -3.4074E+07 -3.0099E+08 -1.0209E+07  8.9579E+07 -4.5051E+07  1.9363E-02



 n o d a l  s t r a i n  c a l c u l a t i o n s   f o r   t i m e  s t e p      403   ( at time 4.03494E+00 )

 node (global)
          strain       eps-xx      eps-yy      eps-zz      eps-xy      eps-yz      eps-zx       
     269-
 mid.  surface     7.9573E-03  1.1907E-02 -1.8619E-02  6.7157E-03 -4.1931E-04  7.2141E-03
     270-
 mid.  surface     7.6374E-03  1.8709E-02 -3.6322E-02  5.0298E-03  4.7348E-04  8.6695E-03
     284-
 mid.  surface     1.3148E-02  1.3673E-02 -2.6514E-02 -2.7643E-03 -1.3245E-02  4.4533E-04
     285-
 mid.  surface     1.5897E-02  1.3674E-02 -3.0299E-02 -2.6102E-03 -1.3611E-02  5.7936E-04
     286-
 mid.  surface     1.5693E-02  1.5591E-02 -3.2670E-02 -7.6185E-04 -8.3700E-03  2.1616E-03
     287-
 mid.  surface     1.5116E-02  1.5183E-02 -3.0895E-02 -8.3362E-04 -1.1441E-02  2.5673E-03
     288-
 mid.  surface     1.4221E-02  1.4229E-02 -2.9992E-02 -1.2855E-03 -1.3641E-02  3.1080E-03
     289-
 mid.  surface     1.4403E-02  1.4939E-02 -2.8766E-02  6.2899E-04 -2.0450E-02 -1.2365E-03
     290-
 mid.  surface     1.1316E-02  1.4727E-02 -2.6962E-02 -3.3583E-06 -2.1349E-02 -1.5941E-03
     291-
 mid.  surface     1.0972E-02  1.3574E-02 -2.4475E-02 -1.0537E-04 -1.9631E-02 -2.8207E-03
     292-
 mid.  surface     1.1594E-02  1.2116E-02 -2.0426E-02  1.4520E-03 -1.4206E-02 -5.7893E-03
     311-
 mid.  surface     1.3668E-02  1.4502E-02 -2.7110E-02  1.0229E-03 -1.6465E-02 -6.3090E-03
     314-
 mid.  surface     1.2261E-02  1.3732E-02 -2.7008E-02  2.3652E-06 -1.1169E-02 -1.4810E-03
     317-
 mid.  surface     1.2881E-02  1.4501E-02 -2.7258E-02  4.0074E-04 -1.0828E-02 -1.0395E-03
     320-
 mid.  surface     1.3039E-02  1.5368E-02 -2.8509E-02 -3.4162E-04 -9.0261E-03  1.6908E-04
     327-
 mid.  surface     1.1772E-02  1.5055E-02 -2.8206E-02 -2.5699E-04 -1.4768E-02 -5.7760E-03
     328-
 mid.  surface     1.1150E-02  1.5786E-02 -3.0412E-02 -3.3187E-04 -1.2353E-02 -5.4293E-03
     329-
 mid.  surface     1.1416E-02  1.7146E-02 -3.4522E-02  5.1776E-04 -8.4567E-03 -6.2046E-03
     330-
 mid.  surface     1.2274E-02  1.3581E-02 -2.7838E-02  1.8908E-04  6.8586E-03 -6.4631E-04
     331-
 mid.  surface     1.4413E-02  1.4317E-02 -3.1736E-02 -1.2539E-03  8.9767E-03 -3.3451E-03
     332-
 mid.  surface     1.5032E-02  1.4715E-02 -3.3297E-02 -1.1228E-03  6.0404E-03 -2.5315E-03
     333-
 mid.  surface     1.2333E-02  1.4525E-02 -2.8930E-02 -5.5937E-04  4.5041E-03 -1.1183E-03
     510-
 mid.  surface     1.1614E-02  1.2768E-02 -2.7519E-02 -2.1153E-04  7.7504E-03 -4.7820E-04
     511-
 mid.  surface     1.3405E-02  1.3466E-02 -3.0761E-02 -1.7030E-03  1.1156E-02 -4.3424E-03
     647-
 mid.  surface     1.2320E-02  1.6146E-02 -3.5901E-02  3.8954E-04  6.2220E-03  3.6179E-03
     648-
 mid.  surface     1.1706E-02  1.4363E-02 -3.1229E-02 -1.5824E-04  9.8834E-03  2.4745E-03
     705-
 mid.  surface     1.5263E-02  1.3087E-02 -3.1359E-02 -2.1813E-03  9.2853E-03 -2.3033E-03
     706-
 mid.  surface     1.2397E-02  1.3163E-02 -2.7371E-02 -2.2809E-03  9.2731E-03 -2.1185E-04
     841-
 mid.  surface     1.3104E-02  1.3579E-02 -2.8333E-02  7.4774E-04  1.3604E-02  3.4617E-03
     990-
 mid.  surface     1.1748E-02  1.3613E-02 -2.9053E-02 -3.9957E-04  1.1899E-02  2.8934E-03
    1035-
 mid.  surface     1.0799E-02  1.3565E-02 -2.8086E-02  6.7150E-05  1.7983E-02  9.5485E-05
    1036-
 mid.  surface     1.3428E-02  1.4079E-02 -3.0138E-02  2.0365E-04  1.8615E-02  1.0814E-04
    1140-
 mid.  surface     8.3212E-03  1.7811E-02 -3.6658E-02  3.4890E-03  7.4819E-03 -1.1388E-02
    1141-
 mid.  surface     8.5543E-03  1.0710E-02 -1.8615E-02  5.2022E-03  1.3751E-02 -1.3107E-02
    1142-
 mid.  surface     1.2495E-02  1.1097E-02 -2.1832E-02  1.3455E-03  9.5805E-03  2.6067E-03
    1230-
 mid.  surface     1.1297E-02  1.2254E-02 -2.5461E-02  3.1519E-04  1.5935E-02  7.2704E-04



 n o d a l  s t r e s s  c a l c u l a t i o n s   f o r   t i m e  s t e p      526   ( at time 5.16164E+00 )

 node (global)
          stress       sig-xx      sig-yy      sig-zz      sig-xy      sig-yz      sig-zx       plastic
                                                                                                 strain 
     269-
 mid.  surface     2.6973E+08  2.6474E+08 -1.9770E+07  1.0444E+07 -1.5553E+07 -1.0849E+07  6.3251E-03
     270-
 mid.  surface    -7.5638E+08 -7.0378E+08 -1.0015E+09  4.0393E+07 -2.2331E+07 -8.4372E+06  2.9063E-02
     284-
 mid.  surface     1.1877E+08  1.1670E+08 -1.1188E+08 -1.0881E+07 -1.1672E+08  3.2574E+06  3.7542E-02
     285-
 mid.  surface     4.3529E+07  3.4068E+07 -2.0144E+08 -1.1106E+07 -8.0393E+07  4.5710E+06  4.0216E-02
     286-
 mid.  surface    -1.4757E+07 -3.7211E+07 -2.0318E+08  3.7876E+06 -7.4975E+07  2.6452E+06  4.7552E-02
     287-
 mid.  surface     9.3684E+07  7.9123E+07 -1.8987E+08  8.1801E+06 -1.0069E+08 -1.5095E+07  4.2793E-02
     288-
 mid.  surface     6.8055E+07  1.1430E+08 -1.6556E+08 -2.1405E+06 -1.0581E+08 -9.1811E+06  4.4994E-02
     289-
 mid.  surface     7.5295E+07  8.5019E+07 -1.2685E+08 -2.3248E+07 -6.9990E+07  5.8153E+07  3.5795E-02
     290-
 mid.  surface    -3.8033E+06  1.4449E+05 -3.0053E+08 -1.5640E+07 -8.5176E+07  7.9726E+07  3.6467E-02
     291-
 mid.  surface     1.1352E+08  1.1248E+08 -1.9337E+08 -2.7828E+07 -9.5197E+07  4.4580E+07  2.9605E-02
     292-
 mid.  surface     4.2609E+08  4.1867E+08  1.1710E+08 -1.6284E+07 -8.8925E+07 -9.1803E+06  3.6440E-02
     311-
 mid.  surface     7.0340E+07  6.3034E+07 -7.4446E+07 -9.6990E+06 -1.0607E+08  3.1580E+07  4.6568E-02
     314-
 mid.  surface     4.4110E+07  8.3108E+07 -1.3200E+08  5.2075E+06 -1.7805E+08 -2.9041E+07  5.0244E-02
     317-
 mid.  surface     1.1581E+08  1.2385E+08 -1.1523E+08  1.9939E+05 -1.6056E+08 -2.7182E+07  4.3924E-02
     320-
 mid.  surface     6.9161E+07  5.8238E+07 -9.3862E+07 -3.7604E+06 -1.1786E+08 -6.6023E+06  4.6203E-02
     327-
 mid.  surface    -6.3385E+07 -5.0735E+07 -2.7793E+08 -3.3971E+05 -7.2469E+07  5.1934E+07  5.3145E-02
     328-
 mid.  surface    -2.2628E+08 -1.9403E+08 -4.4930E+08 -2.7480E+06 -6.0605E+07  2.5056E+07  5.0447E-02
     329-
 mid.  surface    -4.1967E+08 -3.7278E+08 -6.6641E+08  1.5019E+07 -6.5101E+07 -1.6190E+07  5.8584E-02
     330-
 mid.  surface    -1.1307E+08 -1.0436E+08 -3.6897E+08 -6.8007E+06  8.2733E+07  6.7263E+06  4.0297E-02
     331-
 mid.  surface    -1.9235E+08 -2.0444E+08 -4.7373E+08  1.2954E+06  1.5005E+08  1.4019E+07  4.2382E-02
     332-
 mid.  surface    -2.3478E+08 -2.5168E+08 -4.2140E+08 -3.8209E+05  1.1829E+08  1.7707E+06  4.8046E-02
     333-
 mid.  surface    -1.2086E+08 -1.2254E+08 -2.8563E+08 -8.1070E+06  7.0625E+07 -1.6175E+06  4.3649E-02
     510-
 mid.  surface    -1.5395E+08 -1.2036E+08 -3.8663E+08  8.6416E+06  6.5591E+07  1.7429E+07  4.5266E-02
     511-
 mid.  surface    -1.8704E+08 -1.4269E+08 -4.3494E+08 -4.8787E+05  1.5014E+08  2.9205E+07  4.3572E-02
     647-
 mid.  surface    -5.5898E+08 -5.2214E+08 -8.1020E+08  1.4060E+07  4.7068E+07  1.9768E+06  5.7546E-02
     648-
 mid.  surface    -3.3858E+08 -3.1029E+08 -5.4998E+08  2.7410E+06  5.4771E+07 -4.3534E+07  4.7962E-02
     705-
 mid.  surface    -1.7203E+08 -1.7909E+08 -4.2443E+08 -8.2477E+06  1.0735E+08  1.8740E+06  3.9775E-02
     706-
 mid.  surface    -6.9794E+07 -6.8466E+07 -3.0908E+08 -8.4383E+06  7.1078E+07  5.3431E+06  3.5487E-02
     841-
 mid.  surface    -9.6437E+07 -1.0618E+08 -2.6769E+08 -1.4597E+05  6.0037E+07 -4.6227E+07  4.1203E-02
     990-
 mid.  surface    -1.8357E+08 -1.7586E+08 -3.9764E+08  2.8380E+06  5.2750E+07 -7.0594E+07  4.9035E-02
    1035-
 mid.  surface    -1.5031E+08 -1.4758E+08 -4.5300E+08 -1.3485E+07  8.9277E+07 -7.1581E+07  3.3371E-02
    1036-
 mid.  surface    -1.2704E+08 -1.1463E+08 -3.4397E+08 -1.7015E+07  1.2497E+08 -4.6775E+07  3.2981E-02
    1140-
 mid.  surface    -8.4525E+08 -8.0963E+08 -1.0961E+09  1.9453E+07  7.8652E+07 -1.3954E+07  3.1784E-02
    1141-
 mid.  surface     1.7258E+08  1.4598E+08 -1.0621E+08 -7.6959E+06  1.1615E+08 -1.5558E+07  1.3315E-02
    1142-
 mid.  surface     2.7759E+08  2.5786E+08 -3.5737E+07 -1.6852E+07  7.1917E+07  8.6692E+05  3.5411E-02
    1230-
 mid.  surface    -1.4829E+07 -1.8581E+07 -3.2144E+08 -2.2530E+07  8.6214E+07 -4.6686E+07  2.6995E-02



 n o d a l  s t r a i n  c a l c u l a t i o n s   f o r   t i m e  s t e p      526   ( at time 5.16164E+00 )

 node (global)
          strain       eps-xx      eps-yy      eps-zz      eps-xy      eps-yz      eps-zx       
     269-
 mid.  surface     1.1961E-02  1.6607E-02 -2.5961E-02  7.5909E-03 -5.8976E-04  7.3281E-03
     270-
 mid.  surface     1.1363E-02  2.4928E-02 -4.7847E-02  6.3379E-03  6.3353E-04  8.9244E-03
     284-
 mid.  surface     1.8091E-02  1.8250E-02 -3.5908E-02 -3.4229E-03 -2.0142E-02  5.3618E-04
     285-
 mid.  surface     2.1269E-02  1.8169E-02 -4.0114E-02 -3.1026E-03 -2.0897E-02  6.4679E-04
     286-
 mid.  surface     2.1197E-02  2.0828E-02 -4.3352E-02 -6.8290E-04 -1.4946E-02  2.1805E-03
     287-
 mid.  surface     2.0877E-02  2.0350E-02 -4.1423E-02 -6.6803E-04 -1.9426E-02  2.1275E-03
     288-
 mid.  surface     1.9278E-02  2.0913E-02 -4.0245E-02 -1.0899E-03 -2.2419E-02  2.1808E-03
     289-
 mid.  surface     1.7915E-02  1.9982E-02 -3.7857E-02 -2.5489E-04 -2.5224E-02  2.7175E-04
     290-
 mid.  surface     1.4734E-02  1.9113E-02 -3.5421E-02 -5.4183E-04 -2.5384E-02  8.6056E-04
     291-
 mid.  surface     1.4637E-02  1.7549E-02 -3.2155E-02 -1.0331E-03 -2.3740E-02 -1.7984E-03
     292-
 mid.  surface     1.6050E-02  1.6329E-02 -2.7892E-02  1.2544E-03 -1.7796E-02 -7.0277E-03
     311-
 mid.  surface     1.7354E-02  1.9155E-02 -3.6396E-02  2.2299E-04 -2.0959E-02 -5.7746E-03
     314-
 mid.  surface     1.7062E-02  2.0236E-02 -3.7495E-02  1.1459E-04 -2.0276E-02 -3.2100E-03
     317-
 mid.  surface     1.7969E-02  2.0156E-02 -3.7707E-02  1.2590E-04 -1.8668E-02 -1.8373E-03
     320-
 mid.  surface     1.8082E-02  2.0755E-02 -3.8862E-02 -5.6575E-04 -1.5628E-02  2.8196E-07
     327-
 mid.  surface     1.5085E-02  2.0048E-02 -3.7188E-02 -6.7094E-04 -1.7675E-02 -4.2753E-03
     328-
 mid.  surface     1.4457E-02  2.0894E-02 -3.9677E-02 -5.9568E-04 -1.4832E-02 -4.9873E-03
     329-
 mid.  surface     1.5481E-02  2.2862E-02 -4.5400E-02  1.0297E-03 -1.0676E-02 -7.6759E-03
     330-
 mid.  surface     1.7003E-02  1.8501E-02 -3.8424E-02 -5.0940E-04  1.3388E-02 -7.1846E-04
     331-
 mid.  surface     1.9735E-02  1.8582E-02 -4.2567E-02 -1.5778E-03  1.5659E-02 -3.5028E-03
     332-
 mid.  surface     2.0287E-02  1.9570E-02 -4.4300E-02 -1.3148E-03  1.1336E-02 -2.8735E-03
     333-
 mid.  surface     1.7117E-02  1.9658E-02 -3.9443E-02 -1.0231E-03  9.6706E-03 -1.4189E-03
     510-
 mid.  surface     1.6346E-02  1.8682E-02 -3.8288E-02 -9.5032E-05  1.4977E-02  5.6232E-04
     511-
 mid.  surface     1.8258E-02  1.9466E-02 -4.1471E-02 -1.6902E-03  1.9280E-02 -3.0568E-03
     647-
 mid.  surface     1.6503E-02  2.1632E-02 -4.7328E-02  7.5941E-04  7.6862E-03  4.3646E-03
     648-
 mid.  surface     1.5230E-02  1.9372E-02 -4.0512E-02 -2.3956E-04  1.2411E-02  1.5491E-03
     705-
 mid.  surface     2.0417E-02  1.7276E-02 -4.1489E-02 -2.5113E-03  1.4304E-02 -2.4388E-03
     706-
 mid.  surface     1.7168E-02  1.7449E-02 -3.6889E-02 -2.7731E-03  1.4365E-02 -9.6237E-05
     841-
 mid.  surface     1.7082E-02  1.8251E-02 -3.7702E-02  3.3096E-04  1.7602E-02  2.2888E-03
     990-
 mid.  surface     1.5531E-02  1.8572E-02 -3.7881E-02 -5.4156E-04  1.4416E-02  7.1047E-04
    1035-
 mid.  surface     1.4704E-02  1.8013E-02 -3.6410E-02 -2.4758E-04  2.1404E-02 -2.1572E-03
    1036-
 mid.  surface     1.7201E-02  1.9125E-02 -3.9227E-02 -4.5382E-04  2.3519E-02 -1.2842E-03
    1140-
 mid.  surface     1.2232E-02  2.3614E-02 -4.8931E-02  3.9369E-03  9.9779E-03 -1.2693E-02
    1141-
 mid.  surface     1.2819E-02  1.4776E-02 -2.6616E-02  5.3204E-03  1.7649E-02 -1.4469E-02
    1142-
 mid.  surface     1.7077E-02  1.4962E-02 -2.9808E-02  1.0146E-03  1.1562E-02  3.4437E-03
    1230-
 mid.  surface     1.5186E-02  1.6116E-02 -3.3125E-02 -4.4482E-04  1.9316E-02 -3.6818E-04



 n o d a l  s t r e s s  c a l c u l a t i o n s   f o r   t i m e  s t e p      580   ( at time 6.09671E+00 )

 node (global)
          stress       sig-xx      sig-yy      sig-zz      sig-xy      sig-yz      sig-zx       plastic
                                                                                                 strain 
     269-
 mid.  surface     3.2557E+08  3.5890E+08  2.2092E+07  5.1891E+06 -8.5920E+06  6.1692E+07  1.2265E-02
     270-
 mid.  surface    -8.8224E+08 -8.0083E+08 -1.1629E+09  3.4034E+07 -1.4039E+07  5.5608E+07  3.7688E-02
     284-
 mid.  surface     1.5500E+08  1.2833E+08 -9.7714E+07 -1.2671E+07 -1.2085E+08  6.1778E+06  4.7476E-02
     285-
 mid.  surface     6.4275E+07  3.6983E+07 -1.8861E+08 -9.7080E+06 -1.2140E+08  5.0400E+06  5.0133E-02
     286-
 mid.  surface    -3.3962E+06 -2.7592E+07 -2.1930E+08 -3.7391E+06 -1.0420E+08  5.6736E+06  5.9856E-02
     287-
 mid.  surface     7.4269E+07  6.7543E+07 -1.5212E+08 -1.7582E+06 -9.6122E+07  2.1725E+06  5.2598E-02
     288-
 mid.  surface     1.0176E+08  9.2410E+07 -1.4531E+08 -1.2128E+07 -1.2161E+08 -3.7382E+06  5.3342E-02
     289-
 mid.  surface     1.0075E+08  8.7170E+07 -1.3016E+08 -1.9323E+07 -1.0752E+08  1.2764E+07  4.5502E-02
     290-
 mid.  surface     5.5722E+05  2.9617E+06 -2.6103E+08 -2.3500E+07 -9.0636E+07  1.3551E+07  4.4621E-02
     291-
 mid.  surface     1.1248E+08  1.2875E+08 -1.5360E+08 -3.3360E+07 -8.4380E+07  7.3063E+06  3.7686E-02
     292-
 mid.  surface     4.8227E+08  4.9473E+08  2.2070E+08 -1.8729E+07 -8.1063E+07 -1.4710E+07  4.4818E-02
     311-
 mid.  surface     4.6425E+07  4.3457E+07 -1.4451E+08 -1.7011E+07 -1.2958E+08 -5.4439E+06  5.7481E-02
     314-
 mid.  surface     5.7999E+07  4.8266E+07 -1.5987E+08 -1.2117E+07 -1.6072E+08 -1.7385E+07  5.9455E-02
     317-
 mid.  surface     1.0818E+08  1.0409E+08 -8.6286E+07 -6.7593E+06 -1.4463E+08 -9.6288E+06  5.4518E-02
     320-
 mid.  surface     1.0308E+08  8.2992E+07 -1.0036E+08 -1.0892E+07 -1.2432E+08  2.4978E+06  5.8835E-02
     327-
 mid.  surface    -1.0185E+08 -8.4124E+07 -3.2092E+08 -1.2122E+07 -9.6132E+07 -5.4240E+06  6.2449E-02
     328-
 mid.  surface    -2.6510E+08 -2.2919E+08 -4.9230E+08 -6.2443E+06 -7.2264E+07 -4.1354E+06  5.9380E-02
     329-
 mid.  surface    -4.8581E+08 -4.3742E+08 -7.1563E+08  1.4261E+07 -6.5083E+07 -2.1954E+07  6.8845E-02
     330-
 mid.  surface    -1.3278E+08 -1.2673E+08 -3.4139E+08 -7.6505E+06  7.6651E+07 -2.7103E+06  5.0254E-02
     331-
 mid.  surface    -2.3041E+08 -2.3048E+08 -4.5136E+08 -1.4827E+06  1.3149E+08  3.5980E+06  5.2513E-02
     332-
 mid.  surface    -2.7808E+08 -2.9796E+08 -4.9724E+08 -4.5282E+06  1.1066E+08 -5.2448E+06  6.0333E-02
     333-
 mid.  surface    -1.3059E+08 -1.4227E+08 -3.3073E+08 -1.2017E+07  8.8410E+07 -3.1143E+06  5.5646E-02
     510-
 mid.  surface    -1.6708E+08 -1.7076E+08 -4.1015E+08 -1.0417E+07  8.6777E+07  7.7670E+06  5.4187E-02
     511-
 mid.  surface    -1.7338E+08 -1.8339E+08 -4.4358E+08 -1.1067E+07  1.3377E+08  1.6514E+07  5.1932E-02
     647-
 mid.  surface    -6.6039E+08 -6.2620E+08 -9.0394E+08  1.6746E+07  4.2125E+07 -6.6454E+05  6.7503E-02
     648-
 mid.  surface    -3.9264E+08 -3.5363E+08 -6.2865E+08  2.3188E+06  5.7817E+07 -1.1806E+07  5.6396E-02
     705-
 mid.  surface    -2.1586E+08 -2.3226E+08 -4.7538E+08 -6.4701E+06  1.1292E+08 -2.1914E+06  4.9259E-02
     706-
 mid.  surface    -9.3267E+07 -1.0711E+08 -3.3600E+08 -8.8966E+06  1.1128E+08  4.9917E+06  4.5085E-02
     841-
 mid.  surface    -1.3102E+08 -1.2328E+08 -3.4419E+08 -1.0097E+07  9.1878E+07 -9.3284E+06  5.1660E-02
     990-
 mid.  surface    -2.2441E+08 -1.9882E+08 -4.6027E+08 -2.7303E+06  7.8126E+07 -1.7660E+07  5.7742E-02
    1035-
 mid.  surface    -1.6013E+08 -1.5656E+08 -4.3337E+08 -1.5794E+07  1.0758E+08 -4.8708E+06  4.1428E-02
    1036-
 mid.  surface    -1.2493E+08 -1.3707E+08 -3.7251E+08 -1.3510E+07  1.2934E+08  2.9618E+06  4.2660E-02
    1140-
 mid.  surface    -1.0078E+09 -9.5609E+08 -1.2798E+09  1.9002E+07  6.4914E+07 -8.1727E+07  4.0811E-02
    1141-
 mid.  surface     2.0752E+08  2.1188E+08 -8.2315E+07 -7.0471E+06  9.6679E+07 -8.4230E+07  1.9810E-02
    1142-
 mid.  surface     3.0693E+08  3.0574E+08  2.9664E+07 -1.6138E+07  5.7111E+07  5.6087E+06  4.3498E-02
    1230-
 mid.  surface    -3.3001E+07 -1.5352E+07 -3.1121E+08 -2.6724E+07  8.1500E+07 -7.7665E+06  3.4729E-02



 n o d a l  s t r a i n  c a l c u l a t i o n s   f o r   t i m e  s t e p      580   ( at time 6.09671E+00 )

 node (global)
          strain       eps-xx      eps-yy      eps-zz      eps-xy      eps-yz      eps-zx       
     269-
 mid.  surface     1.4550E-02  2.1221E-02 -3.2244E-02  8.1140E-03 -6.3133E-04  9.1085E-03
     270-
 mid.  surface     1.3714E-02  3.0489E-02 -5.7572E-02  7.0205E-03  8.8874E-04  1.0817E-02
     284-
 mid.  surface     2.2576E-02  2.1880E-02 -4.3750E-02 -4.0553E-03 -2.6414E-02  6.9884E-04
     285-
 mid.  surface     2.5843E-02  2.1339E-02 -4.7681E-02 -3.4735E-03 -2.8161E-02  7.6992E-04
     286-
 mid.  surface     2.5476E-02  2.5147E-02 -5.1927E-02 -8.5519E-04 -2.0683E-02  2.2673E-03
     287-
 mid.  surface     2.4625E-02  2.4175E-02 -4.8956E-02 -8.1830E-04 -2.4922E-02  2.0887E-03
     288-
 mid.  surface     2.2592E-02  2.4366E-02 -4.6862E-02 -1.5582E-03 -2.7878E-02  1.9846E-03
     289-
 mid.  surface     2.1511E-02  2.3887E-02 -4.5244E-02 -5.6108E-04 -2.9011E-02  7.5891E-04
     290-
 mid.  surface     1.8083E-02  2.3069E-02 -4.2506E-02 -1.1041E-03 -2.8750E-02  8.8011E-04
     291-
 mid.  surface     1.7994E-02  2.1709E-02 -3.9413E-02 -1.7951E-03 -2.6589E-02 -1.7185E-03
     292-
 mid.  surface     2.0162E-02  2.0528E-02 -3.5086E-02  9.2331E-04 -2.0315E-02 -7.7270E-03
     311-
 mid.  surface     2.0801E-02  2.3548E-02 -4.4783E-02 -3.0705E-04 -2.4664E-02 -5.7301E-03
     314-
 mid.  surface     2.0313E-02  2.4066E-02 -4.4824E-02 -5.2718E-04 -2.5279E-02 -3.7026E-03
     317-
 mid.  surface     2.1767E-02  2.4181E-02 -4.5541E-02 -2.0588E-04 -2.4043E-02 -2.1505E-03
     320-
 mid.  surface     2.2278E-02  2.5340E-02 -4.7422E-02 -9.7914E-04 -2.1052E-02  1.6390E-05
     327-
 mid.  surface     1.8356E-02  2.4535E-02 -4.5496E-02 -1.2012E-03 -2.0858E-02 -4.5923E-03
     328-
 mid.  surface     1.7543E-02  2.5362E-02 -4.7795E-02 -7.2744E-04 -1.7207E-02 -5.0557E-03
     329-
 mid.  surface     1.9268E-02  2.7639E-02 -5.4823E-02  1.2406E-03 -1.2451E-02 -8.4989E-03
     330-
 mid.  surface     2.0807E-02  2.2444E-02 -4.6256E-02 -8.2216E-04  1.7857E-02 -6.7137E-04
     331-
 mid.  surface     2.3595E-02  2.2192E-02 -5.0236E-02 -1.7962E-03  2.0090E-02 -3.5018E-03
     332-
 mid.  surface     2.4413E-02  2.3378E-02 -5.3023E-02 -1.6241E-03  1.5502E-02 -3.1292E-03
     333-
 mid.  surface     2.1130E-02  2.3863E-02 -4.8035E-02 -1.5183E-03  1.4221E-02 -1.4797E-03
     510-
 mid.  surface     1.9711E-02  2.2255E-02 -4.5655E-02 -7.7642E-04  1.9637E-02  6.7875E-04
     511-
 mid.  surface     2.1741E-02  2.2528E-02 -4.8193E-02 -2.2422E-03  2.3555E-02 -3.0411E-03
     647-
 mid.  surface     2.0351E-02  2.6095E-02 -5.7076E-02  1.0143E-03  8.8578E-03  4.5807E-03
     648-
 mid.  surface     1.8116E-02  2.3688E-02 -4.8563E-02 -1.8637E-04  1.4520E-02  1.3232E-03
     705-
 mid.  surface     2.4671E-02  2.0033E-02 -4.9204E-02 -2.8534E-03  1.8726E-02 -2.6805E-03
     706-
 mid.  surface     2.1360E-02  2.0611E-02 -4.4685E-02 -3.3139E-03  1.9679E-02  5.4928E-05
     841-
 mid.  surface     2.0537E-02  2.2629E-02 -4.6154E-02 -1.2446E-04  2.1112E-02  1.8144E-03
     990-
 mid.  surface     1.8716E-02  2.2990E-02 -4.6095E-02 -7.7341E-04  1.7241E-02  5.5019E-04
    1035-
 mid.  surface     1.8062E-02  2.1671E-02 -4.3432E-02 -5.9956E-04  2.4355E-02 -1.9875E-03
    1036-
 mid.  surface     2.0833E-02  2.2570E-02 -4.6544E-02 -7.0994E-04  2.6999E-02 -1.4944E-03
    1140-
 mid.  surface     1.5066E-02  2.8594E-02 -5.9093E-02  4.1616E-03  1.1948E-02 -1.5555E-02
    1141-
 mid.  surface     1.5917E-02  1.8861E-02 -3.3216E-02  5.4811E-03  2.0350E-02 -1.7379E-02
    1142-
 mid.  surface     2.1251E-02  1.8937E-02 -3.7296E-02  7.4118E-04  1.2606E-02  3.8635E-03
    1230-
 mid.  surface     1.8391E-02  2.0060E-02 -4.0307E-02 -1.1043E-03  2.1554E-02 -4.9904E-04



 n o d a l  s t r e s s  c a l c u l a t i o n s   f o r   t i m e  s t e p      630   ( at time 7.02502E+00 )

 node (global)
          stress       sig-xx      sig-yy      sig-zz      sig-xy      sig-yz      sig-zx       plastic
                                                                                                 strain 
     269-
 mid.  surface    -1.4724E+09 -1.4197E+09 -4.3220E+08  1.4896E+07  3.7896E+07  2.0799E+07 -3.4022E-03
     270-
 mid.  surface    -2.8123E+09 -2.7681E+09 -1.7738E+09  1.4999E+07  4.2126E+07  1.0211E+08  2.4876E-02
     284-
 mid.  surface     1.8420E+08  1.5957E+08 -9.9124E+07 -9.9160E+06 -1.0942E+08  3.4057E+06  5.8352E-02
     285-
 mid.  surface     7.3349E+07  4.6150E+07 -2.1369E+08 -8.4271E+06 -8.6665E+07  4.3686E+06  6.1324E-02
     286-
 mid.  surface     1.2718E+07 -5.5020E+06 -2.3715E+08 -2.9391E+06 -7.6812E+07  9.2734E+05  7.1611E-02
     287-
 mid.  surface     9.1792E+07  7.8197E+07 -1.8273E+08 -4.4387E+06 -8.9771E+07 -1.5338E+06  6.2773E-02
     288-
 mid.  surface     1.4198E+08  1.5293E+08 -1.4572E+08 -1.1131E+07 -9.0387E+07  2.3627E+05  6.1805E-02
     289-
 mid.  surface     7.8925E+07  7.9315E+07 -1.8086E+08 -1.4003E+07 -6.0363E+07  3.3479E+07  5.5562E-02
     290-
 mid.  surface    -1.9824E+07 -1.5889E+07 -3.2212E+08 -1.2113E+07 -6.2124E+07  3.0530E+07  5.2649E-02
     291-
 mid.  surface     7.4937E+07  1.0892E+08 -2.2049E+08 -2.0477E+07 -8.8863E+07  2.2745E+07  4.4358E-02
     292-
 mid.  surface    -4.5375E+08 -4.0013E+08 -7.8571E+07 -9.8259E+06 -2.8137E+07  1.0692E+07  3.9697E-02
     311-
 mid.  surface     3.3376E+07  3.3913E+07 -1.9765E+08 -5.5540E+06 -6.8778E+07  1.0433E+07  6.8446E-02
     314-
 mid.  surface     7.4601E+07  9.0571E+07 -1.8691E+08 -8.3929E+06 -1.1792E+08 -1.6455E+07  6.8991E-02
     317-
 mid.  surface     1.3296E+08  1.2854E+08 -1.2469E+08 -7.9310E+06 -1.1462E+08 -1.1739E+07  6.5066E-02
     320-
 mid.  surface     1.3468E+08  1.2038E+08 -1.0672E+08 -5.4028E+06 -9.9758E+07 -5.8606E+06  7.0641E-02
     327-
 mid.  surface    -8.6617E+07 -7.9375E+07 -3.4864E+08 -3.7440E+06 -4.9405E+07  8.2895E+06  7.1672E-02
     328-
 mid.  surface    -3.2272E+08 -2.6346E+08 -5.7121E+08 -1.2090E+07 -6.3967E+07 -1.6069E+07  6.8155E-02
     329-
 mid.  surface    -1.5200E+09 -1.4513E+09 -1.1286E+09 -5.5700E+06  3.6359E+06  2.2501E+07  6.6422E-02
     330-
 mid.  surface    -1.1787E+08 -1.1893E+08 -3.8223E+08 -5.7738E+06  7.1469E+07  9.4022E+06  6.0523E-02
     331-
 mid.  surface    -2.2412E+08 -2.3421E+08 -5.0202E+08 -4.9293E+06  1.0185E+08  6.0710E+06  6.2640E-02
     332-
 mid.  surface    -2.8268E+08 -2.9374E+08 -5.3412E+08 -5.7157E+06  9.3293E+07 -1.5904E+06  7.2204E-02
     333-
 mid.  surface    -1.0320E+08 -1.0412E+08 -3.4513E+08 -5.5249E+06  6.8166E+07  3.3165E+05  6.6615E-02
     510-
 mid.  surface    -1.4102E+08 -1.2153E+08 -4.1756E+08 -1.6682E+06  7.0541E+07  1.0289E+07  6.3463E-02
     511-
 mid.  surface    -1.4233E+08 -1.2756E+08 -4.3421E+08 -7.0340E+06  1.0966E+08  9.9937E+06  6.0937E-02
     647-
 mid.  surface     4.1052E+08  3.6380E+08 -6.0337E+08  2.8133E+07  5.5427E+06 -4.1768E+07  9.1333E-02
     648-
 mid.  surface    -3.6425E+08 -3.7018E+08 -6.3631E+08  1.5997E+07  2.3892E+07 -1.3414E+07  6.5694E-02
     705-
 mid.  surface    -2.2203E+08 -2.3108E+08 -5.0670E+08 -6.7431E+06  1.0623E+08  1.8209E+06  6.0515E-02
     706-
 mid.  surface    -6.6795E+07 -6.6294E+07 -3.4235E+08 -7.5560E+06  8.3337E+07  7.2594E+06  5.5161E-02
     841-
 mid.  surface    -1.2732E+08 -1.2251E+08 -3.6601E+08  9.7309E+04  3.8536E+07 -2.0032E+07  6.2492E-02
     990-
 mid.  surface    -1.9644E+08 -1.8687E+08 -4.6250E+08  2.9793E+06  3.3061E+07 -2.0163E+07  6.6831E-02
    1035-
 mid.  surface    -1.7012E+08 -1.6607E+08 -4.7757E+08 -6.7246E+06  6.7255E+07 -2.2761E+07  4.9343E-02
    1036-
 mid.  surface    -1.3935E+08 -1.3618E+08 -4.0632E+08 -9.1152E+06  7.3884E+07 -2.3269E+07  5.2867E-02
    1140-
 mid.  surface     1.1176E+09  1.0440E+09 -6.2753E+08  2.1660E+07 -4.2637E+07 -5.8927E+07  7.9076E-02
    1141-
 mid.  surface     2.4053E+09  2.3050E+09  6.6336E+08  4.4260E+06 -2.0403E+07 -1.4324E+08  5.5570E-02
    1142-
 mid.  surface     1.4752E+09  1.3863E+09  4.1973E+08 -6.4484E+05  1.0318E+07 -6.1062E+07  6.4355E-02
    1230-
 mid.  surface     3.8278E+07  6.8344E+05 -2.9279E+08 -8.5344E+06  6.0364E+07  3.1701E+06  4.1791E-02



 n o d a l  s t r a i n  c a l c u l a t i o n s   f o r   t i m e  s t e p      630   ( at time 7.02502E+00 )

 node (global)
          strain       eps-xx      eps-yy      eps-zz      eps-xy      eps-yz      eps-zx       
     269-
 mid.  surface     2.2657E-02  2.5472E-02 -4.0204E-02  8.9446E-03 -1.3999E-03  5.9742E-03
     270-
 mid.  surface     2.1861E-02  3.5495E-02 -6.8602E-02  8.0633E-03  6.7032E-04  1.0109E-02
     284-
 mid.  surface     2.6930E-02  2.6309E-02 -5.2290E-02 -4.4440E-03 -3.0873E-02  7.3554E-04
     285-
 mid.  surface     3.0751E-02  2.5518E-02 -5.6794E-02 -3.8313E-03 -3.3150E-02  7.6325E-04
     286-
 mid.  surface     3.0263E-02  3.0285E-02 -6.1753E-02 -8.5149E-04 -2.4968E-02  2.1786E-03
     287-
 mid.  surface     2.9028E-02  2.8228E-02 -5.7422E-02 -1.0657E-03 -2.9761E-02  1.9857E-03
     288-
 mid.  surface     2.6590E-02  2.9227E-02 -5.5252E-02 -1.8063E-03 -3.2255E-02  2.0319E-03
     289-
 mid.  surface     2.5339E-02  2.8612E-02 -5.4190E-02 -9.4687E-04 -3.0987E-02  2.2935E-03
     290-
 mid.  surface     2.1844E-02  2.7124E-02 -5.0809E-02 -1.4425E-03 -3.1101E-02  2.2189E-03
     291-
 mid.  surface     2.0818E-02  2.5405E-02 -4.6532E-02 -2.4013E-03 -2.9540E-02 -9.9270E-04
     292-
 mid.  surface     2.5024E-02  2.4532E-02 -4.2298E-02  8.8647E-04 -2.2479E-02 -8.8926E-03
     311-
 mid.  surface     2.4353E-02  2.8443E-02 -5.3604E-02 -6.5822E-04 -2.6233E-02 -5.0979E-03
     314-
 mid.  surface     2.3903E-02  2.9343E-02 -5.3563E-02 -1.0120E-03 -2.9444E-02 -4.3706E-03
     317-
 mid.  surface     2.5871E-02  2.8794E-02 -5.4232E-02 -6.7728E-04 -2.8241E-02 -2.6167E-03
     320-
 mid.  surface     2.6700E-02  3.0643E-02 -5.6887E-02 -9.6702E-04 -2.5105E-02 -3.4503E-04
     327-
 mid.  surface     2.1945E-02  2.9225E-02 -5.3821E-02 -1.3906E-03 -2.2140E-02 -4.0835E-03
     328-
 mid.  surface     2.0097E-02  3.0318E-02 -5.6118E-02 -1.1191E-03 -1.8760E-02 -5.2645E-03
     329-
 mid.  surface     2.3905E-02  3.2868E-02 -6.4616E-02  1.3939E-03 -1.2947E-02 -9.2350E-03
     330-
 mid.  surface     2.5037E-02  2.6729E-02 -5.4878E-02 -1.2364E-03  2.2003E-02 -1.6038E-04
     331-
 mid.  surface     2.8080E-02  2.5982E-02 -5.8743E-02 -2.1995E-03  2.3709E-02 -3.5372E-03
     332-
 mid.  surface     2.9141E-02  2.8340E-02 -6.2897E-02 -1.9089E-03  1.9134E-02 -3.2029E-03
     333-
 mid.  surface     2.5510E-02  2.9065E-02 -5.7400E-02 -1.6243E-03  1.8027E-02 -1.3195E-03
     510-
 mid.  surface     2.3524E-02  2.7549E-02 -5.4461E-02 -1.0136E-03  2.3375E-02  1.1216E-03
     511-
 mid.  surface     2.5866E-02  2.7403E-02 -5.6751E-02 -2.3832E-03  2.7707E-02 -2.8542E-03
     647-
 mid.  surface     2.3681E-02  3.1474E-02 -6.7393E-02  1.4722E-03  9.8935E-03  4.7541E-03
     648-
 mid.  surface     2.2109E-02  2.8137E-02 -5.6997E-02  1.1007E-04  1.5124E-02  9.2429E-04
     705-
 mid.  surface     2.9488E-02  2.4181E-02 -5.8345E-02 -3.2784E-03  2.2134E-02 -2.7767E-03
     706-
 mid.  surface     2.5597E-02  2.4953E-02 -5.3005E-02 -3.7142E-03  2.3314E-02  4.5921E-04
     841-
 mid.  surface     2.4293E-02  2.7578E-02 -5.4955E-02 -2.6855E-04  2.2497E-02  6.5241E-04
     990-
 mid.  surface     2.2422E-02  2.7665E-02 -5.4308E-02 -8.0593E-04  1.8161E-02 -3.4265E-04
    1035-
 mid.  surface     2.1932E-02  2.5698E-02 -5.1643E-02 -7.9529E-04  2.6252E-02 -3.0161E-03
    1036-
 mid.  surface     2.4787E-02  2.7258E-02 -5.5422E-02 -9.1790E-04  2.9259E-02 -2.7880E-03
    1140-
 mid.  surface     1.7718E-02  3.4785E-02 -7.0873E-02  4.2395E-03  1.3189E-02 -1.3890E-02
    1141-
 mid.  surface     1.8775E-02  2.3108E-02 -4.2007E-02  4.8247E-03  2.2724E-02 -1.8088E-02
    1142-
 mid.  surface     2.4995E-02  2.2497E-02 -4.4886E-02  3.6531E-04  1.3803E-02  3.4140E-03
    1230-
 mid.  surface     2.2839E-02  2.3299E-02 -4.7507E-02 -1.3678E-03  2.3143E-02 -7.0181E-04



 n o d a l  s t r e s s  c a l c u l a t i o n s   f o r   t i m e  s t e p      668   ( at time 8.12849E+00 )

 node (global)
          stress       sig-xx      sig-yy      sig-zz      sig-xy      sig-yz      sig-zx       plastic
                                                                                                 strain 
     269-
 mid.  surface    -1.7001E+09 -1.7540E+09 -7.3231E+08 -3.8473E+06  1.0055E+08  2.0622E+06 -3.2504E-02
     270-
 mid.  surface    -3.2053E+09 -3.2717E+09 -2.2683E+09  1.5639E+07  1.0110E+08  3.2831E+07 -2.0554E-03
     284-
 mid.  surface     1.5164E+08  1.3776E+08 -6.0920E+07 -5.4014E+06 -1.3236E+08  5.6337E+06  7.2681E-02
     285-
 mid.  surface     6.8147E+07  6.0858E+07 -1.3167E+08 -1.5342E+06 -1.1375E+08  3.2165E+06  7.5296E-02
     286-
 mid.  surface     1.4948E+07  1.1344E+07 -1.6182E+08  2.3133E+06 -1.2031E+08 -5.0544E+06  8.8274E-02
     287-
 mid.  surface     1.0306E+08  8.4527E+07 -1.0541E+08  3.0064E+06 -1.2328E+08 -9.8003E+06  7.6869E-02
     288-
 mid.  surface     1.4211E+08  1.4106E+08 -4.7450E+07  8.9766E+04 -9.6175E+07 -3.5578E+06  7.5190E-02
     289-
 mid.  surface     5.9218E+07  3.8294E+07 -1.2493E+08 -1.6378E+07 -8.7092E+07  1.0879E+07  7.0046E-02
     290-
 mid.  surface    -5.2421E+07 -5.4123E+07 -2.7354E+08 -1.1229E+07 -9.9305E+07  1.5698E+07  6.4918E-02
     291-
 mid.  surface     5.9937E+07  6.2795E+07 -1.8535E+08 -4.0346E+07 -1.1031E+08  1.1025E+07  5.4231E-02
     292-
 mid.  surface    -5.2255E+08 -5.3898E+08 -1.5030E+08  1.5810E+06 -2.3568E+07 -3.0762E+07  3.1482E-02
     311-
 mid.  surface    -1.5957E+07 -2.2890E+07 -2.2937E+08 -7.9006E+06 -1.5880E+08  1.5675E+06  8.1679E-02
     314-
 mid.  surface     1.0762E+07  2.8769E+07 -1.8201E+08 -7.7476E+06 -1.8271E+08 -3.5663E+06  8.2631E-02
     317-
 mid.  surface     9.3501E+07  8.4220E+07 -1.2290E+08 -1.3241E+07 -1.7384E+08 -3.0767E+05  7.9813E-02
     320-
 mid.  surface     1.1192E+08  1.0175E+08 -7.7287E+07 -5.5152E+06 -1.4550E+08  1.0371E+06  8.8007E-02
     327-
 mid.  surface    -1.0602E+08 -1.1436E+08 -3.4694E+08  4.7763E+06 -1.3867E+08 -1.4672E+06  8.2406E-02
     328-
 mid.  surface    -3.6888E+08 -3.5122E+08 -6.1723E+08 -1.8593E+07 -1.0907E+08  4.9394E+05  7.8444E-02
     329-
 mid.  surface    -1.7468E+09 -1.7417E+09 -1.3711E+09  2.2780E+07 -2.2988E+07 -2.0094E+07  6.0593E-02
     330-
 mid.  surface    -2.0622E+08 -2.1754E+08 -4.3099E+08 -1.3536E+07  9.6061E+07 -1.6087E+06  7.4556E-02
     331-
 mid.  surface    -2.9483E+08 -3.1237E+08 -5.0467E+08 -3.8183E+05  1.4002E+08  9.5681E+06  7.6893E-02
     332-
 mid.  surface    -3.6594E+08 -3.6942E+08 -5.4972E+08 -3.6334E+06  1.2977E+08  4.7698E+05  8.8874E-02
     333-
 mid.  surface    -1.7512E+08 -1.8386E+08 -3.6825E+08 -7.8255E+06  1.0864E+08 -1.1176E+06  8.3020E-02
     510-
 mid.  surface    -2.1345E+08 -1.9729E+08 -4.4869E+08 -2.4821E+06  8.1155E+07 -1.5833E+07  7.5912E-02
     511-
 mid.  surface    -2.0180E+08 -1.9986E+08 -3.8998E+08  3.8532E+06  1.5531E+08  1.6795E+07  7.4872E-02
     647-
 mid.  surface     4.4857E+08  5.1155E+08 -5.0820E+08  2.8552E+07  1.4574E+07  1.8813E+07  1.2304E-01
     648-
 mid.  surface    -4.3754E+08 -4.3054E+08 -7.0751E+08 -9.9271E+05  9.9814E+07 -1.5472E+07  7.5681E-02
     705-
 mid.  surface    -2.9684E+08 -2.9578E+08 -5.0187E+08 -6.0670E+06  1.4382E+08  4.1630E+06  7.4149E-02
     706-
 mid.  surface    -1.4550E+08 -1.5008E+08 -3.5807E+08 -7.8252E+06  1.2798E+08  5.2750E+06  6.9173E-02
     841-
 mid.  surface    -1.7593E+08 -1.7731E+08 -4.2468E+08 -3.0197E+06  8.8709E+07 -3.0661E+07  7.4561E-02
     990-
 mid.  surface    -2.0856E+08 -2.0751E+08 -4.9490E+08  1.1426E+07  9.5292E+07 -3.1067E+07  7.6127E-02
    1035-
 mid.  surface    -2.0851E+08 -2.0974E+08 -4.6033E+08 -8.0002E+06  1.2735E+08  1.4839E+06  6.0943E-02
    1036-
 mid.  surface    -1.8454E+08 -2.0118E+08 -3.8906E+08 -1.3129E+07  1.4123E+08  7.8890E+06  6.7416E-02
    1140-
 mid.  surface     1.2781E+09  1.3715E+09 -4.0296E+08 -2.1802E+05 -3.5569E+07 -1.4982E+07  1.2781E-01
    1141-
 mid.  surface     2.7020E+09  2.7995E+09  1.0504E+09 -2.4257E+07 -3.5361E+07 -4.8985E+07  1.0293E-01
    1142-
 mid.  surface     1.6503E+09  1.6821E+09  6.8923E+08 -3.8169E+06  1.6317E+07  7.9253E+06  9.3447E-02
    1230-
 mid.  surface     9.7806E+06 -7.0697E+06 -2.7541E+08 -3.3186E+07  1.0536E+08 -3.8690E+06  5.0876E-02



 n o d a l  s t r a i n  c a l c u l a t i o n s   f o r   t i m e  s t e p      668   ( at time 8.12849E+00 )

 node (global)
          strain       eps-xx      eps-yy      eps-zz      eps-xy      eps-yz      eps-zx       
     269-
 mid.  surface     2.7011E-02  3.0783E-02 -4.7940E-02  9.5245E-03 -1.8823E-03  8.3996E-03
     270-
 mid.  surface     2.6068E-02  4.0785E-02 -7.8691E-02  8.7228E-03  8.9167E-04  1.3453E-02
     284-
 mid.  surface     3.2399E-02  3.1725E-02 -6.3303E-02 -4.8192E-03 -3.9281E-02  9.1219E-04
     285-
 mid.  surface     3.5987E-02  3.0040E-02 -6.6085E-02 -3.7955E-03 -4.3733E-02  8.6501E-04
     286-
 mid.  surface     3.5353E-02  3.6887E-02 -7.2974E-02 -7.0564E-04 -3.3619E-02  1.9909E-03
     287-
 mid.  surface     3.4007E-02  3.3300E-02 -6.7005E-02 -9.8038E-04 -3.8326E-02  1.4366E-03
     288-
 mid.  surface     3.1346E-02  3.4618E-02 -6.4987E-02 -1.9044E-03 -3.9501E-02  1.4506E-03
     289-
 mid.  surface     2.9854E-02  3.4211E-02 -6.4332E-02 -1.4256E-03 -3.5448E-02  2.4049E-03
     290-
 mid.  surface     2.6232E-02  3.2283E-02 -6.0467E-02 -1.9605E-03 -3.5569E-02  2.6683E-03
     291-
 mid.  surface     2.4467E-02  2.9703E-02 -5.4607E-02 -3.6193E-03 -3.3975E-02 -7.3772E-04
     292-
 mid.  surface     2.9683E-02  2.9298E-02 -5.0056E-02  1.3753E-03 -2.5960E-02 -9.8808E-03
     311-
 mid.  surface     2.8480E-02  3.4033E-02 -6.4003E-02 -1.2325E-03 -3.1459E-02 -4.8849E-03
     314-
 mid.  surface     2.8457E-02  3.5407E-02 -6.4796E-02 -1.7533E-03 -3.6814E-02 -4.6224E-03
     317-
 mid.  surface     3.0964E-02  3.4623E-02 -6.5591E-02 -1.2688E-03 -3.5997E-02 -2.7424E-03
     320-
 mid.  surface     3.2058E-02  3.7769E-02 -6.9492E-02 -1.2334E-03 -3.2752E-02 -2.7327E-04
     327-
 mid.  surface     2.6003E-02  3.4224E-02 -6.3136E-02 -1.5066E-03 -2.6479E-02 -3.8609E-03
     328-
 mid.  surface     2.3520E-02  3.5078E-02 -6.5160E-02 -1.7899E-03 -2.2074E-02 -5.1570E-03
     329-
 mid.  surface     2.8312E-02  3.8341E-02 -7.5121E-02  2.1592E-03 -1.5430E-02 -9.8979E-03
     330-
 mid.  surface     3.0090E-02  3.1529E-02 -6.5893E-02 -1.9943E-03  2.9250E-02 -2.4107E-04
     331-
 mid.  surface     3.2900E-02  2.9817E-02 -6.8116E-02 -2.4657E-03  2.9471E-02 -3.1752E-03
     332-
 mid.  surface     3.4053E-02  3.3613E-02 -7.3916E-02 -2.1973E-03  2.4933E-02 -3.1468E-03
     333-
 mid.  surface     3.0763E-02  3.5157E-02 -6.9626E-02 -2.1556E-03  2.5196E-02 -1.3807E-03
     510-
 mid.  surface     2.8169E-02  3.3016E-02 -6.5469E-02 -1.5650E-03  2.9686E-02  8.4069E-04
     511-
 mid.  surface     3.0602E-02  3.1885E-02 -6.6401E-02 -2.4446E-03  3.3383E-02 -2.1217E-03
     647-
 mid.  surface     2.7606E-02  3.6863E-02 -7.8674E-02  1.9963E-03  1.1826E-02  5.0948E-03
     648-
 mid.  surface     2.5755E-02  3.2534E-02 -6.6040E-02 -1.8106E-04  1.8369E-02  5.8101E-04
     705-
 mid.  surface     3.4452E-02  2.7607E-02 -6.7370E-02 -3.6681E-03  2.7674E-02 -2.7145E-03
     706-
 mid.  surface     3.0870E-02  2.9153E-02 -6.3379E-02 -4.3831E-03  3.0777E-02  5.5753E-04
     841-
 mid.  surface     2.8328E-02  3.3176E-02 -6.5387E-02 -5.4609E-04  2.8032E-02 -3.2258E-04
     990-
 mid.  surface     2.6403E-02  3.2377E-02 -6.3329E-02 -6.9587E-04  2.2038E-02 -1.1159E-03
    1035-
 mid.  surface     2.6482E-02  3.0229E-02 -6.1053E-02 -1.3272E-03  2.9502E-02 -2.9502E-03
    1036-
 mid.  surface     2.9310E-02  3.2207E-02 -6.5358E-02 -1.2681E-03  3.3973E-02 -2.6104E-03
    1140-
 mid.  surface     2.0010E-02  4.0436E-02 -8.1966E-02  4.4019E-03  1.6405E-02 -1.7562E-02
    1141-
 mid.  surface     2.1352E-02  2.8261E-02 -5.0669E-02  4.5852E-03  2.6156E-02 -2.2561E-02
    1142-
 mid.  surface     2.9319E-02  2.6797E-02 -5.3287E-02  1.5812E-04  1.5311E-02  3.5142E-03
    1230-
 mid.  surface     2.6980E-02  2.7031E-02 -5.5493E-02 -2.6324E-03  2.5379E-02 -8.8565E-04



 n o d a l  s t r e s s  c a l c u l a t i o n s   f o r   t i m e  s t e p      699   ( at time 9.23195E+00 )

 node (global)
          stress       sig-xx      sig-yy      sig-zz      sig-xy      sig-yz      sig-zx       plastic
                                                                                                 strain 
     269-
 mid.  surface    -1.9783E+09 -2.0155E+09 -1.1601E+09 -2.5424E+07  2.1287E+08 -4.0124E+07 -6.7122E-02
     270-
 mid.  surface    -3.7942E+09 -3.7999E+09 -2.9666E+09  4.2799E+06  2.0406E+08  5.8045E+06 -3.0896E-02
     284-
 mid.  surface     6.3072E+07  5.2698E+07 -4.8174E+07  8.4422E+06 -1.9158E+08 -1.0098E+05  9.0660E-02
     285-
 mid.  surface     8.4729E+07  9.3514E+07 -7.2649E+07 -4.7454E+06 -4.6211E+07  2.6026E+06  9.0702E-02
     286-
 mid.  surface     2.6891E+07  2.6021E+07 -1.3011E+08 -5.4039E+06 -7.7580E+07 -1.1750E+07  1.0409E-01
     287-
 mid.  surface     1.1962E+08  1.0915E+08 -6.8557E+07 -1.8974E+06 -1.3539E+08 -1.3581E+07  9.0376E-02
     288-
 mid.  surface     1.7172E+08  1.6488E+08 -8.2747E+06 -5.1136E+06 -1.5309E+08 -8.7677E+06  8.7455E-02
     289-
 mid.  surface     2.9464E+07  3.4917E+06 -1.0562E+08 -1.6734E+07 -1.0689E+08  2.0571E+07  8.4170E-02
     290-
 mid.  surface    -3.0446E+07 -4.3931E+07 -2.8353E+08 -1.6910E+07 -1.2819E+08 -1.1801E+07  7.4482E-02
     291-
 mid.  surface     5.3182E+07  5.0064E+07 -1.6134E+08 -3.4364E+07 -1.2039E+08  2.6029E+07  6.5687E-02
     292-
 mid.  surface    -6.5545E+08 -6.9128E+08 -2.5564E+08 -1.4653E+07 -4.9860E+07 -7.2510E+07  2.3166E-02
     311-
 mid.  surface    -1.1723E+08 -1.1138E+08 -2.3363E+08 -1.3045E+07 -1.4817E+08  6.5028E+06  9.7087E-02
     314-
 mid.  surface    -2.1374E+07 -1.2605E+07 -1.8748E+08 -1.2651E+07 -1.9527E+08 -9.8837E+06  9.5651E-02
     317-
 mid.  surface     8.2678E+07  6.8148E+07 -9.0197E+07 -3.8730E+06 -1.8885E+08 -8.4237E+06  9.3674E-02
     320-
 mid.  surface     6.5064E+07  4.6633E+07 -6.1614E+07  4.3048E+06 -1.8310E+08 -8.5769E+06  1.0509E-01
     327-
 mid.  surface    -1.2267E+08 -1.0712E+08 -3.4632E+08  4.5799E+06 -1.6064E+08 -2.9508E+07  9.3313E-02
     328-
 mid.  surface    -4.2853E+08 -4.0347E+08 -5.9686E+08  2.4699E+06 -1.3869E+08  3.2098E+06  9.1798E-02
     329-
 mid.  surface    -2.0816E+09 -2.0828E+09 -1.6561E+09  2.0868E+07 -5.0102E+07 -6.5119E+07  5.6135E-02
     330-
 mid.  surface    -2.0953E+08 -2.2408E+08 -4.1379E+08 -3.5099E+06  1.0621E+08  1.0068E+07  8.7231E-02
     331-
 mid.  surface    -2.8562E+08 -2.9735E+08 -5.0128E+08 -3.7152E+06  1.6121E+08  2.1709E+07  8.9794E-02
     332-
 mid.  surface    -3.8378E+08 -3.7810E+08 -5.5083E+08 -8.0483E+06  1.8233E+08  1.0622E+07  1.0465E-01
     333-
 mid.  surface    -2.0374E+08 -2.1400E+08 -3.7176E+08  2.5240E+06  7.4306E+07 -2.8438E+05  9.8140E-02
     510-
 mid.  surface    -2.4299E+08 -2.3863E+08 -4.4640E+08 -8.5442E+06  1.1715E+08  1.4085E+06  8.8751E-02
     511-
 mid.  surface    -1.6138E+08 -1.7340E+08 -3.7280E+08 -2.9137E+06  1.5852E+08  2.0608E+07  8.6905E-02
     647-
 mid.  surface     5.4213E+08  6.0687E+08 -3.0651E+08  4.6674E+07 -2.7822E+07  8.5797E+07  1.5842E-01
     648-
 mid.  surface    -5.0593E+08 -4.8148E+08 -7.0514E+08  1.2590E+07  1.0117E+08 -2.7399E+07  8.8560E-02
     705-
 mid.  surface    -3.1830E+08 -2.9263E+08 -4.6451E+08 -1.1078E+07  2.0005E+08  2.0760E+07  9.0443E-02
     706-
 mid.  surface    -2.0461E+08 -1.9925E+08 -3.6260E+08  8.3393E+05  5.2626E+07  8.8185E+06  8.4840E-02
     841-
 mid.  surface    -2.5852E+08 -2.5134E+08 -3.9632E+08 -7.3818E+06  1.2019E+08 -3.3708E+07  9.0158E-02
     990-
 mid.  surface    -2.3754E+08 -2.1182E+08 -4.9236E+08  8.4387E+06  1.1104E+08 -9.0766E+06  8.6838E-02
    1035-
 mid.  surface    -2.1547E+08 -2.2749E+08 -4.8641E+08 -1.4900E+07  1.5052E+08  1.7819E+07  7.0637E-02
    1036-
 mid.  surface    -2.0639E+08 -2.3603E+08 -3.5471E+08 -1.1603E+07  1.5953E+08 -4.8709E+06  8.2061E-02
    1140-
 mid.  surface     1.5725E+09  1.7195E+09 -4.7133E+07  5.3984E+07 -3.8627E+07  1.1277E+07  1.7988E-01
    1141-
 mid.  surface     3.2490E+09  3.3583E+09  1.6461E+09  2.3256E+07 -1.2012E+07 -3.0652E+07  1.5039E-01
    1142-
 mid.  surface     1.9396E+09  1.9664E+09  1.0575E+09  1.9566E+06 -1.0335E+07  7.6315E+07  1.2463E-01
    1230-
 mid.  surface    -2.2776E+07 -3.2088E+07 -2.6606E+08 -3.0543E+07  1.3654E+08 -5.8084E+06  6.1975E-02



 n o d a l  s t r a i n  c a l c u l a t i o n s   f o r   t i m e  s t e p      699   ( at time 9.23195E+00 )

 node (global)
          strain       eps-xx      eps-yy      eps-zz      eps-xy      eps-yz      eps-zx       
     269-
 mid.  surface     3.1176E-02  3.5179E-02 -5.3103E-02  1.1246E-02 -2.2759E-03  7.9449E-03
     270-
 mid.  surface     3.0042E-02  4.6973E-02 -8.9499E-02  9.4321E-03  1.4457E-03  1.5086E-02
     284-
 mid.  surface     3.8349E-02  3.7464E-02 -7.5860E-02 -4.5847E-03 -4.5298E-02  6.1112E-04
     285-
 mid.  surface     4.1879E-02  3.6027E-02 -7.7394E-02 -3.8506E-03 -5.0919E-02  4.7054E-04
     286-
 mid.  surface     4.1173E-02  4.3446E-02 -8.5039E-02 -1.0165E-03 -3.9940E-02  1.4107E-03
     287-
 mid.  surface     3.9412E-02  3.8861E-02 -7.7598E-02 -1.2026E-03 -4.5246E-02  8.8452E-04
     288-
 mid.  surface     3.5875E-02  3.9842E-02 -7.4312E-02 -2.6412E-03 -4.5802E-02  1.3102E-03
     289-
 mid.  surface     3.4308E-02  4.0107E-02 -7.4900E-02 -1.9866E-03 -3.8818E-02  3.7024E-03
     290-
 mid.  surface     3.0618E-02  3.7295E-02 -6.9764E-02 -2.7726E-03 -4.0180E-02  3.0503E-03
     291-
 mid.  surface     2.8975E-02  3.5167E-02 -6.4569E-02 -4.0111E-03 -3.8451E-02  8.5851E-06
     292-
 mid.  surface     3.5644E-02  3.3775E-02 -5.8385E-02  1.7970E-03 -2.9414E-02 -1.1180E-02
     311-
 mid.  surface     3.2646E-02  4.0898E-02 -7.5975E-02 -1.9428E-03 -3.4286E-02 -4.2930E-03
     314-
 mid.  surface     3.2840E-02  4.1556E-02 -7.5732E-02 -2.6923E-03 -4.2067E-02 -5.1508E-03
     317-
 mid.  surface     3.6155E-02  4.0834E-02 -7.7007E-02 -1.4720E-03 -4.1887E-02 -3.4379E-03
     320-
[...]
     269-
 mid.  surface    -9.5910E+08 -8.7960E+08 -1.4267E+09  7.0213E+07 -1.2379E+07 -9.0382E+07
     270-
 mid.  surface     0.0000E+00  0.0000E+00  4.0676E+08  2.8513E+08 -9.9114E+07  5.2857E+07
     284-
 mid.  surface     3.9073E-01  6.3365E-01 -9.2091E-01  3.5347E-02 -5.5890E-02 -6.4458E-02
     285-
 mid.  surface     3.6902E-01  4.3684E-01 -7.0750E-01  5.4985E-02 -3.2372E-03 -1.3172E-02
     286-
 mid.  surface     3.9891E-01  3.0208E-01 -7.4120E-01  1.4377E-02 -1.6570E-01  1.0216E-01
     287-
 mid.  surface     2.0568E-01  2.5184E-01 -4.9573E-01 -1.9453E-02 -3.3881E-02  9.3302E-03
     288-
 mid.  surface     0.0000E+00  0.0000E+00  0.0000E+00  0.0000E+00  0.0000E+00  0.0000E+00
     289-
 mid.  surface     2.9587E+08  2.9587E+08  2.9587E+08  0.0000E+00  0.0000E+00  0.0000E+00
     290-
 mid.  surface     0.0000E+00  0.0000E+00  4.4759E+08  4.4759E+08  4.4759E+08  0.0000E+00
     291-
 mid.  surface     0.0000E+00  0.0000E+00  0.0000E+00  0.0000E+00  0.0000E+00  0.0000E+00
     292-
 mid.  surface     0.0000E+00  0.0000E+00  0.0000E+00  0.0000E+00  0.0000E+00  0.0000E+00
     311-
 mid.  surface     0.0000E+00  0.0000E+00  0.0000E+00  0.0000E+00  0.0000E+00  0.0000E+00
     314-
 mid.  surface     0.0000E+00  0.0000E+00  0.0000E+00  0.0000E+00  0.0000E+00  0.0000E+00
     317-
 mid.  surface     2.1191E-01  3.7954E-01 -5.1220E-01 -3.1452E-05 -1.9545E-02 -5.8755E-02
     320-
 mid.  surface     4.3002E-01  5.6352E-01 -9.8940E-01  1.4153E-02 -1.4651E-01 -4.1896E-02
     327-
 mid.  surface     0.0000E+00  0.0000E+00  0.0000E+00  0.0000E+00  0.0000E+00  0.0000E+00
     328-
 mid.  surface     0.0000E+00  0.0000E+00  0.0000E+00  0.0000E+00  0.0000E+00  0.0000E+00
     329-
 mid.  surface     0.0000E+00  0.0000E+00  0.0000E+00  0.0000E+00  0.0000E+00  0.0000E+00
     330-
 mid.  surface     1.7642E-01  2.5368E-01 -3.9215E-01  2.4073E-03  1.0888E-01 -1.1336E-02
     331-
 mid.  surface     1.7380E-01  1.6319E-01 -3.8587E-01 -2.4478E-02  2.5359E-02 -1.9613E-02
     332-
 mid.  surface     1.3519E+00  1.3356E+00  2.3385E-01  9.5862E-01  1.0630E+00 -8.2618E-02
     333-
 mid.  surface     1.3751E+00  4.0569E-01 -8.7199E-01  1.0162E+00  1.1734E+00 -3.8528E-02
     510-
 mid.  surface     0.0000E+00  0.0000E+00  0.0000E+00  1.0000E+00  1.0000E+00  1.0000E+00
     511-
 mid.  surface     1.0000E+00  1.0000E+00  1.0000E+00  1.0000E+00  1.0000E+00  0.0000E+00
     647-
 mid.  surface     1.0000E+00  0.0000E+00  0.0000E+00  1.0000E+00  1.0000E+00  1.0000E+00
     648-
 mid.  surface     1.0000E+00  1.0000E+00  1.0000E+00  1.0000E+00  1.0000E+00  1.0000E+00
     705-
 mid.  surface     1.3505E+00  1.2764E+00  3.8284E-01  1.0628E+00  9.3068E-01  1.1786E+00
     706-
 mid.  surface     1.3929E+00  1.4841E+00  6.2470E-02  1.0370E+00  1.2837E+00  1.0381E+00
     841-
 mid.  surface     1.0000E+00  1.0000E+00  1.0000E+00  1.0000E+00  1.0000E+00  1.0000E+00
     990-
 mid.  surface     1.0000E+00  1.0000E+00  1.0000E+00  1.0000E+00  1.0000E+00  1.0000E+00
    1035-
 mid.  surface     1.0000E+00  1.0000E+00  1.0000E+00  1.0000E+00  1.0000E+00  0.0000E+00
    1036-
 mid.  surface     0.0000E+00  1.0000E+00  1.0000E+00  1.0000E+00  1.0000E+00  1.0000E+00
    1140-
 mid.  surface     1.0000E+00  1.0000E+00  1.0000E+00  1.0000E+00  1.0000E+00  1.0000E+00
    1141-
 mid.  surface     0.0000E+00  0.0000E+00  0.0000E+00  1.0000E+00  1.0000E+00  1.0000E+00
    1142-
 mid.  surface     0.0000E+00  0.0000E+00  1.0000E+00  1.0000E+00  1.0000E+00  1.0000E+00
    1230-
 mid.  surface     0.0000E+00  0.0000E+00  0.0000E+00  1.0000E+00  1.0000E+00  0.0000E+00



 n o d a l  s t r e s s  c a l c u l a t i o n s   f o r   t i m e  s t e p     3225   ( at time 9.89115E+01 )

 node (global)
          stress       sig-xx      sig-yy      sig-zz      sig-xy      sig-yz      sig-zx       plastic
                                                                                                 strain 
     269-
 mid.  surface     0.0000E+00  0.0000E+00  0.0000E+00  0.0000E+00  0.0000E+00  0.0000E+00  0.0000E+00
     270-
 mid.  surface     0.0000E+00  0.0000E+00  0.0000E+00  0.0000E+00  0.0000E+00  0.0000E+00  0.0000E+00
     284-
 mid.  surface    -4.7722E+09 -4.7722E+09 -4.7722E+09  0.0000E+00  0.0000E+00  0.0000E+00 -9.1547E-01
     285-
 mid.  surface    -1.0929E+09 -1.0929E+09 -1.0929E+09  0.0000E+00  0.0000E+00  0.0000E+00  7.2617E-01
     286-
 mid.  surface     8.9874E+08  1.0446E+09  1.2924E+09  3.9491E+08 -2.1184E+08 -8.5840E+07  1.9455E+00
     287-
 mid.  surface    -1.8064E+08 -9.1631E+07  2.7227E+08  1.3811E+08 -7.6646E+07 -1.7484E+07  9.6908E-01
     288-
 mid.  surface     0.0000E+00  0.0000E+00  0.0000E+00  0.0000E+00  0.0000E+00  0.0000E+00  0.0000E+00
     289-
 mid.  surface     0.0000E+00  0.0000E+00  0.0000E+00  0.0000E+00  0.0000E+00  0.0000E+00  0.0000E+00
     290-
 mid.  surface     0.0000E+00  0.0000E+00  0.0000E+00  0.0000E+00  0.0000E+00  0.0000E+00  0.0000E+00
     291-
 mid.  surface     0.0000E+00  0.0000E+00  0.0000E+00  0.0000E+00  0.0000E+00  0.0000E+00  0.0000E+00
     292-
 mid.  surface     0.0000E+00  0.0000E+00  0.0000E+00  0.0000E+00  0.0000E+00  0.0000E+00  0.0000E+00
     311-
 mid.  surface     0.0000E+00  0.0000E+00  0.0000E+00  0.0000E+00  0.0000E+00  0.0000E+00  0.0000E+00
     314-
 mid.  surface     0.0000E+00  0.0000E+00  0.0000E+00  0.0000E+00  0.0000E+00  0.0000E+00  0.0000E+00
     317-
 mid.  surface    -7.3006E+07 -8.0965E+07  1.5397E+08 -1.4182E+08  7.3086E+07  4.5477E+07 -6.2021E-02
     320-
 mid.  surface    -4.6737E+08 -4.5875E+08 -7.1323E+08  1.5362E+08 -7.9167E+07 -4.9260E+07  1.7100E-01
     327-
 mid.  surface     0.0000E+00  0.0000E+00  0.0000E+00  0.0000E+00  0.0000E+00  0.0000E+00  0.0000E+00
     328-
 mid.  surface     0.0000E+00  0.0000E+00  0.0000E+00  0.0000E+00  0.0000E+00  0.0000E+00  0.0000E+00
     329-
 mid.  surface     0.0000E+00  0.0000E+00  0.0000E+00  0.0000E+00  0.0000E+00  0.0000E+00  0.0000E+00
     330-
 mid.  surface     1.4928E+08  5.6851E+07 -2.0613E+08 -1.9903E+08  1.0804E+08  3.7019E+07 -3.1349E-01
     331-
 mid.  surface    -7.3006E+07 -8.0965E+07  1.5397E+08 -1.4182E+08  7.3086E+07  4.5477E+07  4.5534E-01
     332-
 mid.  surface     1.4071E+09  1.4157E+09  1.1612E+09  1.5362E+08 -7.9167E+07 -4.9261E+07  1.7354E+00
     333-
 mid.  surface     7.8905E+08  6.5874E+08 -4.7493E+07 -1.1821E+08  6.9250E+07 -2.8862E+06  2.0810E-01
     510-
 mid.  surface     1.0847E-01 -1.0147E-01  0.0000E+00  0.0000E+00  0.0000E+00  0.0000E+00  0.0000E+00
     511-
 mid.  surface     0.0000E+00  0.0000E+00  0.0000E+00  0.0000E+00  0.0000E+00  0.0000E+00  4.3419E-01
     647-
 mid.  surface     0.0000E+00  0.0000E+00  0.0000E+00  0.0000E+00  2.3520E-01  2.5463E-01 -4.9739E-01
     648-
 mid.  surface     0.0000E+00  0.0000E+00  0.0000E+00  0.0000E+00  0.0000E+00  0.0000E+00  0.0000E+00
     705-
 mid.  surface     9.3353E+08  9.3353E+08  9.3353E+08  0.0000E+00  0.0000E+00  0.0000E+00  1.2077E+00
     706-
 mid.  surface    -2.9553E+09 -2.9553E+09 -2.9553E+09  0.0000E+00  0.0000E+00  0.0000E+00 -2.7366E-01
     841-
 mid.  surface     0.0000E+00  0.0000E+00  0.0000E+00  0.0000E+00  0.0000E+00  0.0000E+00  0.0000E+00
     990-
 mid.  surface     0.0000E+00  0.0000E+00  0.0000E+00  0.0000E+00  0.0000E+00  0.0000E+00  0.0000E+00
    1035-
 mid.  surface     0.0000E+00  0.0000E+00  0.0000E+00  0.0000E+00  0.0000E+00  0.0000E+00  0.0000E+00
    1036-
 mid.  surface     0.0000E+00  0.0000E+00  2.2989E-01  4.0310E-01 -4.2385E-01  8.4984E-03 -1.0819E-01
    1140-
 mid.  surface     4.6585E-01  6.1869E-01 -1.0750E+00  2.0947E-02 -8.0001E-02 -6.7438E-02  0.0000E+00
    1141-
 mid.  surface     0.0000E+00  0.0000E+00  0.0000E+00  0.0000E+00  0.0000E+00  0.0000E+00  0.0000E+00
    1142-
 mid.  surface     0.0000E+00  0.0000E+00  0.0000E+00  0.0000E+00  0.0000E+00  0.0000E+00  0.0000E+00
    1230-
 mid.  surface     0.0000E+00  0.0000E+00  0.0000E+00  0.0000E+00  0.0000E+00  0.0000E+00  1.9633E-01



 n o d a l  s t r a i n  c a l c u l a t i o n s   f o r   t i m e  s t e p     3225   ( at time 9.89115E+01 )

 node (global)
          strain       eps-xx      eps-yy      eps-zz      eps-xy      eps-yz      eps-zx       
     269-
 mid.  surface     1.4071E+09  1.4157E+09  1.1612E+09  1.5362E+08 -7.9167E+07 -4.9261E+07
     270-
 mid.  surface     0.0000E+00  0.0000E+00  7.8905E+08  6.5874E+08 -4.7493E+07 -1.1821E+08
     284-
 mid.  surface     4.1730E-01  7.4705E-01 -9.8781E-01 -3.3145E-03  1.0847E-01 -1.0147E-01
     285-
 mid.  surface     3.6478E-01  5.5527E-01 -9.4864E-01  2.5146E-02  7.8876E-02 -6.2611E-02
     286-
 mid.  surface     4.3419E-01  3.4856E-01 -1.0192E+00 -1.3825E-03 -8.4097E-02  2.8381E-02
     287-
 mid.  surface     2.3520E-01  2.5463E-01 -4.9739E-01 -2.2140E-02 -4.9565E-02 -2.3594E-02
     288-
 mid.  surface     0.0000E+00  0.0000E+00  0.0000E+00  0.0000E+00  0.0000E+00  0.0000E+00
     289-
 mid.  surface     9.3353E+08  9.3353E+08  9.3353E+08  0.0000E+00  0.0000E+00  0.0000E+00
     290-
 mid.  surface     0.0000E+00  0.0000E+00 -2.9553E+09 -2.9553E+09 -2.9553E+09  0.0000E+00
     291-
 mid.  surface     0.0000E+00  0.0000E+00  0.0000E+00  0.0000E+00  0.0000E+00  0.0000E+00
     292-
 mid.  surface     0.0000E+00  0.0000E+00  0.0000E+00  0.0000E+00  0.0000E+00  0.0000E+00
     311-
 mid.  surface     0.0000E+00  0.0000E+00  0.0000E+00  0.0000E+00  0.0000E+00  0.0000E+00
     314-
 mid.  surface     0.0000E+00  0.0000E+00  0.0000E+00  0.0000E+00  0.0000E+00  0.0000E+00
     317-
 mid.  surface     2.2989E-01  4.0310E-01 -4.2385E-01  8.4984E-03 -1.0819E-01 -6.4273E-02
     320-
 mid.  surface     4.6585E-01  6.1869E-01 -1.0750E+00  2.0947E-02 -8.0001E-02 -6.7438E-02
     327-
 mid.  surface     0.0000E+00  0.0000E+00  0.0000E+00  0.0000E+00  0.0000E+00  0.0000E+00
     328-
 mid.  surface     0.0000E+00  0.0000E+00  0.0000E+00  0.0000E+00  0.0000E+00  0.0000E+00
     329-
 mid.  surface     0.0000E+00  0.0000E+00  0.0000E+00  0.0000E+00  0.0000E+00  0.0000E+00
     330-
 mid.  surface     1.9633E-01  2.9123E-01 -3.1901E-01  8.3512E-04  1.0780E-01  8.6730E-03
     331-
 mid.  surface     2.0206E-01  1.8499E-01 -3.7650E-01 -3.8850E-02 -2.3670E-02 -6.4777E-03
     332-
 mid.  surface     1.7330E+00  1.6947E+00 -7.4285E-01  9.3972E-01  1.1128E+00 -1.1579E-01
     333-
 mid.  surface     1.7769E+00  8.8893E-01 -1.7381E+00  1.0498E+00  1.1911E+00 -1.3871E-02
     510-
 mid.  surface     0.0000E+00  0.0000E+00  0.0000E+00  1.0000E+00  1.0000E+00  1.0000E+00
     511-
 mid.  surface     1.0000E+00  1.0000E+00  1.0000E+00  1.0000E+00  1.0000E+00  0.0000E+00
     647-
 mid.  surface     1.0000E+00  0.0000E+00  0.0000E+00  1.0000E+00  1.0000E+00  1.0000E+00
     648-
 mid.  surface     1.0000E+00  1.0000E+00  1.0000E+00  1.0000E+00  1.0000E+00  1.0000E+00
     705-
 mid.  surface     1.7063E+00  1.6080E+00 -3.7270E-01  1.1390E+00  9.4461E-01  1.2337E+00
     706-
 mid.  surface     1.7862E+00  1.9992E+00 -7.0396E-01  1.0953E+00  1.3408E+00  1.1146E+00
     841-
 mid.  surface     1.0000E+00  1.0000E+00  1.0000E+00  1.0000E+00  1.0000E+00  1.0000E+00
     990-
 mid.  surface     1.0000E+00  1.0000E+00  1.0000E+00  1.0000E+00  1.0000E+00  1.0000E+00
    1035-
 mid.  surface     1.0000E+00  1.0000E+00  1.0000E+00  1.0000E+00  1.0000E+00  0.0000E+00
    1036-
 mid.  surface     0.0000E+00  1.0000E+00  1.0000E+00  1.0000E+00  1.0000E+00  1.0000E+00
    1140-
 mid.  surface     1.0000E+00  1.0000E+00  1.0000E+00  1.0000E+00  1.0000E+00  1.0000E+00
    1141-
 mid.  surface     0.0000E+00  0.0000E+00  0.0000E+00  1.0000E+00  1.0000E+00  1.0000E+00
    1142-
 mid.  surface     0.0000E+00  0.0000E+00  1.0000E+00  1.0000E+00  1.0000E+00  1.0000E+00
    1230-
 mid.  surface     0.0000E+00  0.0000E+00  0.0000E+00  1.0000E+00  1.0000E+00  0.0000E+00



 n o d a l  s t r e s s  c a l c u l a t i o n s   f o r   t i m e  s t e p     3229   ( at time 1.00000E+02 )

 node (global)
          stress       sig-xx      sig-yy      sig-zz      sig-xy      sig-yz      sig-zx       plastic
                                                                                                 strain 
     269-
 mid.  surface     0.0000E+00  0.0000E+00  0.0000E+00  0.0000E+00  0.0000E+00  0.0000E+00  0.0000E+00
     270-
 mid.  surface     0.0000E+00  0.0000E+00  0.0000E+00  0.0000E+00  0.0000E+00  0.0000E+00  0.0000E+00
     284-
 mid.  surface    -4.4682E+09 -3.8964E+09 -5.3986E+09  1.8864E+08 -7.1166E+07  1.0733E+08 -9.1547E-01
     285-
 mid.  surface    -1.0672E+09 -1.0416E+09 -1.1063E+09  2.9384E+06 -7.8122E+07  3.1510E+06  7.2617E-01
     286-
 mid.  surface     9.9191E+08  8.1945E+08  1.2735E+09 -5.9140E+07 -9.2562E+06 -3.3042E+07  1.9455E+00
     287-
 mid.  surface     0.0000E+00  0.0000E+00  0.0000E+00  0.0000E+00  0.0000E+00  0.0000E+00  9.6908E-01
     288-
 mid.  surface     0.0000E+00  0.0000E+00  0.0000E+00  0.0000E+00  0.0000E+00  0.0000E+00  0.0000E+00
     289-
 mid.  surface     0.0000E+00  0.0000E+00  0.0000E+00  0.0000E+00  0.0000E+00  0.0000E+00  0.0000E+00
     290-
 mid.  surface     0.0000E+00  0.0000E+00  0.0000E+00  0.0000E+00  0.0000E+00  0.0000E+00  0.0000E+00
     291-
 mid.  surface     0.0000E+00  0.0000E+00  0.0000E+00  0.0000E+00  0.0000E+00  0.0000E+00  0.0000E+00
     292-
 mid.  surface     0.0000E+00  0.0000E+00  0.0000E+00  0.0000E+00  0.0000E+00  0.0000E+00  0.0000E+00
     311-
 mid.  surface     0.0000E+00  0.0000E+00  0.0000E+00  0.0000E+00  0.0000E+00  0.0000E+00  0.0000E+00
     314-
 mid.  surface     0.0000E+00  0.0000E+00  0.0000E+00  0.0000E+00  0.0000E+00  0.0000E+00  0.0000E+00
     317-
 mid.  surface     0.0000E+00  0.0000E+00  0.0000E+00  0.0000E+00  0.0000E+00  0.0000E+00 -6.2021E-02
     320-
 mid.  surface    -5.3358E+08 -5.2082E+08 -5.5315E+08  1.4692E+06 -3.9061E+07  1.5755E+06  1.7100E-01
     327-
 mid.  surface     0.0000E+00  0.0000E+00  0.0000E+00  0.0000E+00  0.0000E+00  0.0000E+00  0.0000E+00
     328-
 mid.  surface     0.0000E+00  0.0000E+00  0.0000E+00  0.0000E+00  0.0000E+00  0.0000E+00  0.0000E+00
     329-
 mid.  surface     0.0000E+00  0.0000E+00  0.0000E+00  0.0000E+00  0.0000E+00  0.0000E+00  0.0000E+00
     330-
 mid.  surface     0.0000E+00  0.0000E+00  0.0000E+00  0.0000E+00  0.0000E+00  0.0000E+00 -3.1349E-01
     331-
 mid.  surface     0.0000E+00  0.0000E+00  0.0000E+00  0.0000E+00  0.0000E+00  0.0000E+00  4.5534E-01
     332-
 mid.  surface     1.2364E+09  1.0605E+09  1.5230E+09 -5.8901E+07  9.9675E+06 -3.3277E+07  1.7354E+00
     333-
 mid.  surface     4.5980E+08  4.5857E+08  4.6056E+08  2.4394E+06  3.9037E+07  6.2042E+05  2.0810E-01
     510-
 mid.  surface     1.0953E-01 -1.0043E-01  0.0000E+00  0.0000E+00  0.0000E+00  0.0000E+00  0.0000E+00
     511-
 mid.  surface     0.0000E+00  0.0000E+00  0.0000E+00  0.0000E+00  0.0000E+00  0.0000E+00  4.3488E-01
     647-
 mid.  surface     0.0000E+00  0.0000E+00  0.0000E+00  0.0000E+00  2.3535E-01  2.5499E-01 -5.0759E-01
     648-
 mid.  surface     0.0000E+00  0.0000E+00  0.0000E+00  0.0000E+00  0.0000E+00  0.0000E+00  0.0000E+00
     705-
 mid.  surface     9.1960E+08  9.1715E+08  9.2111E+08  4.8787E+06  7.8075E+07  1.2408E+06  1.2077E+00
     706-
 mid.  surface    -2.6869E+09 -2.1401E+09 -3.5808E+09  1.9038E+08  6.8881E+07  1.0562E+08 -2.7366E-01
     841-
 mid.  surface     0.0000E+00  0.0000E+00  0.0000E+00  0.0000E+00  0.0000E+00  0.0000E+00  0.0000E+00
     990-
 mid.  surface     0.0000E+00  0.0000E+00  0.0000E+00  0.0000E+00  0.0000E+00  0.0000E+00  0.0000E+00
    1035-
 mid.  surface     0.0000E+00  0.0000E+00  0.0000E+00  0.0000E+00  0.0000E+00  0.0000E+00  0.0000E+00
    1036-
 mid.  surface     0.0000E+00  0.0000E+00  2.2959E-01  4.0398E-01 -4.2212E-01  9.2522E-03 -1.0259E-01
    1140-
 mid.  surface     4.6574E-01  6.2314E-01 -1.0774E+00  2.1196E-02 -8.0460E-02 -6.7062E-02  0.0000E+00
    1141-
 mid.  surface     0.0000E+00  0.0000E+00  0.0000E+00  0.0000E+00  0.0000E+00  0.0000E+00  0.0000E+00
    1142-
 mid.  surface     0.0000E+00  0.0000E+00  0.0000E+00  0.0000E+00  0.0000E+00  0.0000E+00  0.0000E+00
    1230-
 mid.  surface     0.0000E+00  0.0000E+00  0.0000E+00  0.0000E+00  0.0000E+00  0.0000E+00  1.9703E-01



 n o d a l  s t r a i n  c a l c u l a t i o n s   f o r   t i m e  s t e p     3229   ( at time 1.00000E+02 )

 node (global)
          strain       eps-xx      eps-yy      eps-zz      eps-xy      eps-yz      eps-zx       
     269-
 mid.  surface     1.2364E+09  1.0605E+09  1.5230E+09 -5.8901E+07  9.9675E+06 -3.3277E+07
     270-
 mid.  surface     0.0000E+00  0.0000E+00  4.5980E+08  4.5857E+08  4.6056E+08  2.4394E+06
     284-
 mid.  surface     4.1767E-01  7.4741E-01 -9.8849E-01 -2.3844E-03  1.0953E-01 -1.0043E-01
     285-
 mid.  surface     3.6570E-01  5.5182E-01 -9.5250E-01  2.7187E-02  8.3386E-02 -6.1442E-02
     286-
 mid.  surface     4.3488E-01  3.4978E-01 -1.0276E+00 -1.1431E-03 -8.4301E-02  2.9414E-02
     287-
 mid.  surface     2.3535E-01  2.5499E-01 -5.0759E-01 -2.1725E-02 -4.1836E-02 -2.1810E-02
     288-
 mid.  surface     0.0000E+00  0.0000E+00  0.0000E+00  0.0000E+00  0.0000E+00  0.0000E+00
     289-
 mid.  surface     9.1960E+08  9.1715E+08  9.2111E+08  4.8787E+06  7.8075E+07  1.2408E+06
     290-
 mid.  surface     0.0000E+00  0.0000E+00 -2.6869E+09 -2.1401E+09 -3.5808E+09  1.9038E+08
     291-
 mid.  surface     0.0000E+00  0.0000E+00  0.0000E+00  0.0000E+00  0.0000E+00  0.0000E+00
     292-
 mid.  surface     0.0000E+00  0.0000E+00  0.0000E+00  0.0000E+00  0.0000E+00  0.0000E+00
     311-
 mid.  surface     0.0000E+00  0.0000E+00  0.0000E+00  0.0000E+00  0.0000E+00  0.0000E+00
     314-
 mid.  surface     0.0000E+00  0.0000E+00  0.0000E+00  0.0000E+00  0.0000E+00  0.0000E+00
     317-
 mid.  surface     2.2959E-01  4.0398E-01 -4.2212E-01  9.2522E-03 -1.0259E-01 -6.3695E-02
     320-
 mid.  surface     4.6574E-01  6.2314E-01 -1.0774E+00  2.1196E-02 -8.0460E-02 -6.7062E-02
     327-
 mid.  surface     0.0000E+00  0.0000E+00  0.0000E+00  0.0000E+00  0.0000E+00  0.0000E+00
     328-
 mid.  surface     0.0000E+00  0.0000E+00  0.0000E+00  0.0000E+00  0.0000E+00  0.0000E+00
     329-
 mid.  surface     0.0000E+00  0.0000E+00  0.0000E+00  0.0000E+00  0.0000E+00  0.0000E+00
     330-
 mid.  surface     1.9703E-01  2.9357E-01 -3.1922E-01  1.8909E-03  1.0665E-01  4.7271E-03
     331-
 mid.  surface     2.0301E-01  1.8672E-01 -3.8718E-01 -3.8919E-02 -2.9711E-02 -8.1972E-03
     332-
 mid.  surface     1.3826E+00  1.3636E+00  1.2323E-02  9.8144E-01  1.0466E+00 -3.7206E-02
     333-
 mid.  surface     1.4026E+00  4.8958E-01 -8.7115E-01  1.0335E+00  1.8358E-02  2.4489E-02
     510-
 mid.  surface     0.0000E+00  0.0000E+00  0.0000E+00  1.0000E+00  1.0000E+00  1.0000E+00
     511-
 mid.  surface     1.0000E+00  1.0000E+00  1.0000E+00  1.0000E+00  1.0000E+00  0.0000E+00
     647-
 mid.  surface     1.0000E+00  0.0000E+00  0.0000E+00  1.0000E+00  1.0000E+00  1.0000E+00
     648-
 mid.  surface     1.0000E+00  1.0000E+00  1.0000E+00  1.0000E+00  1.0000E+00  1.0000E+00
     705-
 mid.  surface     1.3565E+00  1.3299E+00  2.4074E-01  1.0772E+00  1.0065E+00  1.0583E+00
     706-
 mid.  surface     1.3934E+00  1.5168E+00 -7.7005E-01  1.0575E+00  1.0627E+00  1.0755E+00
     841-
 mid.  surface     1.0000E+00  1.0000E+00  1.0000E+00  1.0000E+00  1.0000E+00  1.0000E+00
     990-
 mid.  surface     1.0000E+00  1.0000E+00  1.0000E+00  1.0000E+00  1.0000E+00  1.0000E+00
    1035-
 mid.  surface     1.0000E+00  1.0000E+00  1.0000E+00  1.0000E+00  1.0000E+00  0.0000E+00
    1036-
 mid.  surface     0.0000E+00  1.0000E+00  1.0000E+00  1.0000E+00  1.0000E+00  1.0000E+00
    1140-
 mid.  surface     1.0000E+00  1.0000E+00  1.0000E+00  1.0000E+00  1.0000E+00  1.0000E+00
    1141-
 mid.  surface     0.0000E+00  0.0000E+00  0.0000E+00  0.0000E+00  0.0000E+00  1.0000E+00
    1142-
 mid.  surface     0.0000E+00  0.0000E+00  1.0000E+00  1.0000E+00  1.0000E+00  1.0000E+00
    1230-
 mid.  surface     0.0000E+00  0.0000E+00  0.0000E+00  1.0000E+00  1.0000E+00  0.0000E+00
