 LS-DYNA keyword deck by LS-PrePost                                      
                    ls-dyna smp d R14 R14.1.1s_1_ef50e1 date 06/16/2024

{BEGIN LEGEND}
 Entity #        Title
      269                                                                                     
      270                                                                                     
      271                                                                                     
      272                                                                                     
      273                                                                                     
      274                                                                                     
      275                                                                                     
      276                                                                                     
      277                                                                                     
      278                                                                                     
      279                                                                                     
      280                                                                                     
      281                                                                                     
      282                                                                                     
      283                                                                                     
      284                                                                                     
      285                                                                                     
      286                                                                                     
      287                                                                                     
      288                                                                                     
      289                                                                                     
      290                                                                                     
      291                                                                                     
      292                                                                                     
      293                                                                                     
      294                                                                                     
      295                                                                                     
      296                                                                                     
      297                                                                                     
      298                                                                                     
      299                                                                                     
      300                                                                                     
      301                                                                                     
      302                                                                                     
      303                                                                                     
      304                                                                                     
      305                                                                                     
      306                                                                                     
      307                                                                                     
      308                                                                                     
      309                                                                                     
      310                                                                                     
      311                                                                                     
      312                                                                                     
      313                                                                                     
      314                                                                                     
      315                                                                                     
      316                                                                                     
      317                                                                                     
      318                                                                                     
      319                                                                                     
      320                                                                                     
      321                                                                                     
      322                                                                                     
      323                                                                                     
      324                                                                                     
      325                                                                                     
      326                                                                                     
      327                                                                                     
      328                                                                                     
      329                                                                                     
     1393                                                                                     
     1394                                                                                     
     1395                                                                                     
     1396                                                                                     
     1508                                                                                     
     1509                                                                                     
     1510                                                                                     
     1659                                                                                     
     1660                                                                                     
     1661                                                                                     
     1662                                                                                     
     1737                                                                                     
     1738                                                                                     
     1887                                                                                     
     1888                                                                                     
     1889                                                                                     
     1890                                                                                     
     2039                                                                                     
     2040                                                                                     
     2041                                                                                     
     2042                                                                                     
     2117                                                                                     
     2118                                                                                     
     2267                                                                                     
     2268                                                                                     
     2269                                                                                     
     2270                                                                                     
     2419                                                                                     
     2420                                                                                     
     2421                                                                                     
     2422                                                                                     
     2497                                                                                     
     2498                                                                                     
     2573                                                                                     
     2574                                                                                     
     2649                                                                                     
     2650                                                                                     
     2725                                                                                     
     2726                                                                                     
     2801                                                                                     
     2802                                                                                     
     2840                                                                                     
     2915                                                                                     
     2916                                                                                     
     2991                                                                                     
     2992                                                                                     
     3067                                                                                     
     3068                                                                                     
     3143                                                                                     
     3144                                                                                     
     3182                                                                                     
     3220                                                                                     
     3258                                                                                     
     3333                                                                                     
     3334                                                                                     
     3372                                                                                     
     3410                                                                                     
     3448                                                                                     
     3486                                                                                     
     3524                                                                                     
     3562                                                                                     
     3613                                                                                     
     3614                                                                                     
     3615                                                                                     
     3616                                                                                     
     3617                                                                                     
     3618                                                                                     
     3619                                                                                     
     3620                                                                                     
     3621                                                                                     
     3622                                                                                     
     3623                                                                                     
     3624                                                                                     
     3625                                                                                     
     4590                                                                                     
     4591                                                                                     
     4594                                                                                     
     4595                                                                                     
     4598                                                                                     
     4599                                                                                     
     4602                                                                                     
     4603                                                                                     
     4606                                                                                     
     4607                                                                                     
     4610                                                                                     
     4611                                                                                     
     4614                                                                                     
     4615                                                                                     
     4618                                                                                     
     4619                                                                                     
     4622                                                                                     
     4623                                                                                     
     4626                                                                                     
     4627                                                                                     
     4630                                                                                     
     4631                                                                                     
     4634                                                                                     
     4635                                                                                     
     4638                                                                                     
     4639                                                                                     
     4642                                                                                     
     4643                                                                                     
     4646                                                                                     
     4647                                                                                     
     4650                                                                                     
     4651                                                                                     
     4838                                                                                     
     4839                                                                                     
     4842                                                                                     
     4843                                                                                     
     4846                                                                                     
     4847                                                                                     
     4850                                                                                     
     4851                                                                                     
     4854                                                                                     
     4855                                                                                     
     4858                                                                                     
     4859                                                                                     
     4862                                                                                     
     4863                                                                                     
     4866                                                                                     
     4867                                                                                     
     6646                                                                                     
     6647                                                                                     
     6648                                                                                     
     6649                                                                                     
     6650                                                                                     
     6651                                                                                     
     6652                                                                                     
     6653                                                                                     
     6838                                                                                     
     6839                                                                                     
     6841                                                                                     
     6842                                                                                     
     6844                                                                                     
     6845                                                                                     
     6847                                                                                     
     6848                                                                                     
     6850                                                                                     
     6851                                                                                     
     6853                                                                                     
     6854                                                                                     
     6856                                                                                     
     6857                                                                                     
     6859                                                                                     
     6860                                                                                     
     6894                                                                                     
     6895                                                                                     
     6896                                                                                     
     6897                                                                                     
     6898                                                                                     
     6899                                                                                     
     6900                                                                                     
     6901                                                                                     
     6990                                                                                     
     6991                                                                                     
     6992                                                                                     
     6993                                                                                     
     6994                                                                                     
     6995                                                                                     
     6996                                                                                     
     6997                                                                                     
     7454                                                                                     
     7455                                                                                     
     7456                                                                                     
     7457                                                                                     
     7458                                                                                     
     7459                                                                                     
     7460                                                                                     
     7461                                                                                     
     7934                                                                                     
     7936                                                                                     
     7938                                                                                     
     7940                                                                                     
     7942                                                                                     
     7944                                                                                     
     7946                                                                                     
     7948                                                                                     
{END LEGEND}




 n o d a l   p r i n t   o u t   f o r   t i m e  s t e p       1                              ( at time 0.0000000E+00 )

 nodal point  x-disp     y-disp      z-disp      x-vel       y-vel       z-vel      x-accl      y-accl      z-accl      x-coor      y-coor      z-coor
      269  0.00000E+00 0.00000E+00 0.00000E+00 0.00000E+00 0.00000E+00 0.00000E+00 0.00000E+00 0.00000E+00 0.00000E+00 3.17500E-03 0.00000E+00 1.77600E-18
      270  0.00000E+00 0.00000E+00 0.00000E+00 0.00000E+00 0.00000E+00 0.00000E+00 0.00000E+00 0.00000E+00 0.00000E+00 2.77810E-03 0.00000E+00 0.00000E+00
      271  0.00000E+00 0.00000E+00 0.00000E+00 0.00000E+00 0.00000E+00 0.00000E+00 0.00000E+00 0.00000E+00 0.00000E+00 2.38130E-03 0.00000E+00 0.00000E+00
      272  0.00000E+00 0.00000E+00 0.00000E+00 0.00000E+00 0.00000E+00 0.00000E+00 0.00000E+00 0.00000E+00 0.00000E+00 1.98440E-03 0.00000E+00 0.00000E+00
      273  0.00000E+00 0.00000E+00 0.00000E+00 0.00000E+00 0.00000E+00 0.00000E+00 0.00000E+00 0.00000E+00 0.00000E+00 1.58750E-03 0.00000E+00 0.00000E+00
      274  0.00000E+00 0.00000E+00 0.00000E+00 0.00000E+00 0.00000E+00 0.00000E+00 0.00000E+00 0.00000E+00 0.00000E+00 1.19060E-03 0.00000E+00 0.00000E+00
      275  0.00000E+00 0.00000E+00 0.00000E+00 0.00000E+00 0.00000E+00 0.00000E+00 0.00000E+00 0.00000E+00 0.00000E+00 7.93750E-04 0.00000E+00 0.00000E+00
      276  0.00000E+00 0.00000E+00 0.00000E+00 0.00000E+00 0.00000E+00 0.00000E+00 0.00000E+00 0.00000E+00 0.00000E+00 3.96875E-04 0.00000E+00 0.00000E+00
      277  0.00000E+00 0.00000E+00 0.00000E+00 0.00000E+00 0.00000E+00 0.00000E+00 0.00000E+00 0.00000E+00 0.00000E+00 0.00000E+00 0.00000E+00 0.00000E+00
      278  0.00000E+00 0.00000E+00 0.00000E+00 0.00000E+00 0.00000E+00 0.00000E+00 0.00000E+00 0.00000E+00 0.00000E+00 2.43000E-20 3.96875E-04 0.00000E+00
      279  0.00000E+00 0.00000E+00 0.00000E+00 0.00000E+00 0.00000E+00 0.00000E+00 0.00000E+00 0.00000E+00 0.00000E+00 4.86000E-20 7.93750E-04 0.00000E+00
      280  0.00000E+00 0.00000E+00 0.00000E+00 0.00000E+00 0.00000E+00 0.00000E+00 0.00000E+00 0.00000E+00 0.00000E+00 7.29000E-20 1.19060E-03 0.00000E+00
      281  0.00000E+00 0.00000E+00 0.00000E+00 0.00000E+00 0.00000E+00 0.00000E+00 0.00000E+00 0.00000E+00 0.00000E+00 9.72100E-20 1.58750E-03 0.00000E+00
      282  0.00000E+00 0.00000E+00 0.00000E+00 0.00000E+00 0.00000E+00 0.00000E+00 0.00000E+00 0.00000E+00 0.00000E+00 1.21500E-19 1.98440E-03 0.00000E+00
      283  0.00000E+00 0.00000E+00 0.00000E+00 0.00000E+00 0.00000E+00 0.00000E+00 0.00000E+00 0.00000E+00 0.00000E+00 1.45800E-19 2.38130E-03 0.00000E+00
      284  0.00000E+00 0.00000E+00 0.00000E+00 0.00000E+00 0.00000E+00 0.00000E+00 0.00000E+00 0.00000E+00 0.00000E+00 1.70100E-19 2.77810E-03 0.00000E+00
      285  0.00000E+00 0.00000E+00 0.00000E+00 0.00000E+00 0.00000E+00 0.00000E+00 0.00000E+00 0.00000E+00 0.00000E+00 1.94400E-19 3.17500E-03 0.00000E+00
      286  0.00000E+00 0.00000E+00 0.00000E+00 0.00000E+00 0.00000E+00 0.00000E+00 0.00000E+00 0.00000E+00 0.00000E+00 6.19412E-04 3.11400E-03 0.00000E+00
      287  0.00000E+00 0.00000E+00 0.00000E+00 0.00000E+00 0.00000E+00 0.00000E+00 0.00000E+00 0.00000E+00 0.00000E+00 1.21500E-03 2.93330E-03 0.00000E+00
      288  0.00000E+00 0.00000E+00 0.00000E+00 0.00000E+00 0.00000E+00 0.00000E+00 0.00000E+00 0.00000E+00 0.00000E+00 1.76390E-03 2.63990E-03 0.00000E+00
      289  0.00000E+00 0.00000E+00 0.00000E+00 0.00000E+00 0.00000E+00 0.00000E+00 0.00000E+00 0.00000E+00 0.00000E+00 2.24510E-03 2.24510E-03 0.00000E+00
      290  0.00000E+00 0.00000E+00 0.00000E+00 0.00000E+00 0.00000E+00 0.00000E+00 0.00000E+00 0.00000E+00 0.00000E+00 2.63990E-03 1.76390E-03 0.00000E+00
      291  0.00000E+00 0.00000E+00 0.00000E+00 0.00000E+00 0.00000E+00 0.00000E+00 0.00000E+00 0.00000E+00 0.00000E+00 2.93330E-03 1.21500E-03 0.00000E+00
      292  0.00000E+00 0.00000E+00 0.00000E+00 0.00000E+00 0.00000E+00 0.00000E+00 0.00000E+00 0.00000E+00 0.00000E+00 3.11400E-03 6.19412E-04 0.00000E+00
      293  0.00000E+00 0.00000E+00 0.00000E+00 0.00000E+00 0.00000E+00 0.00000E+00 0.00000E+00 0.00000E+00 0.00000E+00 1.31960E-03 1.36880E-03 0.00000E+00
      294  0.00000E+00 0.00000E+00 0.00000E+00 0.00000E+00 0.00000E+00 0.00000E+00 0.00000E+00 0.00000E+00 0.00000E+00 1.41990E-03 1.05600E-03 0.00000E+00
      295  0.00000E+00 0.00000E+00 0.00000E+00 0.00000E+00 0.00000E+00 0.00000E+00 0.00000E+00 0.00000E+00 0.00000E+00 1.49480E-03 7.16638E-04 0.00000E+00
      296  0.00000E+00 0.00000E+00 0.00000E+00 0.00000E+00 0.00000E+00 0.00000E+00 0.00000E+00 0.00000E+00 0.00000E+00 1.55210E-03 3.65643E-04 0.00000E+00
      297  0.00000E+00 0.00000E+00 0.00000E+00 0.00000E+00 0.00000E+00 0.00000E+00 0.00000E+00 0.00000E+00 0.00000E+00 1.00430E-03 1.46670E-03 0.00000E+00
      298  0.00000E+00 0.00000E+00 0.00000E+00 0.00000E+00 0.00000E+00 0.00000E+00 0.00000E+00 0.00000E+00 0.00000E+00 6.73483E-04 1.52690E-03 0.00000E+00
      299  0.00000E+00 0.00000E+00 0.00000E+00 0.00000E+00 0.00000E+00 0.00000E+00 0.00000E+00 0.00000E+00 0.00000E+00 3.38751E-04 1.56720E-03 0.00000E+00
      300  0.00000E+00 0.00000E+00 0.00000E+00 0.00000E+00 0.00000E+00 0.00000E+00 0.00000E+00 0.00000E+00 0.00000E+00 1.07260E-03 1.11900E-03 0.00000E+00
      301  0.00000E+00 0.00000E+00 0.00000E+00 0.00000E+00 0.00000E+00 0.00000E+00 0.00000E+00 0.00000E+00 0.00000E+00 7.18764E-04 1.16310E-03 0.00000E+00
      302  0.00000E+00 0.00000E+00 0.00000E+00 0.00000E+00 0.00000E+00 0.00000E+00 0.00000E+00 0.00000E+00 0.00000E+00 3.60890E-04 1.18700E-03 0.00000E+00
      303  0.00000E+00 0.00000E+00 0.00000E+00 0.00000E+00 0.00000E+00 0.00000E+00 0.00000E+00 0.00000E+00 0.00000E+00 1.12790E-03 7.59903E-04 0.00000E+00
      304  0.00000E+00 0.00000E+00 0.00000E+00 0.00000E+00 0.00000E+00 0.00000E+00 0.00000E+00 0.00000E+00 0.00000E+00 7.54684E-04 7.87592E-04 0.00000E+00
      305  0.00000E+00 0.00000E+00 0.00000E+00 0.00000E+00 0.00000E+00 0.00000E+00 0.00000E+00 0.00000E+00 0.00000E+00 3.77845E-04 7.99321E-04 0.00000E+00
      306  0.00000E+00 0.00000E+00 0.00000E+00 0.00000E+00 0.00000E+00 0.00000E+00 0.00000E+00 0.00000E+00 0.00000E+00 1.16790E-03 3.87601E-04 0.00000E+00
      307  0.00000E+00 0.00000E+00 0.00000E+00 0.00000E+00 0.00000E+00 0.00000E+00 0.00000E+00 0.00000E+00 0.00000E+00 7.80099E-04 4.00361E-04 0.00000E+00
      308  0.00000E+00 0.00000E+00 0.00000E+00 0.00000E+00 0.00000E+00 0.00000E+00 0.00000E+00 0.00000E+00 0.00000E+00 3.90055E-04 4.03582E-04 0.00000E+00
      309  0.00000E+00 0.00000E+00 0.00000E+00 0.00000E+00 0.00000E+00 0.00000E+00 0.00000E+00 0.00000E+00 0.00000E+00 1.53460E-03 1.58390E-03 0.00000E+00
      310  0.00000E+00 0.00000E+00 0.00000E+00 0.00000E+00 0.00000E+00 0.00000E+00 0.00000E+00 0.00000E+00 0.00000E+00 1.75250E-03 1.79160E-03 0.00000E+00
      311  0.00000E+00 0.00000E+00 0.00000E+00 0.00000E+00 0.00000E+00 0.00000E+00 0.00000E+00 0.00000E+00 0.00000E+00 1.98780E-03 2.01100E-03 0.00000E+00
      312  0.00000E+00 0.00000E+00 0.00000E+00 0.00000E+00 0.00000E+00 0.00000E+00 0.00000E+00 0.00000E+00 0.00000E+00 1.17250E-03 1.74090E-03 0.00000E+00
      313  0.00000E+00 0.00000E+00 0.00000E+00 0.00000E+00 0.00000E+00 0.00000E+00 0.00000E+00 0.00000E+00 0.00000E+00 1.35390E-03 2.02660E-03 0.00000E+00
      314  0.00000E+00 0.00000E+00 0.00000E+00 0.00000E+00 0.00000E+00 0.00000E+00 0.00000E+00 0.00000E+00 0.00000E+00 1.55020E-03 2.32570E-03 0.00000E+00
      315  0.00000E+00 0.00000E+00 0.00000E+00 0.00000E+00 0.00000E+00 0.00000E+00 0.00000E+00 0.00000E+00 0.00000E+00 7.93386E-04 1.86070E-03 0.00000E+00
      316  0.00000E+00 0.00000E+00 0.00000E+00 0.00000E+00 0.00000E+00 0.00000E+00 0.00000E+00 0.00000E+00 0.00000E+00 9.23055E-04 2.20580E-03 0.00000E+00
      317  0.00000E+00 0.00000E+00 0.00000E+00 0.00000E+00 0.00000E+00 0.00000E+00 0.00000E+00 0.00000E+00 0.00000E+00 1.06330E-03 2.56300E-03 0.00000E+00
      318  0.00000E+00 0.00000E+00 0.00000E+00 0.00000E+00 0.00000E+00 0.00000E+00 0.00000E+00 0.00000E+00 0.00000E+00 4.01248E-04 1.94230E-03 0.00000E+00
      319  0.00000E+00 0.00000E+00 0.00000E+00 0.00000E+00 0.00000E+00 0.00000E+00 0.00000E+00 0.00000E+00 0.00000E+00 4.68736E-04 2.32500E-03 0.00000E+00
      320  0.00000E+00 0.00000E+00 0.00000E+00 0.00000E+00 0.00000E+00 0.00000E+00 0.00000E+00 0.00000E+00 0.00000E+00 5.41395E-04 2.71540E-03 0.00000E+00
      321  0.00000E+00 0.00000E+00 0.00000E+00 0.00000E+00 0.00000E+00 0.00000E+00 0.00000E+00 0.00000E+00 0.00000E+00 1.69680E-03 1.22120E-03 0.00000E+00
      322  0.00000E+00 0.00000E+00 0.00000E+00 0.00000E+00 0.00000E+00 0.00000E+00 0.00000E+00 0.00000E+00 0.00000E+00 1.83410E-03 8.41896E-04 0.00000E+00
      323  0.00000E+00 0.00000E+00 0.00000E+00 0.00000E+00 0.00000E+00 0.00000E+00 0.00000E+00 0.00000E+00 0.00000E+00 1.92660E-03 4.29536E-04 0.00000E+00
      324  0.00000E+00 0.00000E+00 0.00000E+00 0.00000E+00 0.00000E+00 0.00000E+00 0.00000E+00 0.00000E+00 0.00000E+00 1.99850E-03 1.40320E-03 0.00000E+00
      325  0.00000E+00 0.00000E+00 0.00000E+00 0.00000E+00 0.00000E+00 0.00000E+00 0.00000E+00 0.00000E+00 0.00000E+00 2.18020E-03 9.62156E-04 0.00000E+00
      326  0.00000E+00 0.00000E+00 0.00000E+00 0.00000E+00 0.00000E+00 0.00000E+00 0.00000E+00 0.00000E+00 0.00000E+00 2.31070E-03 4.94051E-04 0.00000E+00
      327  0.00000E+00 0.00000E+00 0.00000E+00 0.00000E+00 0.00000E+00 0.00000E+00 0.00000E+00 0.00000E+00 0.00000E+00 2.30180E-03 1.57500E-03 0.00000E+00
      328  0.00000E+00 0.00000E+00 0.00000E+00 0.00000E+00 0.00000E+00 0.00000E+00 0.00000E+00 0.00000E+00 0.00000E+00 2.54360E-03 1.08690E-03 0.00000E+00
      329  0.00000E+00 0.00000E+00 0.00000E+00 0.00000E+00 0.00000E+00 0.00000E+00 0.00000E+00 0.00000E+00 0.00000E+00 2.70530E-03 5.57707E-04 0.00000E+00
     1393  0.00000E+00 0.00000E+00 0.00000E+00 0.00000E+00 0.00000E+00 0.00000E+00 0.00000E+00 0.00000E+00 0.00000E+00 5.06350E-03 3.46450E-03 2.54000E-02
     1394  0.00000E+00 0.00000E+00 0.00000E+00 0.00000E+00 0.00000E+00 0.00000E+00 0.00000E+00 0.00000E+00 0.00000E+00 4.39630E-03 3.08660E-03 2.54000E-02
     1395  0.00000E+00 0.00000E+00 0.00000E+00 0.00000E+00 0.00000E+00 0.00000E+00 0.00000E+00 0.00000E+00 0.00000E+00 4.79610E-03 2.11650E-03 2.54000E-02
     1396  0.00000E+00 0.00000E+00 0.00000E+00 0.00000E+00 0.00000E+00 0.00000E+00 0.00000E+00 0.00000E+00 0.00000E+00 5.59560E-03 2.39090E-03 2.54000E-02
     1508  0.00000E+00 0.00000E+00 0.00000E+00 0.00000E+00 0.00000E+00 0.00000E+00 0.00000E+00 0.00000E+00 0.00000E+00 4.03460E-03 1.85190E-03 2.54000E-02
     1509  0.00000E+00 0.00000E+00 0.00000E+00 0.00000E+00 0.00000E+00 0.00000E+00 0.00000E+00 0.00000E+00 0.00000E+00 4.23810E-03 9.44846E-04 2.54000E-02
     1510  0.00000E+00 0.00000E+00 0.00000E+00 0.00000E+00 0.00000E+00 0.00000E+00 0.00000E+00 0.00000E+00 0.00000E+00 5.08320E-03 1.08680E-03 2.54000E-02
     1659  0.00000E+00 0.00000E+00 0.00000E+00 0.00000E+00 0.00000E+00 0.00000E+00 0.00000E+00 0.00000E+00 0.00000E+00 1.74630E-03 0.00000E+00 2.54000E-02
     1660  0.00000E+00 0.00000E+00 0.00000E+00 0.00000E+00 0.00000E+00 0.00000E+00 0.00000E+00 0.00000E+00 0.00000E+00 1.71610E-03 8.80673E-04 2.54000E-02
     1661  0.00000E+00 0.00000E+00 0.00000E+00 0.00000E+00 0.00000E+00 0.00000E+00 0.00000E+00 0.00000E+00 0.00000E+00 8.58014E-04 8.87771E-04 2.54000E-02
     1662  0.00000E+00 0.00000E+00 0.00000E+00 0.00000E+00 0.00000E+00 0.00000E+00 0.00000E+00 0.00000E+00 0.00000E+00 8.73125E-04 0.00000E+00 2.54000E-02
     1737  0.00000E+00 0.00000E+00 0.00000E+00 0.00000E+00 0.00000E+00 0.00000E+00 0.00000E+00 0.00000E+00 0.00000E+00 3.28810E-03 1.57640E-03 2.54000E-02
     1738  0.00000E+00 0.00000E+00 0.00000E+00 0.00000E+00 0.00000E+00 0.00000E+00 0.00000E+00 0.00000E+00 0.00000E+00 3.41430E-03 8.04351E-04 2.54000E-02
     1887  0.00000E+00 0.00000E+00 0.00000E+00 0.00000E+00 0.00000E+00 0.00000E+00 0.00000E+00 0.00000E+00 0.00000E+00 3.74200E-19 6.11190E-03 2.54000E-02
     1888  0.00000E+00 0.00000E+00 0.00000E+00 0.00000E+00 0.00000E+00 0.00000E+00 0.00000E+00 0.00000E+00 0.00000E+00 1.19100E-03 5.97350E-03 2.54000E-02
     1889  0.00000E+00 0.00000E+00 0.00000E+00 0.00000E+00 0.00000E+00 0.00000E+00 0.00000E+00 0.00000E+00 0.00000E+00 1.36270E-03 6.85080E-03 2.54000E-02
     1890  0.00000E+00 0.00000E+00 0.00000E+00 0.00000E+00 0.00000E+00 0.00000E+00 0.00000E+00 0.00000E+00 0.00000E+00 4.27700E-19 6.98500E-03 2.54000E-02
     2039  0.00000E+00 0.00000E+00 0.00000E+00 0.00000E+00 0.00000E+00 0.00000E+00 0.00000E+00 0.00000E+00 0.00000E+00 8.82654E-04 4.27270E-03 2.54000E-02
     2040  0.00000E+00 0.00000E+00 0.00000E+00 0.00000E+00 0.00000E+00 0.00000E+00 0.00000E+00 0.00000E+00 0.00000E+00 1.74530E-03 4.09330E-03 2.54000E-02
     2041  0.00000E+00 0.00000E+00 0.00000E+00 0.00000E+00 0.00000E+00 0.00000E+00 0.00000E+00 0.00000E+00 0.00000E+00 2.03050E-03 4.85210E-03 2.54000E-02
     2042  0.00000E+00 0.00000E+00 0.00000E+00 0.00000E+00 0.00000E+00 0.00000E+00 0.00000E+00 0.00000E+00 0.00000E+00 1.03110E-03 5.11440E-03 2.54000E-02
     2117  0.00000E+00 0.00000E+00 0.00000E+00 0.00000E+00 0.00000E+00 0.00000E+00 0.00000E+00 0.00000E+00 0.00000E+00 4.37290E-03 4.42390E-03 2.54000E-02
     2118  0.00000E+00 0.00000E+00 0.00000E+00 0.00000E+00 0.00000E+00 0.00000E+00 0.00000E+00 0.00000E+00 0.00000E+00 3.85520E-03 3.94130E-03 2.54000E-02
     2267  0.00000E+00 0.00000E+00 0.00000E+00 0.00000E+00 0.00000E+00 0.00000E+00 0.00000E+00 0.00000E+00 0.00000E+00 8.31168E-04 1.75840E-03 2.54000E-02
     2268  0.00000E+00 0.00000E+00 0.00000E+00 0.00000E+00 0.00000E+00 0.00000E+00 0.00000E+00 0.00000E+00 0.00000E+00 7.93862E-04 2.61110E-03 2.54000E-02
     2269  0.00000E+00 0.00000E+00 0.00000E+00 0.00000E+00 0.00000E+00 0.00000E+00 0.00000E+00 0.00000E+00 0.00000E+00 1.60400E-19 2.61940E-03 2.54000E-02
     2270  0.00000E+00 0.00000E+00 0.00000E+00 0.00000E+00 0.00000E+00 0.00000E+00 0.00000E+00 0.00000E+00 0.00000E+00 1.06900E-19 1.74630E-03 2.54000E-02
     2419  0.00000E+00 0.00000E+00 0.00000E+00 0.00000E+00 0.00000E+00 0.00000E+00 0.00000E+00 0.00000E+00 0.00000E+00 2.33910E-03 5.63810E-03 2.54000E-02
     2420  0.00000E+00 0.00000E+00 0.00000E+00 0.00000E+00 0.00000E+00 0.00000E+00 0.00000E+00 0.00000E+00 0.00000E+00 3.41020E-03 5.11610E-03 2.54000E-02
     2421  0.00000E+00 0.00000E+00 0.00000E+00 0.00000E+00 0.00000E+00 0.00000E+00 0.00000E+00 0.00000E+00 0.00000E+00 3.88050E-03 5.80790E-03 2.54000E-02
     2422  0.00000E+00 0.00000E+00 0.00000E+00 0.00000E+00 0.00000E+00 0.00000E+00 0.00000E+00 0.00000E+00 0.00000E+00 2.67310E-03 6.45330E-03 2.54000E-02
     2497  0.00000E+00 0.00000E+00 0.00000E+00 0.00000E+00 0.00000E+00 0.00000E+00 0.00000E+00 0.00000E+00 0.00000E+00 1.66020E-03 1.73250E-03 2.54000E-02
     2498  0.00000E+00 0.00000E+00 0.00000E+00 0.00000E+00 0.00000E+00 0.00000E+00 0.00000E+00 0.00000E+00 0.00000E+00 1.58110E-03 2.55860E-03 2.54000E-02
     2573  0.00000E+00 0.00000E+00 0.00000E+00 0.00000E+00 0.00000E+00 0.00000E+00 0.00000E+00 0.00000E+00 0.00000E+00 4.36560E-03 0.00000E+00 2.54000E-02
     2574  0.00000E+00 0.00000E+00 0.00000E+00 0.00000E+00 0.00000E+00 0.00000E+00 0.00000E+00 0.00000E+00 0.00000E+00 5.23880E-03 0.00000E+00 2.54000E-02
     2649  0.00000E+00 0.00000E+00 0.00000E+00 0.00000E+00 0.00000E+00 0.00000E+00 0.00000E+00 0.00000E+00 0.00000E+00 2.67300E-19 4.36560E-03 2.54000E-02
     2650  0.00000E+00 0.00000E+00 0.00000E+00 0.00000E+00 0.00000E+00 0.00000E+00 0.00000E+00 0.00000E+00 0.00000E+00 3.20800E-19 5.23880E-03 2.54000E-02
     2725  0.00000E+00 0.00000E+00 0.00000E+00 0.00000E+00 0.00000E+00 0.00000E+00 0.00000E+00 0.00000E+00 0.00000E+00 2.56920E-03 8.52619E-04 2.54000E-02
     2726  0.00000E+00 0.00000E+00 0.00000E+00 0.00000E+00 0.00000E+00 0.00000E+00 0.00000E+00 0.00000E+00 0.00000E+00 2.48110E-03 1.67160E-03 2.54000E-02
     2801  0.00000E+00 0.00000E+00 0.00000E+00 0.00000E+00 0.00000E+00 0.00000E+00 0.00000E+00 0.00000E+00 0.00000E+00 3.49250E-03 0.00000E+00 2.54000E-02
     2802  0.00000E+00 0.00000E+00 0.00000E+00 0.00000E+00 0.00000E+00 0.00000E+00 0.00000E+00 0.00000E+00 0.00000E+00 2.61940E-03 0.00000E+00 2.54000E-02
     2840  0.00000E+00 0.00000E+00 0.00000E+00 0.00000E+00 0.00000E+00 0.00000E+00 0.00000E+00 0.00000E+00 0.00000E+00 5.34600E-20 8.73125E-04 2.54000E-02
     2915  0.00000E+00 0.00000E+00 0.00000E+00 0.00000E+00 0.00000E+00 0.00000E+00 0.00000E+00 0.00000E+00 0.00000E+00 3.73260E-03 2.68650E-03 2.54000E-02
     2916  0.00000E+00 0.00000E+00 0.00000E+00 0.00000E+00 0.00000E+00 0.00000E+00 0.00000E+00 0.00000E+00 0.00000E+00 3.12370E-03 2.32290E-03 2.54000E-02
     2991  0.00000E+00 0.00000E+00 0.00000E+00 0.00000E+00 0.00000E+00 0.00000E+00 0.00000E+00 0.00000E+00 0.00000E+00 7.45181E-04 3.44750E-03 2.54000E-02
     2992  0.00000E+00 0.00000E+00 0.00000E+00 0.00000E+00 0.00000E+00 0.00000E+00 0.00000E+00 0.00000E+00 0.00000E+00 1.48150E-03 3.35880E-03 2.54000E-02
     3067  0.00000E+00 0.00000E+00 0.00000E+00 0.00000E+00 0.00000E+00 0.00000E+00 0.00000E+00 0.00000E+00 0.00000E+00 2.20920E-03 3.22650E-03 2.54000E-02
     3068  0.00000E+00 0.00000E+00 0.00000E+00 0.00000E+00 0.00000E+00 0.00000E+00 0.00000E+00 0.00000E+00 0.00000E+00 2.57920E-03 3.82940E-03 2.54000E-02
     3143  0.00000E+00 0.00000E+00 0.00000E+00 0.00000E+00 0.00000E+00 0.00000E+00 0.00000E+00 0.00000E+00 0.00000E+00 5.95110E-03 1.22680E-03 2.54000E-02
     3144  0.00000E+00 0.00000E+00 0.00000E+00 0.00000E+00 0.00000E+00 0.00000E+00 0.00000E+00 0.00000E+00 0.00000E+00 6.11190E-03 0.00000E+00 2.54000E-02
     3182  0.00000E+00 0.00000E+00 0.00000E+00 0.00000E+00 0.00000E+00 0.00000E+00 0.00000E+00 0.00000E+00 0.00000E+00 3.37580E-03 3.48420E-03 2.54000E-02
     3220  0.00000E+00 0.00000E+00 0.00000E+00 0.00000E+00 0.00000E+00 0.00000E+00 0.00000E+00 0.00000E+00 0.00000E+00 2.35950E-03 2.46150E-03 2.54000E-02
     3258  0.00000E+00 0.00000E+00 0.00000E+00 0.00000E+00 0.00000E+00 0.00000E+00 0.00000E+00 0.00000E+00 0.00000E+00 2.13900E-19 3.49250E-03 2.54000E-02
     3333  0.00000E+00 0.00000E+00 0.00000E+00 0.00000E+00 0.00000E+00 0.00000E+00 0.00000E+00 0.00000E+00 0.00000E+00 6.45340E-03 2.67280E-03 2.54000E-02
     3334  0.00000E+00 0.00000E+00 0.00000E+00 0.00000E+00 0.00000E+00 0.00000E+00 0.00000E+00 0.00000E+00 0.00000E+00 6.85080E-03 1.36290E-03 2.54000E-02
     3372  0.00000E+00 0.00000E+00 0.00000E+00 0.00000E+00 0.00000E+00 0.00000E+00 0.00000E+00 0.00000E+00 0.00000E+00 2.90300E-03 3.01110E-03 2.54000E-02
     3410  0.00000E+00 0.00000E+00 0.00000E+00 0.00000E+00 0.00000E+00 0.00000E+00 0.00000E+00 0.00000E+00 0.00000E+00 0.00000E+00 0.00000E+00 2.54000E-02
     3448  0.00000E+00 0.00000E+00 0.00000E+00 0.00000E+00 0.00000E+00 0.00000E+00 0.00000E+00 0.00000E+00 0.00000E+00 5.80790E-03 3.88060E-03 2.54000E-02
     3486  0.00000E+00 0.00000E+00 0.00000E+00 0.00000E+00 0.00000E+00 0.00000E+00 0.00000E+00 0.00000E+00 0.00000E+00 4.93910E-03 4.93920E-03 2.54000E-02
     3524  0.00000E+00 0.00000E+00 0.00000E+00 0.00000E+00 0.00000E+00 0.00000E+00 0.00000E+00 0.00000E+00 0.00000E+00 2.97820E-03 4.45810E-03 2.54000E-02
     3562  0.00000E+00 0.00000E+00 0.00000E+00 0.00000E+00 0.00000E+00 0.00000E+00 0.00000E+00 0.00000E+00 0.00000E+00 6.98500E-03 0.00000E+00 2.54000E-02
     3613  0.00000E+00 0.00000E+00 0.00000E+00 0.00000E+00 0.00000E+00 0.00000E+00 0.00000E+00 0.00000E+00 0.00000E+00 1.27000E-02 0.00000E+00 2.54000E-02
     3614  0.00000E+00 0.00000E+00 0.00000E+00 0.00000E+00 0.00000E+00 0.00000E+00 0.00000E+00 0.00000E+00 0.00000E+00 1.22604E-02 0.00000E+00 2.54000E-02
     3615  0.00000E+00 0.00000E+00 0.00000E+00 0.00000E+00 0.00000E+00 0.00000E+00 0.00000E+00 0.00000E+00 0.00000E+00 1.18208E-02 0.00000E+00 2.54000E-02
     3616  0.00000E+00 0.00000E+00 0.00000E+00 0.00000E+00 0.00000E+00 0.00000E+00 0.00000E+00 0.00000E+00 0.00000E+00 1.13812E-02 0.00000E+00 2.54000E-02
     3617  0.00000E+00 0.00000E+00 0.00000E+00 0.00000E+00 0.00000E+00 0.00000E+00 0.00000E+00 0.00000E+00 0.00000E+00 1.09415E-02 0.00000E+00 2.54000E-02
     3618  0.00000E+00 0.00000E+00 0.00000E+00 0.00000E+00 0.00000E+00 0.00000E+00 0.00000E+00 0.00000E+00 0.00000E+00 1.05019E-02 0.00000E+00 2.54000E-02
     3619  0.00000E+00 0.00000E+00 0.00000E+00 0.00000E+00 0.00000E+00 0.00000E+00 0.00000E+00 0.00000E+00 0.00000E+00 1.00623E-02 0.00000E+00 2.54000E-02
     3620  0.00000E+00 0.00000E+00 0.00000E+00 0.00000E+00 0.00000E+00 0.00000E+00 0.00000E+00 0.00000E+00 0.00000E+00 9.62270E-03 0.00000E+00 2.54000E-02
     3621  0.00000E+00 0.00000E+00 0.00000E+00 0.00000E+00 0.00000E+00 0.00000E+00 0.00000E+00 0.00000E+00 0.00000E+00 9.18310E-03 0.00000E+00 2.54000E-02
     3622  0.00000E+00 0.00000E+00 0.00000E+00 0.00000E+00 0.00000E+00 0.00000E+00 0.00000E+00 0.00000E+00 0.00000E+00 8.74350E-03 0.00000E+00 2.54000E-02
     3623  0.00000E+00 0.00000E+00 0.00000E+00 0.00000E+00 0.00000E+00 0.00000E+00 0.00000E+00 0.00000E+00 0.00000E+00 8.30380E-03 0.00000E+00 2.54000E-02
     3624  0.00000E+00 0.00000E+00 0.00000E+00 0.00000E+00 0.00000E+00 0.00000E+00 0.00000E+00 0.00000E+00 0.00000E+00 7.86420E-03 0.00000E+00 2.54000E-02
     3625  0.00000E+00 0.00000E+00 0.00000E+00 0.00000E+00 0.00000E+00 0.00000E+00 0.00000E+00 0.00000E+00 0.00000E+00 7.42460E-03 0.00000E+00 2.54000E-02
     4590  0.00000E+00 0.00000E+00 0.00000E+00 0.00000E+00 0.00000E+00 0.00000E+00 0.00000E+00 0.00000E+00 0.00000E+00 9.01040E-03 1.77220E-03 2.54000E-02
     4591  0.00000E+00 0.00000E+00 0.00000E+00 0.00000E+00 0.00000E+00 0.00000E+00 0.00000E+00 0.00000E+00 0.00000E+00 9.44240E-03 1.85410E-03 2.54000E-02
     4594  0.00000E+00 0.00000E+00 0.00000E+00 0.00000E+00 0.00000E+00 0.00000E+00 0.00000E+00 0.00000E+00 0.00000E+00 8.49600E-03 3.48510E-03 2.54000E-02
     4595  0.00000E+00 0.00000E+00 0.00000E+00 0.00000E+00 0.00000E+00 0.00000E+00 0.00000E+00 0.00000E+00 0.00000E+00 8.90450E-03 3.64750E-03 2.54000E-02
     4598  0.00000E+00 0.00000E+00 0.00000E+00 0.00000E+00 0.00000E+00 0.00000E+00 0.00000E+00 0.00000E+00 0.00000E+00 7.64550E-03 5.08680E-03 2.54000E-02
     4599  0.00000E+00 0.00000E+00 0.00000E+00 0.00000E+00 0.00000E+00 0.00000E+00 0.00000E+00 0.00000E+00 0.00000E+00 8.01300E-03 5.32800E-03 2.54000E-02
     4602  0.00000E+00 0.00000E+00 0.00000E+00 0.00000E+00 0.00000E+00 0.00000E+00 0.00000E+00 0.00000E+00 0.00000E+00 6.49670E-03 6.49010E-03 2.54000E-02
     4603  0.00000E+00 0.00000E+00 0.00000E+00 0.00000E+00 0.00000E+00 0.00000E+00 0.00000E+00 0.00000E+00 0.00000E+00 6.80820E-03 6.80030E-03 2.54000E-02
     4606  0.00000E+00 0.00000E+00 0.00000E+00 0.00000E+00 0.00000E+00 0.00000E+00 0.00000E+00 0.00000E+00 0.00000E+00 5.09410E-03 7.64060E-03 2.54000E-02
     4607  0.00000E+00 0.00000E+00 0.00000E+00 0.00000E+00 0.00000E+00 0.00000E+00 0.00000E+00 0.00000E+00 0.00000E+00 5.33680E-03 8.00720E-03 2.54000E-02
     4610  0.00000E+00 0.00000E+00 0.00000E+00 0.00000E+00 0.00000E+00 0.00000E+00 0.00000E+00 0.00000E+00 0.00000E+00 3.49120E-03 8.49350E-03 2.54000E-02
     4611  0.00000E+00 0.00000E+00 0.00000E+00 0.00000E+00 0.00000E+00 0.00000E+00 0.00000E+00 0.00000E+00 0.00000E+00 3.65490E-03 8.90150E-03 2.54000E-02
     4614  0.00000E+00 0.00000E+00 0.00000E+00 0.00000E+00 0.00000E+00 0.00000E+00 0.00000E+00 0.00000E+00 0.00000E+00 1.77510E-03 9.00990E-03 2.54000E-02
     4615  0.00000E+00 0.00000E+00 0.00000E+00 0.00000E+00 0.00000E+00 0.00000E+00 0.00000E+00 0.00000E+00 0.00000E+00 1.85760E-03 9.44170E-03 2.54000E-02
     4618  0.00000E+00 0.00000E+00 0.00000E+00 0.00000E+00 0.00000E+00 0.00000E+00 0.00000E+00 0.00000E+00 0.00000E+00 5.62300E-19 9.18310E-03 2.54000E-02
     4619  0.00000E+00 0.00000E+00 0.00000E+00 0.00000E+00 0.00000E+00 0.00000E+00 0.00000E+00 0.00000E+00 0.00000E+00 5.89200E-19 9.62270E-03 2.54000E-02
     4622  0.00000E+00 0.00000E+00 0.00000E+00 0.00000E+00 0.00000E+00 0.00000E+00 0.00000E+00 0.00000E+00 0.00000E+00 1.07382E-02 2.09970E-03 2.54000E-02
     4623  0.00000E+00 0.00000E+00 0.00000E+00 0.00000E+00 0.00000E+00 0.00000E+00 0.00000E+00 0.00000E+00 0.00000E+00 1.11701E-02 2.18150E-03 2.54000E-02
     4626  0.00000E+00 0.00000E+00 0.00000E+00 0.00000E+00 0.00000E+00 0.00000E+00 0.00000E+00 0.00000E+00 0.00000E+00 1.01301E-02 4.13490E-03 2.54000E-02
     4627  0.00000E+00 0.00000E+00 0.00000E+00 0.00000E+00 0.00000E+00 0.00000E+00 0.00000E+00 0.00000E+00 0.00000E+00 1.05386E-02 4.29730E-03 2.54000E-02
     4630  0.00000E+00 0.00000E+00 0.00000E+00 0.00000E+00 0.00000E+00 0.00000E+00 0.00000E+00 0.00000E+00 0.00000E+00 9.11560E-03 6.05170E-03 2.54000E-02
     4631  0.00000E+00 0.00000E+00 0.00000E+00 0.00000E+00 0.00000E+00 0.00000E+00 0.00000E+00 0.00000E+00 0.00000E+00 9.48310E-03 6.29300E-03 2.54000E-02
     4634  0.00000E+00 0.00000E+00 0.00000E+00 0.00000E+00 0.00000E+00 0.00000E+00 0.00000E+00 0.00000E+00 0.00000E+00 7.74280E-03 7.73090E-03 2.54000E-02
     4635  0.00000E+00 0.00000E+00 0.00000E+00 0.00000E+00 0.00000E+00 0.00000E+00 0.00000E+00 0.00000E+00 0.00000E+00 8.05430E-03 8.04110E-03 2.54000E-02
     4638  0.00000E+00 0.00000E+00 0.00000E+00 0.00000E+00 0.00000E+00 0.00000E+00 0.00000E+00 0.00000E+00 0.00000E+00 6.06500E-03 9.10680E-03 2.54000E-02
     4639  0.00000E+00 0.00000E+00 0.00000E+00 0.00000E+00 0.00000E+00 0.00000E+00 0.00000E+00 0.00000E+00 0.00000E+00 6.30770E-03 9.47330E-03 2.54000E-02
     4642  0.00000E+00 0.00000E+00 0.00000E+00 0.00000E+00 0.00000E+00 0.00000E+00 0.00000E+00 0.00000E+00 0.00000E+00 4.14580E-03 1.01257E-02 2.54000E-02
     4643  0.00000E+00 0.00000E+00 0.00000E+00 0.00000E+00 0.00000E+00 0.00000E+00 0.00000E+00 0.00000E+00 0.00000E+00 4.30940E-03 1.05337E-02 2.54000E-02
     4646  0.00000E+00 0.00000E+00 0.00000E+00 0.00000E+00 0.00000E+00 0.00000E+00 0.00000E+00 0.00000E+00 0.00000E+00 2.10510E-03 1.07371E-02 2.54000E-02
     4647  0.00000E+00 0.00000E+00 0.00000E+00 0.00000E+00 0.00000E+00 0.00000E+00 0.00000E+00 0.00000E+00 0.00000E+00 2.18760E-03 1.11689E-02 2.54000E-02
     4650  0.00000E+00 0.00000E+00 0.00000E+00 0.00000E+00 0.00000E+00 0.00000E+00 0.00000E+00 0.00000E+00 0.00000E+00 6.70000E-19 1.09415E-02 2.54000E-02
     4651  0.00000E+00 0.00000E+00 0.00000E+00 0.00000E+00 0.00000E+00 0.00000E+00 0.00000E+00 0.00000E+00 0.00000E+00 6.96900E-19 1.13812E-02 2.54000E-02
     4838  0.00000E+00 0.00000E+00 0.00000E+00 0.00000E+00 0.00000E+00 0.00000E+00 0.00000E+00 0.00000E+00 0.00000E+00 1.20340E-02 2.34520E-03 2.54000E-02
     4839  0.00000E+00 0.00000E+00 0.00000E+00 0.00000E+00 0.00000E+00 0.00000E+00 0.00000E+00 0.00000E+00 0.00000E+00 1.24659E-02 2.42710E-03 2.54000E-02
     4842  0.00000E+00 0.00000E+00 0.00000E+00 0.00000E+00 0.00000E+00 0.00000E+00 0.00000E+00 0.00000E+00 0.00000E+00 1.13557E-02 4.62220E-03 2.54000E-02
     4843  0.00000E+00 0.00000E+00 0.00000E+00 0.00000E+00 0.00000E+00 0.00000E+00 0.00000E+00 0.00000E+00 0.00000E+00 1.17642E-02 4.78470E-03 2.54000E-02
     4846  0.00000E+00 0.00000E+00 0.00000E+00 0.00000E+00 0.00000E+00 0.00000E+00 0.00000E+00 0.00000E+00 0.00000E+00 1.02181E-02 6.77540E-03 2.54000E-02
     4847  0.00000E+00 0.00000E+00 0.00000E+00 0.00000E+00 0.00000E+00 0.00000E+00 0.00000E+00 0.00000E+00 0.00000E+00 1.05857E-02 7.01670E-03 2.54000E-02
     4850  0.00000E+00 0.00000E+00 0.00000E+00 0.00000E+00 0.00000E+00 0.00000E+00 0.00000E+00 0.00000E+00 0.00000E+00 8.67740E-03 8.66140E-03 2.54000E-02
     4851  0.00000E+00 0.00000E+00 0.00000E+00 0.00000E+00 0.00000E+00 0.00000E+00 0.00000E+00 0.00000E+00 0.00000E+00 8.98890E-03 8.97160E-03 2.54000E-02
     4854  0.00000E+00 0.00000E+00 0.00000E+00 0.00000E+00 0.00000E+00 0.00000E+00 0.00000E+00 0.00000E+00 0.00000E+00 6.79310E-03 1.02064E-02 2.54000E-02
     4855  0.00000E+00 0.00000E+00 0.00000E+00 0.00000E+00 0.00000E+00 0.00000E+00 0.00000E+00 0.00000E+00 0.00000E+00 7.03580E-03 1.05729E-02 2.54000E-02
     4858  0.00000E+00 0.00000E+00 0.00000E+00 0.00000E+00 0.00000E+00 0.00000E+00 0.00000E+00 0.00000E+00 0.00000E+00 4.63670E-03 1.13498E-02 2.54000E-02
     4859  0.00000E+00 0.00000E+00 0.00000E+00 0.00000E+00 0.00000E+00 0.00000E+00 0.00000E+00 0.00000E+00 0.00000E+00 4.80030E-03 1.17579E-02 2.54000E-02
     4862  0.00000E+00 0.00000E+00 0.00000E+00 0.00000E+00 0.00000E+00 0.00000E+00 0.00000E+00 0.00000E+00 0.00000E+00 2.35260E-03 1.20326E-02 2.54000E-02
     4863  0.00000E+00 0.00000E+00 0.00000E+00 0.00000E+00 0.00000E+00 0.00000E+00 0.00000E+00 0.00000E+00 0.00000E+00 2.43500E-03 1.24644E-02 2.54000E-02
     4866  0.00000E+00 0.00000E+00 0.00000E+00 0.00000E+00 0.00000E+00 0.00000E+00 0.00000E+00 0.00000E+00 0.00000E+00 7.50700E-19 1.22604E-02 2.54000E-02
     4867  0.00000E+00 0.00000E+00 0.00000E+00 0.00000E+00 0.00000E+00 0.00000E+00 0.00000E+00 0.00000E+00 0.00000E+00 7.77700E-19 1.27000E-02 2.54000E-02
     6646  0.00000E+00 0.00000E+00 0.00000E+00 0.00000E+00 0.00000E+00 0.00000E+00 0.00000E+00 0.00000E+00 0.00000E+00 1.03062E-02 2.01780E-03 2.54000E-02
     6647  0.00000E+00 0.00000E+00 0.00000E+00 0.00000E+00 0.00000E+00 0.00000E+00 0.00000E+00 0.00000E+00 0.00000E+00 9.72160E-03 3.97240E-03 2.54000E-02
     6648  0.00000E+00 0.00000E+00 0.00000E+00 0.00000E+00 0.00000E+00 0.00000E+00 0.00000E+00 0.00000E+00 0.00000E+00 8.74800E-03 5.81050E-03 2.54000E-02
     6649  0.00000E+00 0.00000E+00 0.00000E+00 0.00000E+00 0.00000E+00 0.00000E+00 0.00000E+00 0.00000E+00 0.00000E+00 7.43130E-03 7.42070E-03 2.54000E-02
     6650  0.00000E+00 0.00000E+00 0.00000E+00 0.00000E+00 0.00000E+00 0.00000E+00 0.00000E+00 0.00000E+00 0.00000E+00 5.82220E-03 8.74020E-03 2.54000E-02
     6651  0.00000E+00 0.00000E+00 0.00000E+00 0.00000E+00 0.00000E+00 0.00000E+00 0.00000E+00 0.00000E+00 0.00000E+00 3.98210E-03 9.71760E-03 2.54000E-02
     6652  0.00000E+00 0.00000E+00 0.00000E+00 0.00000E+00 0.00000E+00 0.00000E+00 0.00000E+00 0.00000E+00 0.00000E+00 2.02260E-03 1.03053E-02 2.54000E-02
     6653  0.00000E+00 0.00000E+00 0.00000E+00 0.00000E+00 0.00000E+00 0.00000E+00 0.00000E+00 0.00000E+00 0.00000E+00 6.43100E-19 1.05019E-02 2.54000E-02
     6838  0.00000E+00 0.00000E+00 0.00000E+00 0.00000E+00 0.00000E+00 0.00000E+00 0.00000E+00 0.00000E+00 0.00000E+00 7.71460E-03 1.52660E-03 2.54000E-02
     6839  0.00000E+00 0.00000E+00 0.00000E+00 0.00000E+00 0.00000E+00 0.00000E+00 0.00000E+00 0.00000E+00 0.00000E+00 8.14660E-03 1.60850E-03 2.54000E-02
     6841  0.00000E+00 0.00000E+00 0.00000E+00 0.00000E+00 0.00000E+00 0.00000E+00 0.00000E+00 0.00000E+00 0.00000E+00 7.27050E-03 2.99770E-03 2.54000E-02
     6842  0.00000E+00 0.00000E+00 0.00000E+00 0.00000E+00 0.00000E+00 0.00000E+00 0.00000E+00 0.00000E+00 0.00000E+00 7.67900E-03 3.16020E-03 2.54000E-02
     6844  0.00000E+00 0.00000E+00 0.00000E+00 0.00000E+00 0.00000E+00 0.00000E+00 0.00000E+00 0.00000E+00 0.00000E+00 6.54290E-03 4.36310E-03 2.54000E-02
     6845  0.00000E+00 0.00000E+00 0.00000E+00 0.00000E+00 0.00000E+00 0.00000E+00 0.00000E+00 0.00000E+00 0.00000E+00 6.91040E-03 4.60430E-03 2.54000E-02
     6847  0.00000E+00 0.00000E+00 0.00000E+00 0.00000E+00 0.00000E+00 0.00000E+00 0.00000E+00 0.00000E+00 0.00000E+00 5.56210E-03 5.55960E-03 2.54000E-02
     6848  0.00000E+00 0.00000E+00 0.00000E+00 0.00000E+00 0.00000E+00 0.00000E+00 0.00000E+00 0.00000E+00 0.00000E+00 5.87360E-03 5.86980E-03 2.54000E-02
     6850  0.00000E+00 0.00000E+00 0.00000E+00 0.00000E+00 0.00000E+00 0.00000E+00 0.00000E+00 0.00000E+00 0.00000E+00 4.36590E-03 6.54100E-03 2.54000E-02
     6851  0.00000E+00 0.00000E+00 0.00000E+00 0.00000E+00 0.00000E+00 0.00000E+00 0.00000E+00 0.00000E+00 0.00000E+00 4.60870E-03 6.90750E-03 2.54000E-02
     6853  0.00000E+00 0.00000E+00 0.00000E+00 0.00000E+00 0.00000E+00 0.00000E+00 0.00000E+00 0.00000E+00 0.00000E+00 3.00040E-03 7.26940E-03 2.54000E-02
     6854  0.00000E+00 0.00000E+00 0.00000E+00 0.00000E+00 0.00000E+00 0.00000E+00 0.00000E+00 0.00000E+00 0.00000E+00 3.16400E-03 7.67740E-03 2.54000E-02
     6856  0.00000E+00 0.00000E+00 0.00000E+00 0.00000E+00 0.00000E+00 0.00000E+00 0.00000E+00 0.00000E+00 0.00000E+00 1.52770E-03 7.71440E-03 2.54000E-02
     6857  0.00000E+00 0.00000E+00 0.00000E+00 0.00000E+00 0.00000E+00 0.00000E+00 0.00000E+00 0.00000E+00 0.00000E+00 1.61020E-03 8.14620E-03 2.54000E-02
     6859  0.00000E+00 0.00000E+00 0.00000E+00 0.00000E+00 0.00000E+00 0.00000E+00 0.00000E+00 0.00000E+00 0.00000E+00 4.81500E-19 7.86420E-03 2.54000E-02
     6860  0.00000E+00 0.00000E+00 0.00000E+00 0.00000E+00 0.00000E+00 0.00000E+00 0.00000E+00 0.00000E+00 0.00000E+00 5.08500E-19 8.30380E-03 2.54000E-02
     6894  0.00000E+00 0.00000E+00 0.00000E+00 0.00000E+00 0.00000E+00 0.00000E+00 0.00000E+00 0.00000E+00 0.00000E+00 9.87430E-03 1.93590E-03 2.54000E-02
     6895  0.00000E+00 0.00000E+00 0.00000E+00 0.00000E+00 0.00000E+00 0.00000E+00 0.00000E+00 0.00000E+00 0.00000E+00 9.31310E-03 3.81000E-03 2.54000E-02
     6896  0.00000E+00 0.00000E+00 0.00000E+00 0.00000E+00 0.00000E+00 0.00000E+00 0.00000E+00 0.00000E+00 0.00000E+00 8.38050E-03 5.56930E-03 2.54000E-02
     6897  0.00000E+00 0.00000E+00 0.00000E+00 0.00000E+00 0.00000E+00 0.00000E+00 0.00000E+00 0.00000E+00 0.00000E+00 7.11970E-03 7.11050E-03 2.54000E-02
     6898  0.00000E+00 0.00000E+00 0.00000E+00 0.00000E+00 0.00000E+00 0.00000E+00 0.00000E+00 0.00000E+00 0.00000E+00 5.57950E-03 8.37370E-03 2.54000E-02
     6899  0.00000E+00 0.00000E+00 0.00000E+00 0.00000E+00 0.00000E+00 0.00000E+00 0.00000E+00 0.00000E+00 0.00000E+00 3.81850E-03 9.30960E-03 2.54000E-02
     6900  0.00000E+00 0.00000E+00 0.00000E+00 0.00000E+00 0.00000E+00 0.00000E+00 0.00000E+00 0.00000E+00 0.00000E+00 1.94010E-03 9.87350E-03 2.54000E-02
     6901  0.00000E+00 0.00000E+00 0.00000E+00 0.00000E+00 0.00000E+00 0.00000E+00 0.00000E+00 0.00000E+00 0.00000E+00 6.16100E-19 1.00623E-02 2.54000E-02
     6990  0.00000E+00 0.00000E+00 0.00000E+00 0.00000E+00 0.00000E+00 0.00000E+00 0.00000E+00 0.00000E+00 0.00000E+00 7.28270E-03 1.44470E-03 2.54000E-02
     6991  0.00000E+00 0.00000E+00 0.00000E+00 0.00000E+00 0.00000E+00 0.00000E+00 0.00000E+00 0.00000E+00 0.00000E+00 6.86190E-03 2.83520E-03 2.54000E-02
     6992  0.00000E+00 0.00000E+00 0.00000E+00 0.00000E+00 0.00000E+00 0.00000E+00 0.00000E+00 0.00000E+00 0.00000E+00 6.17540E-03 4.12180E-03 2.54000E-02
     6993  0.00000E+00 0.00000E+00 0.00000E+00 0.00000E+00 0.00000E+00 0.00000E+00 0.00000E+00 0.00000E+00 0.00000E+00 5.25060E-03 5.24940E-03 2.54000E-02
     6994  0.00000E+00 0.00000E+00 0.00000E+00 0.00000E+00 0.00000E+00 0.00000E+00 0.00000E+00 0.00000E+00 0.00000E+00 4.12320E-03 6.17450E-03 2.54000E-02
     6995  0.00000E+00 0.00000E+00 0.00000E+00 0.00000E+00 0.00000E+00 0.00000E+00 0.00000E+00 0.00000E+00 0.00000E+00 2.83670E-03 6.86130E-03 2.54000E-02
     6996  0.00000E+00 0.00000E+00 0.00000E+00 0.00000E+00 0.00000E+00 0.00000E+00 0.00000E+00 0.00000E+00 0.00000E+00 1.44520E-03 7.28260E-03 2.54000E-02
     6997  0.00000E+00 0.00000E+00 0.00000E+00 0.00000E+00 0.00000E+00 0.00000E+00 0.00000E+00 0.00000E+00 0.00000E+00 4.54600E-19 7.42460E-03 2.54000E-02
     7454  0.00000E+00 0.00000E+00 0.00000E+00 0.00000E+00 0.00000E+00 0.00000E+00 0.00000E+00 0.00000E+00 0.00000E+00 1.16021E-02 2.26340E-03 2.54000E-02
     7455  0.00000E+00 0.00000E+00 0.00000E+00 0.00000E+00 0.00000E+00 0.00000E+00 0.00000E+00 0.00000E+00 0.00000E+00 1.09472E-02 4.45980E-03 2.54000E-02
     7456  0.00000E+00 0.00000E+00 0.00000E+00 0.00000E+00 0.00000E+00 0.00000E+00 0.00000E+00 0.00000E+00 0.00000E+00 9.85060E-03 6.53420E-03 2.54000E-02
     7457  0.00000E+00 0.00000E+00 0.00000E+00 0.00000E+00 0.00000E+00 0.00000E+00 0.00000E+00 0.00000E+00 0.00000E+00 8.36590E-03 8.35120E-03 2.54000E-02
     7458  0.00000E+00 0.00000E+00 0.00000E+00 0.00000E+00 0.00000E+00 0.00000E+00 0.00000E+00 0.00000E+00 0.00000E+00 6.55040E-03 9.83990E-03 2.54000E-02
     7459  0.00000E+00 0.00000E+00 0.00000E+00 0.00000E+00 0.00000E+00 0.00000E+00 0.00000E+00 0.00000E+00 0.00000E+00 4.47300E-03 1.09418E-02 2.54000E-02
     7460  0.00000E+00 0.00000E+00 0.00000E+00 0.00000E+00 0.00000E+00 0.00000E+00 0.00000E+00 0.00000E+00 0.00000E+00 2.27010E-03 1.16007E-02 2.54000E-02
     7461  0.00000E+00 0.00000E+00 0.00000E+00 0.00000E+00 0.00000E+00 0.00000E+00 0.00000E+00 0.00000E+00 0.00000E+00 7.23800E-19 1.18208E-02 2.54000E-02
     7934  0.00000E+00 0.00000E+00 0.00000E+00 0.00000E+00 0.00000E+00 0.00000E+00 0.00000E+00 0.00000E+00 0.00000E+00 8.57850E-03 1.69030E-03 2.54000E-02
     7936  0.00000E+00 0.00000E+00 0.00000E+00 0.00000E+00 0.00000E+00 0.00000E+00 0.00000E+00 0.00000E+00 0.00000E+00 8.08750E-03 3.32260E-03 2.54000E-02
     7938  0.00000E+00 0.00000E+00 0.00000E+00 0.00000E+00 0.00000E+00 0.00000E+00 0.00000E+00 0.00000E+00 0.00000E+00 7.27790E-03 4.84560E-03 2.54000E-02
     7940  0.00000E+00 0.00000E+00 0.00000E+00 0.00000E+00 0.00000E+00 0.00000E+00 0.00000E+00 0.00000E+00 0.00000E+00 6.18520E-03 6.18000E-03 2.54000E-02
     7942  0.00000E+00 0.00000E+00 0.00000E+00 0.00000E+00 0.00000E+00 0.00000E+00 0.00000E+00 0.00000E+00 0.00000E+00 4.85140E-03 7.27410E-03 2.54000E-02
     7944  0.00000E+00 0.00000E+00 0.00000E+00 0.00000E+00 0.00000E+00 0.00000E+00 0.00000E+00 0.00000E+00 0.00000E+00 3.32760E-03 8.08550E-03 2.54000E-02
     7946  0.00000E+00 0.00000E+00 0.00000E+00 0.00000E+00 0.00000E+00 0.00000E+00 0.00000E+00 0.00000E+00 0.00000E+00 1.69260E-03 8.57800E-03 2.54000E-02
     7948  0.00000E+00 0.00000E+00 0.00000E+00 0.00000E+00 0.00000E+00 0.00000E+00 0.00000E+00 0.00000E+00 0.00000E+00 5.35400E-19 8.74350E-03 2.54000E-02



 n o d a l   p r i n t   o u t   f o r   t i m e  s t e p      18                              ( at time 1.2924466E+00 )

 nodal point  x-disp     y-disp      z-disp      x-vel       y-vel       z-vel      x-accl      y-accl      z-accl      x-coor      y-coor      z-coor
      269  3.30188E-06 0.00000E+00 0.00000E+00 0.00000E+00 0.00000E+00 0.00000E+00 0.00000E+00 0.00000E+00 0.00000E+00 3.17830E-03 0.00000E+00 1.77600E-18
      270  2.67869E-06 0.00000E+00 0.00000E+00 0.00000E+00 0.00000E+00 0.00000E+00 0.00000E+00 0.00000E+00 0.00000E+00 2.78078E-03 0.00000E+00 0.00000E+00
      271  2.16112E-06 0.00000E+00 0.00000E+00 0.00000E+00 0.00000E+00 0.00000E+00 0.00000E+00 0.00000E+00 0.00000E+00 2.38346E-03 0.00000E+00 0.00000E+00
      272  1.71370E-06 0.00000E+00 0.00000E+00 0.00000E+00 0.00000E+00 0.00000E+00 0.00000E+00 0.00000E+00 0.00000E+00 1.98611E-03 0.00000E+00 0.00000E+00
      273  1.31794E-06 0.00000E+00 0.00000E+00 0.00000E+00 0.00000E+00 0.00000E+00 0.00000E+00 0.00000E+00 0.00000E+00 1.58882E-03 0.00000E+00 0.00000E+00
      274  9.59908E-07 0.00000E+00 0.00000E+00 0.00000E+00 0.00000E+00 0.00000E+00 0.00000E+00 0.00000E+00 0.00000E+00 1.19156E-03 0.00000E+00 0.00000E+00
      275  6.26997E-07 0.00000E+00 0.00000E+00 0.00000E+00 0.00000E+00 0.00000E+00 0.00000E+00 0.00000E+00 0.00000E+00 7.94377E-04 0.00000E+00 0.00000E+00
      276  3.09760E-07 0.00000E+00 0.00000E+00 0.00000E+00 0.00000E+00 0.00000E+00 0.00000E+00 0.00000E+00 0.00000E+00 3.97185E-04 0.00000E+00 0.00000E+00
      277  0.00000E+00 0.00000E+00 0.00000E+00 0.00000E+00 0.00000E+00 0.00000E+00 0.00000E+00 0.00000E+00 0.00000E+00 0.00000E+00 0.00000E+00 0.00000E+00
      278  0.00000E+00 3.12838E-07 0.00000E+00 0.00000E+00 0.00000E+00 0.00000E+00 0.00000E+00 0.00000E+00 0.00000E+00 2.43000E-20 3.97188E-04 0.00000E+00
      279  0.00000E+00 6.34098E-07 0.00000E+00 0.00000E+00 0.00000E+00 0.00000E+00 0.00000E+00 0.00000E+00 0.00000E+00 4.86000E-20 7.94384E-04 0.00000E+00
      280  0.00000E+00 9.72404E-07 0.00000E+00 0.00000E+00 0.00000E+00 0.00000E+00 0.00000E+00 0.00000E+00 0.00000E+00 7.29000E-20 1.19157E-03 0.00000E+00
      281  0.00000E+00 1.33796E-06 0.00000E+00 0.00000E+00 0.00000E+00 0.00000E+00 0.00000E+00 0.00000E+00 0.00000E+00 9.72100E-20 1.58884E-03 0.00000E+00
      282  0.00000E+00 1.74309E-06 0.00000E+00 0.00000E+00 0.00000E+00 0.00000E+00 0.00000E+00 0.00000E+00 0.00000E+00 1.21500E-19 1.98614E-03 0.00000E+00
      283  0.00000E+00 2.20174E-06 0.00000E+00 0.00000E+00 0.00000E+00 0.00000E+00 0.00000E+00 0.00000E+00 0.00000E+00 1.45800E-19 2.38350E-03 0.00000E+00
      284  0.00000E+00 2.73410E-06 0.00000E+00 0.00000E+00 0.00000E+00 0.00000E+00 0.00000E+00 0.00000E+00 0.00000E+00 1.70100E-19 2.78083E-03 0.00000E+00
      285  0.00000E+00 3.36921E-06 0.00000E+00 0.00000E+00 0.00000E+00 0.00000E+00 0.00000E+00 0.00000E+00 0.00000E+00 1.94400E-19 3.17837E-03 0.00000E+00
      286  6.23069E-07 3.25205E-06 0.00000E+00 0.00000E+00 0.00000E+00 0.00000E+00 0.00000E+00 0.00000E+00 0.00000E+00 6.20035E-04 3.11725E-03 0.00000E+00
      287  1.23983E-06 3.10425E-06 0.00000E+00 0.00000E+00 0.00000E+00 0.00000E+00 0.00000E+00 0.00000E+00 0.00000E+00 1.21624E-03 2.93640E-03 0.00000E+00
      288  1.81236E-06 2.83422E-06 0.00000E+00 0.00000E+00 0.00000E+00 0.00000E+00 0.00000E+00 0.00000E+00 0.00000E+00 1.76571E-03 2.64273E-03 0.00000E+00
      289  2.32219E-06 2.45943E-06 0.00000E+00 0.00000E+00 0.00000E+00 0.00000E+00 0.00000E+00 0.00000E+00 0.00000E+00 2.24742E-03 2.24756E-03 0.00000E+00
      290  2.73794E-06 1.96724E-06 0.00000E+00 0.00000E+00 0.00000E+00 0.00000E+00 0.00000E+00 0.00000E+00 0.00000E+00 2.64264E-03 1.76587E-03 0.00000E+00
      291  3.05001E-06 1.37402E-06 0.00000E+00 0.00000E+00 0.00000E+00 0.00000E+00 0.00000E+00 0.00000E+00 0.00000E+00 2.93635E-03 1.21637E-03 0.00000E+00
      292  3.24275E-06 7.06591E-07 0.00000E+00 0.00000E+00 0.00000E+00 0.00000E+00 0.00000E+00 0.00000E+00 0.00000E+00 3.11724E-03 6.20118E-04 0.00000E+00
      293  1.15546E-06 1.19116E-06 0.00000E+00 0.00000E+00 0.00000E+00 0.00000E+00 0.00000E+00 0.00000E+00 0.00000E+00 1.32076E-03 1.36999E-03 0.00000E+00
      294  1.21732E-06 9.03554E-07 0.00000E+00 0.00000E+00 0.00000E+00 0.00000E+00 0.00000E+00 0.00000E+00 0.00000E+00 1.42112E-03 1.05690E-03 0.00000E+00
      295  1.26018E-06 6.03640E-07 0.00000E+00 0.00000E+00 0.00000E+00 0.00000E+00 0.00000E+00 0.00000E+00 0.00000E+00 1.49606E-03 7.17242E-04 0.00000E+00
      296  1.29458E-06 3.04999E-07 0.00000E+00 0.00000E+00 0.00000E+00 0.00000E+00 0.00000E+00 0.00000E+00 0.00000E+00 1.55339E-03 3.65948E-04 0.00000E+00
      297  8.68489E-07 1.25644E-06 0.00000E+00 0.00000E+00 0.00000E+00 0.00000E+00 0.00000E+00 0.00000E+00 0.00000E+00 1.00517E-03 1.46796E-03 0.00000E+00
      298  5.73829E-07 1.28303E-06 0.00000E+00 0.00000E+00 0.00000E+00 0.00000E+00 0.00000E+00 0.00000E+00 0.00000E+00 6.74057E-04 1.52818E-03 0.00000E+00
      299  2.84474E-07 1.29276E-06 0.00000E+00 0.00000E+00 0.00000E+00 0.00000E+00 0.00000E+00 0.00000E+00 0.00000E+00 3.39036E-04 1.56849E-03 0.00000E+00
      300  9.00517E-07 9.36466E-07 0.00000E+00 0.00000E+00 0.00000E+00 0.00000E+00 0.00000E+00 0.00000E+00 0.00000E+00 1.07350E-03 1.11994E-03 0.00000E+00
      301  5.94394E-07 9.52012E-07 0.00000E+00 0.00000E+00 0.00000E+00 0.00000E+00 0.00000E+00 0.00000E+00 0.00000E+00 7.19358E-04 1.16405E-03 0.00000E+00
      302  2.95329E-07 9.51594E-07 0.00000E+00 0.00000E+00 0.00000E+00 0.00000E+00 0.00000E+00 0.00000E+00 0.00000E+00 3.61185E-04 1.18795E-03 0.00000E+00
      303  9.28315E-07 6.26155E-07 0.00000E+00 0.00000E+00 0.00000E+00 0.00000E+00 0.00000E+00 0.00000E+00 0.00000E+00 1.12883E-03 7.60529E-04 0.00000E+00
      304  6.10272E-07 6.32588E-07 0.00000E+00 0.00000E+00 0.00000E+00 0.00000E+00 0.00000E+00 0.00000E+00 0.00000E+00 7.55294E-04 7.88224E-04 0.00000E+00
      305  3.02308E-07 6.28024E-07 0.00000E+00 0.00000E+00 0.00000E+00 0.00000E+00 0.00000E+00 0.00000E+00 0.00000E+00 3.78148E-04 7.99949E-04 0.00000E+00
      306  9.47878E-07 3.16472E-07 0.00000E+00 0.00000E+00 0.00000E+00 0.00000E+00 0.00000E+00 0.00000E+00 0.00000E+00 1.16885E-03 3.87918E-04 0.00000E+00
      307  6.20969E-07 3.17881E-07 0.00000E+00 0.00000E+00 0.00000E+00 0.00000E+00 0.00000E+00 0.00000E+00 0.00000E+00 7.80720E-04 4.00678E-04 0.00000E+00
      308  3.06940E-07 3.13303E-07 0.00000E+00 0.00000E+00 0.00000E+00 0.00000E+00 0.00000E+00 0.00000E+00 0.00000E+00 3.90362E-04 4.03895E-04 0.00000E+00
      309  1.38830E-06 1.42769E-06 0.00000E+00 0.00000E+00 0.00000E+00 0.00000E+00 0.00000E+00 0.00000E+00 0.00000E+00 1.53599E-03 1.58533E-03 0.00000E+00
      310  1.64937E-06 1.68585E-06 0.00000E+00 0.00000E+00 0.00000E+00 0.00000E+00 0.00000E+00 0.00000E+00 0.00000E+00 1.75415E-03 1.79329E-03 0.00000E+00
      311  1.99141E-06 1.97722E-06 0.00000E+00 0.00000E+00 0.00000E+00 0.00000E+00 0.00000E+00 0.00000E+00 0.00000E+00 1.98979E-03 2.01298E-03 0.00000E+00
      312  1.04547E-06 1.54368E-06 0.00000E+00 0.00000E+00 0.00000E+00 0.00000E+00 0.00000E+00 0.00000E+00 0.00000E+00 1.17355E-03 1.74244E-03 0.00000E+00
      313  1.25963E-06 1.88002E-06 0.00000E+00 0.00000E+00 0.00000E+00 0.00000E+00 0.00000E+00 0.00000E+00 0.00000E+00 1.35516E-03 2.02848E-03 0.00000E+00
      314  1.54511E-06 2.27457E-06 0.00000E+00 0.00000E+00 0.00000E+00 0.00000E+00 0.00000E+00 0.00000E+00 0.00000E+00 1.55175E-03 2.32797E-03 0.00000E+00
      315  6.98248E-07 1.62228E-06 0.00000E+00 0.00000E+00 0.00000E+00 0.00000E+00 0.00000E+00 0.00000E+00 0.00000E+00 7.94084E-04 1.86232E-03 0.00000E+00
      316  8.49549E-07 2.01861E-06 0.00000E+00 0.00000E+00 0.00000E+00 0.00000E+00 0.00000E+00 0.00000E+00 0.00000E+00 9.23904E-04 2.20782E-03 0.00000E+00
      317  1.05349E-06 2.48966E-06 0.00000E+00 0.00000E+00 0.00000E+00 0.00000E+00 0.00000E+00 0.00000E+00 0.00000E+00 1.06435E-03 2.56549E-03 0.00000E+00
      318  3.47405E-07 1.66640E-06 0.00000E+00 0.00000E+00 0.00000E+00 0.00000E+00 0.00000E+00 0.00000E+00 0.00000E+00 4.01596E-04 1.94397E-03 0.00000E+00
      319  4.24516E-07 2.09903E-06 0.00000E+00 0.00000E+00 0.00000E+00 0.00000E+00 0.00000E+00 0.00000E+00 0.00000E+00 4.69161E-04 2.32710E-03 0.00000E+00
      320  5.29877E-07 2.61267E-06 0.00000E+00 0.00000E+00 0.00000E+00 0.00000E+00 0.00000E+00 0.00000E+00 0.00000E+00 5.41925E-04 2.71801E-03 0.00000E+00
      321  1.50595E-06 1.08222E-06 0.00000E+00 0.00000E+00 0.00000E+00 0.00000E+00 0.00000E+00 0.00000E+00 0.00000E+00 1.69831E-03 1.22228E-03 0.00000E+00
      322  1.60321E-06 7.37129E-07 0.00000E+00 0.00000E+00 0.00000E+00 0.00000E+00 0.00000E+00 0.00000E+00 0.00000E+00 1.83570E-03 8.42633E-04 0.00000E+00
      323  1.66801E-06 3.73459E-07 0.00000E+00 0.00000E+00 0.00000E+00 0.00000E+00 0.00000E+00 0.00000E+00 0.00000E+00 1.92827E-03 4.29909E-04 0.00000E+00
      324  1.85515E-06 1.30499E-06 0.00000E+00 0.00000E+00 0.00000E+00 0.00000E+00 0.00000E+00 0.00000E+00 0.00000E+00 2.00036E-03 1.40450E-03 0.00000E+00
      325  1.99473E-06 8.84409E-07 0.00000E+00 0.00000E+00 0.00000E+00 0.00000E+00 0.00000E+00 0.00000E+00 0.00000E+00 2.18219E-03 9.63041E-04 0.00000E+00
      326  2.09878E-06 4.52049E-07 0.00000E+00 0.00000E+00 0.00000E+00 0.00000E+00 0.00000E+00 0.00000E+00 0.00000E+00 2.31280E-03 4.94503E-04 0.00000E+00
      327  2.27178E-06 1.52636E-06 0.00000E+00 0.00000E+00 0.00000E+00 0.00000E+00 0.00000E+00 0.00000E+00 0.00000E+00 2.30407E-03 1.57653E-03 0.00000E+00
      328  2.47624E-06 1.04007E-06 0.00000E+00 0.00000E+00 0.00000E+00 0.00000E+00 0.00000E+00 0.00000E+00 0.00000E+00 2.54608E-03 1.08794E-03 0.00000E+00
      329  2.61314E-06 5.30398E-07 0.00000E+00 0.00000E+00 0.00000E+00 0.00000E+00 0.00000E+00 0.00000E+00 0.00000E+00 2.70791E-03 5.58237E-04 0.00000E+00
     1393  5.23475E-07 3.55988E-07-2.58489E-05 0.00000E+00 0.00000E+00 0.00000E+00 0.00000E+00 0.00000E+00 0.00000E+00 5.06402E-03 3.46486E-03 2.53742E-02
     1394  4.48320E-07 3.27011E-07-2.58489E-05 0.00000E+00 0.00000E+00 0.00000E+00 0.00000E+00 0.00000E+00 0.00000E+00 4.39675E-03 3.08693E-03 2.53742E-02
     1395  4.92816E-07 2.34230E-07-2.58489E-05 0.00000E+00 0.00000E+00 0.00000E+00 0.00000E+00 0.00000E+00 0.00000E+00 4.79659E-03 2.11673E-03 2.53742E-02
     1396  5.70358E-07 2.67495E-07-2.58489E-05 0.00000E+00 0.00000E+00 0.00000E+00 0.00000E+00 0.00000E+00 0.00000E+00 5.59617E-03 2.39117E-03 2.53742E-02
     1508  4.03394E-07 2.23222E-07-2.58489E-05 0.00000E+00 0.00000E+00 0.00000E+00 0.00000E+00 0.00000E+00 0.00000E+00 4.03500E-03 1.85212E-03 2.53742E-02
     1509  4.30410E-07 1.36024E-07-2.58489E-05 0.00000E+00 0.00000E+00 0.00000E+00 0.00000E+00 0.00000E+00 0.00000E+00 4.23853E-03 9.44982E-04 2.53742E-02
     1510  5.15238E-07 1.39624E-07-2.58489E-05 0.00000E+00 0.00000E+00 0.00000E+00 0.00000E+00 0.00000E+00 0.00000E+00 5.08372E-03 1.08694E-03 2.53742E-02
     1659  2.27691E-07-1.23762E-07-2.58489E-05 0.00000E+00 0.00000E+00 0.00000E+00 0.00000E+00 0.00000E+00 0.00000E+00 1.74653E-03-1.23762E-07 2.53742E-02
     1660  2.08219E-07 1.17234E-07-2.58489E-05 0.00000E+00 0.00000E+00 0.00000E+00 0.00000E+00 0.00000E+00 0.00000E+00 1.71631E-03 8.80790E-04 2.53742E-02
     1661  1.12935E-07 1.16706E-07-2.58489E-05 0.00000E+00 0.00000E+00 0.00000E+00 0.00000E+00 0.00000E+00 0.00000E+00 8.58127E-04 8.87888E-04 2.53742E-02
     1662  1.31643E-07-1.13931E-07-2.58489E-05 0.00000E+00 0.00000E+00 0.00000E+00 0.00000E+00 0.00000E+00 0.00000E+00 8.73257E-04-1.13931E-07 2.53742E-02
     1737  3.67937E-07 1.59021E-07-2.58489E-05 0.00000E+00 0.00000E+00 0.00000E+00 0.00000E+00 0.00000E+00 0.00000E+00 3.28847E-03 1.57656E-03 2.53742E-02
     1738  3.69150E-07 9.51136E-08-2.58489E-05 0.00000E+00 0.00000E+00 0.00000E+00 0.00000E+00 0.00000E+00 0.00000E+00 3.41467E-03 8.04446E-04 2.53742E-02
     1887 -7.19650E-08 5.24984E-07-2.58489E-05 0.00000E+00 0.00000E+00 0.00000E+00 0.00000E+00 0.00000E+00 0.00000E+00-7.19650E-08 6.11242E-03 2.53742E-02
     1888  1.23269E-07 5.88825E-07-2.58489E-05 0.00000E+00 0.00000E+00 0.00000E+00 0.00000E+00 0.00000E+00 0.00000E+00 1.19112E-03 5.97409E-03 2.53742E-02
     1889  1.46302E-07 7.21671E-07-2.58489E-05 0.00000E+00 0.00000E+00 0.00000E+00 0.00000E+00 0.00000E+00 0.00000E+00 1.36285E-03 6.85152E-03 2.53742E-02
     1890 -8.25565E-09 7.18448E-07-2.58489E-05 0.00000E+00 0.00000E+00 0.00000E+00 0.00000E+00 0.00000E+00 0.00000E+00-8.25565E-09 6.98572E-03 2.53742E-02
     2039  9.18947E-08 4.32650E-07-2.58489E-05 0.00000E+00 0.00000E+00 0.00000E+00 0.00000E+00 0.00000E+00 0.00000E+00 8.82746E-04 4.27313E-03 2.53742E-02
     2040  1.38715E-07 3.87517E-07-2.58489E-05 0.00000E+00 0.00000E+00 0.00000E+00 0.00000E+00 0.00000E+00 0.00000E+00 1.74544E-03 4.09369E-03 2.53742E-02
     2041  2.20437E-07 4.79130E-07-2.58489E-05 0.00000E+00 0.00000E+00 0.00000E+00 0.00000E+00 0.00000E+00 0.00000E+00 2.03072E-03 4.85258E-03 2.53742E-02
     2042  1.06421E-07 5.01331E-07-2.58489E-05 0.00000E+00 0.00000E+00 0.00000E+00 0.00000E+00 0.00000E+00 0.00000E+00 1.03121E-03 5.11490E-03 2.53742E-02
     2117  4.69587E-07 4.47163E-07-2.58489E-05 0.00000E+00 0.00000E+00 0.00000E+00 0.00000E+00 0.00000E+00 0.00000E+00 4.37337E-03 4.42435E-03 2.53742E-02
     2118  3.96636E-07 4.17237E-07-2.58489E-05 0.00000E+00 0.00000E+00 0.00000E+00 0.00000E+00 0.00000E+00 0.00000E+00 3.85560E-03 3.94172E-03 2.53742E-02
     2267  1.05961E-07 2.25566E-07-2.58489E-05 0.00000E+00 0.00000E+00 0.00000E+00 0.00000E+00 0.00000E+00 0.00000E+00 8.31274E-04 1.75863E-03 2.53742E-02
     2268  1.02811E-07 3.06597E-07-2.58489E-05 0.00000E+00 0.00000E+00 0.00000E+00 0.00000E+00 0.00000E+00 0.00000E+00 7.93965E-04 2.61141E-03 2.53742E-02
     2269 -5.63080E-08 2.61638E-07-2.58489E-05 0.00000E+00 0.00000E+00 0.00000E+00 0.00000E+00 0.00000E+00 0.00000E+00-5.63080E-08 2.61966E-03 2.53742E-02
     2270 -5.43162E-08 1.78041E-07-2.58489E-05 0.00000E+00 0.00000E+00 0.00000E+00 0.00000E+00 0.00000E+00 0.00000E+00-5.43162E-08 1.74648E-03 2.53742E-02
     2419  2.60880E-07 5.46621E-07-2.58489E-05 0.00000E+00 0.00000E+00 0.00000E+00 0.00000E+00 0.00000E+00 0.00000E+00 2.33936E-03 5.63865E-03 2.53742E-02
     2420  3.58345E-07 4.78905E-07-2.58489E-05 0.00000E+00 0.00000E+00 0.00000E+00 0.00000E+00 0.00000E+00 0.00000E+00 3.41056E-03 5.11658E-03 2.53742E-02
     2421  4.50731E-07 6.32069E-07-2.58489E-05 0.00000E+00 0.00000E+00 0.00000E+00 0.00000E+00 0.00000E+00 0.00000E+00 3.88095E-03 5.80853E-03 2.53742E-02
     2422  2.92403E-07 6.57885E-07-2.58489E-05 0.00000E+00 0.00000E+00 0.00000E+00 0.00000E+00 0.00000E+00 0.00000E+00 2.67339E-03 6.45396E-03 2.53742E-02
     2497  2.01048E-07 2.17224E-07-2.58489E-05 0.00000E+00 0.00000E+00 0.00000E+00 0.00000E+00 0.00000E+00 0.00000E+00 1.66040E-03 1.73272E-03 2.53742E-02
     2498  1.98340E-07 3.00929E-07-2.58489E-05 0.00000E+00 0.00000E+00 0.00000E+00 0.00000E+00 0.00000E+00 0.00000E+00 1.58130E-03 2.55890E-03 2.53742E-02
     2573  4.20311E-07-1.23497E-07-2.58489E-05 0.00000E+00 0.00000E+00 0.00000E+00 0.00000E+00 0.00000E+00 0.00000E+00 4.36602E-03-1.23497E-07 2.53742E-02
     2574  5.26211E-07-1.35330E-07-2.58489E-05 0.00000E+00 0.00000E+00 0.00000E+00 0.00000E+00 0.00000E+00 0.00000E+00 5.23933E-03-1.35330E-07 2.53742E-02
     2649 -6.08815E-08 3.87511E-07-2.58489E-05 0.00000E+00 0.00000E+00 0.00000E+00 0.00000E+00 0.00000E+00 0.00000E+00-6.08815E-08 4.36599E-03 2.53742E-02
     2650 -7.26423E-08 4.47359E-07-2.58489E-05 0.00000E+00 0.00000E+00 0.00000E+00 0.00000E+00 0.00000E+00 0.00000E+00-7.26423E-08 5.23925E-03 2.53742E-02
     2725  2.85757E-07 1.28811E-07-2.58489E-05 0.00000E+00 0.00000E+00 0.00000E+00 0.00000E+00 0.00000E+00 0.00000E+00 2.56949E-03 8.52747E-04 2.53742E-02
     2726  2.72895E-07 2.17238E-07-2.58489E-05 0.00000E+00 0.00000E+00 0.00000E+00 0.00000E+00 0.00000E+00 0.00000E+00 2.48137E-03 1.67182E-03 2.53742E-02
     2801  3.91463E-07-1.41218E-07-2.58489E-05 0.00000E+00 0.00000E+00 0.00000E+00 0.00000E+00 0.00000E+00 0.00000E+00 3.49289E-03-1.41218E-07 2.53742E-02
     2802  2.80622E-07-1.02740E-07-2.58489E-05 0.00000E+00 0.00000E+00 0.00000E+00 0.00000E+00 0.00000E+00 0.00000E+00 2.61968E-03-1.02740E-07 2.53742E-02
     2840 -3.57110E-08 7.88626E-08-2.58489E-05 0.00000E+00 0.00000E+00 0.00000E+00 0.00000E+00 0.00000E+00 0.00000E+00-3.57110E-08 8.73204E-04 2.53742E-02
     2915  3.77442E-07 2.97791E-07-2.58489E-05 0.00000E+00 0.00000E+00 0.00000E+00 0.00000E+00 0.00000E+00 0.00000E+00 3.73298E-03 2.68680E-03 2.53742E-02
     2916  3.60712E-07 2.39969E-07-2.58489E-05 0.00000E+00 0.00000E+00 0.00000E+00 0.00000E+00 0.00000E+00 0.00000E+00 3.12406E-03 2.32314E-03 2.53742E-02
     2991  7.81797E-08 3.63321E-07-2.58489E-05 0.00000E+00 0.00000E+00 0.00000E+00 0.00000E+00 0.00000E+00 0.00000E+00 7.45259E-04 3.44786E-03 2.53742E-02
     2992  1.38659E-07 3.47962E-07-2.58489E-05 0.00000E+00 0.00000E+00 0.00000E+00 0.00000E+00 0.00000E+00 0.00000E+00 1.48164E-03 3.35915E-03 2.53742E-02
     3067  1.92782E-07 2.53927E-07-2.58489E-05 0.00000E+00 0.00000E+00 0.00000E+00 0.00000E+00 0.00000E+00 0.00000E+00 2.20939E-03 3.22675E-03 2.53742E-02
     3068  4.90261E-07 4.35365E-07-2.58489E-05 0.00000E+00 0.00000E+00 0.00000E+00 0.00000E+00 0.00000E+00 0.00000E+00 2.57969E-03 3.82984E-03 2.53742E-02
     3143  6.01738E-07 1.57264E-07-2.58489E-05 0.00000E+00 0.00000E+00 0.00000E+00 0.00000E+00 0.00000E+00 0.00000E+00 5.95170E-03 1.22696E-03 2.53742E-02
     3144  6.05568E-07-1.23162E-07-2.58489E-05 0.00000E+00 0.00000E+00 0.00000E+00 0.00000E+00 0.00000E+00 0.00000E+00 6.11251E-03-1.23162E-07 2.53742E-02
     3182  2.75415E-07 3.78165E-07-2.58489E-05 0.00000E+00 0.00000E+00 0.00000E+00 0.00000E+00 0.00000E+00 0.00000E+00 3.37608E-03 3.48458E-03 2.53742E-02
     3220  2.65740E-07 2.95925E-07-2.58489E-05 0.00000E+00 0.00000E+00 0.00000E+00 0.00000E+00 0.00000E+00 0.00000E+00 2.35977E-03 2.46180E-03 2.53742E-02
     3258 -5.80362E-08 3.23738E-07-2.58489E-05 0.00000E+00 0.00000E+00 0.00000E+00 0.00000E+00 0.00000E+00 0.00000E+00-5.80362E-08 3.49282E-03 2.53742E-02
     3333  6.23393E-07 2.85892E-07-2.58489E-05 0.00000E+00 0.00000E+00 0.00000E+00 0.00000E+00 0.00000E+00 0.00000E+00 6.45402E-03 2.67309E-03 2.53742E-02
     3334  6.85697E-07 1.80858E-07-2.58489E-05 0.00000E+00 0.00000E+00 0.00000E+00 0.00000E+00 0.00000E+00 0.00000E+00 6.85149E-03 1.36308E-03 2.53742E-02
     3372  3.00629E-07 3.02965E-07-2.58489E-05 0.00000E+00 0.00000E+00 0.00000E+00 0.00000E+00 0.00000E+00 0.00000E+00 2.90330E-03 3.01140E-03 2.53742E-02
     3410 -4.35885E-08-7.80398E-08-2.58489E-05 0.00000E+00 0.00000E+00 0.00000E+00 0.00000E+00 0.00000E+00 0.00000E+00-4.35885E-08-7.80398E-08 2.53742E-02
     3448  6.02668E-07 4.21391E-07-2.58489E-05 0.00000E+00 0.00000E+00 0.00000E+00 0.00000E+00 0.00000E+00 0.00000E+00 5.80850E-03 3.88102E-03 2.53742E-02
     3486  5.64601E-07 5.51511E-07-2.58489E-05 0.00000E+00 0.00000E+00 0.00000E+00 0.00000E+00 0.00000E+00 0.00000E+00 4.93966E-03 4.93975E-03 2.53742E-02
     3524  3.11204E-07 3.55259E-07-2.58489E-05 0.00000E+00 0.00000E+00 0.00000E+00 0.00000E+00 0.00000E+00 0.00000E+00 2.97851E-03 4.45846E-03 2.53742E-02
     3562  6.70044E-07-1.02979E-07-2.58489E-05 0.00000E+00 0.00000E+00 0.00000E+00 0.00000E+00 0.00000E+00 0.00000E+00 6.98567E-03-1.02979E-07 2.53742E-02
     3613  1.13645E-06-5.49880E-08-2.58489E-05 0.00000E+00 0.00000E+00 0.00000E+00 0.00000E+00 0.00000E+00 0.00000E+00 1.27011E-02-5.49880E-08 2.53742E-02
     3614  1.08593E-06-1.52132E-07-2.58489E-05 0.00000E+00 0.00000E+00 0.00000E+00 0.00000E+00 0.00000E+00 0.00000E+00 1.22615E-02-1.52132E-07 2.53742E-02
     3615  1.06830E-06-1.37914E-07-2.58489E-05 0.00000E+00 0.00000E+00 0.00000E+00 0.00000E+00 0.00000E+00 0.00000E+00 1.18219E-02-1.37914E-07 2.53742E-02
[...]
     3144  7.04125E-05 1.22053E-04-2.00000E-03 0.00000E+00 0.00000E+00 0.00000E+00 0.00000E+00 0.00000E+00 0.00000E+00 6.18231E-03 1.22053E-04 2.34000E-02
     3182  1.13544E-06 8.04188E-05-2.00000E-03 0.00000E+00 0.00000E+00 0.00000E+00 0.00000E+00 0.00000E+00 0.00000E+00 3.37694E-03 3.56462E-03 2.34000E-02
     3220  6.79412E-06 5.17468E-05-2.00000E-03 0.00000E+00 0.00000E+00 0.00000E+00 0.00000E+00 0.00000E+00 0.00000E+00 2.36629E-03 2.51325E-03 2.34000E-02
     3258 -9.81311E-06 1.34834E-04-2.00000E-03 0.00000E+00 0.00000E+00 0.00000E+00 0.00000E+00 0.00000E+00 0.00000E+00-9.81311E-06 3.62733E-03 2.34000E-02
     3333  1.15573E-04 5.11426E-05-2.00000E-03 0.00000E+00 0.00000E+00 0.00000E+00 0.00000E+00 0.00000E+00 0.00000E+00 6.56897E-03 2.72394E-03 2.34000E-02
     3334  1.07502E-04 2.87733E-05-2.00000E-03 0.00000E+00 0.00000E+00 0.00000E+00 0.00000E+00 0.00000E+00 0.00000E+00 6.95830E-03 1.39167E-03 2.34000E-02
     3372  2.37803E-05 5.31316E-05-2.00000E-03 0.00000E+00 0.00000E+00 0.00000E+00 0.00000E+00 0.00000E+00 0.00000E+00 2.92678E-03 3.06423E-03 2.34000E-02
     3410 -5.62050E-05-2.43826E-05-2.00000E-03 0.00000E+00 0.00000E+00 0.00000E+00 0.00000E+00 0.00000E+00 0.00000E+00-5.62050E-05-2.43826E-05 2.34000E-02
     3448  8.63569E-05 7.00832E-05-2.00000E-03 0.00000E+00 0.00000E+00 0.00000E+00 0.00000E+00 0.00000E+00 0.00000E+00 5.89426E-03 3.95068E-03 2.34000E-02
     3486  1.84531E-05 6.46744E-05-2.00000E-03 0.00000E+00 0.00000E+00 0.00000E+00 0.00000E+00 0.00000E+00 0.00000E+00 4.95755E-03 5.00387E-03 2.34000E-02
     3524 -5.51328E-06 1.21432E-04-2.00000E-03 0.00000E+00 0.00000E+00 0.00000E+00 0.00000E+00 0.00000E+00 0.00000E+00 2.97269E-03 4.57953E-03 2.34000E-02
     3562  1.08617E-04 2.86471E-05-2.00000E-03 0.00000E+00 0.00000E+00 0.00000E+00 0.00000E+00 0.00000E+00 0.00000E+00 7.09362E-03 2.86471E-05 2.34000E-02
     3613  1.49073E-04 9.98446E-06-2.00000E-03 0.00000E+00 0.00000E+00 0.00000E+00 0.00000E+00 0.00000E+00 0.00000E+00 1.28491E-02 9.98446E-06 2.34000E-02
     3614  1.63394E-04 7.67163E-06-2.00000E-03 0.00000E+00 0.00000E+00 0.00000E+00 0.00000E+00 0.00000E+00 0.00000E+00 1.24238E-02 7.67163E-06 2.34000E-02
     3615  1.64762E-04 1.21496E-05-2.00000E-03 0.00000E+00 0.00000E+00 0.00000E+00 0.00000E+00 0.00000E+00 0.00000E+00 1.19856E-02 1.21496E-05 2.34000E-02
     3616  1.67048E-04 3.13851E-08-2.00000E-03 0.00000E+00 0.00000E+00 0.00000E+00 0.00000E+00 0.00000E+00 0.00000E+00 1.15482E-02 3.13851E-08 2.34000E-02
     3617  1.36301E-04 1.02679E-05-2.00000E-03 0.00000E+00 0.00000E+00 0.00000E+00 0.00000E+00 0.00000E+00 0.00000E+00 1.10778E-02 1.02679E-05 2.34000E-02
     3618  1.32459E-04 3.08120E-05-2.00000E-03 0.00000E+00 0.00000E+00 0.00000E+00 0.00000E+00 0.00000E+00 0.00000E+00 1.06344E-02 3.08120E-05 2.34000E-02
     3619  1.41121E-04 3.20590E-05-2.00000E-03 0.00000E+00 0.00000E+00 0.00000E+00 0.00000E+00 0.00000E+00 0.00000E+00 1.02034E-02 3.20590E-05 2.34000E-02
     3620  1.29122E-04 1.59818E-05-2.00000E-03 0.00000E+00 0.00000E+00 0.00000E+00 0.00000E+00 0.00000E+00 0.00000E+00 9.75182E-03 1.59818E-05 2.34000E-02
     3621  1.44028E-04 3.80294E-05-2.00000E-03 0.00000E+00 0.00000E+00 0.00000E+00 0.00000E+00 0.00000E+00 0.00000E+00 9.32713E-03 3.80294E-05 2.34000E-02
     3622  1.47704E-04 3.26521E-05-2.00000E-03 0.00000E+00 0.00000E+00 0.00000E+00 0.00000E+00 0.00000E+00 0.00000E+00 8.89120E-03 3.26521E-05 2.34000E-02
     3623  1.36812E-04 3.55931E-05-2.00000E-03 0.00000E+00 0.00000E+00 0.00000E+00 0.00000E+00 0.00000E+00 0.00000E+00 8.44061E-03 3.55931E-05 2.34000E-02
     3624  1.47203E-04 3.99230E-05-2.00000E-03 0.00000E+00 0.00000E+00 0.00000E+00 0.00000E+00 0.00000E+00 0.00000E+00 8.01140E-03 3.99230E-05 2.34000E-02
     3625  1.22334E-04 3.41065E-05-2.00000E-03 0.00000E+00 0.00000E+00 0.00000E+00 0.00000E+00 0.00000E+00 0.00000E+00 7.54693E-03 3.41065E-05 2.34000E-02
     4590  1.36339E-04 8.05680E-06-2.00000E-03 0.00000E+00 0.00000E+00 0.00000E+00 0.00000E+00 0.00000E+00 0.00000E+00 9.14674E-03 1.78026E-03 2.34000E-02
     4591  1.39628E-04 1.04626E-05-2.00000E-03 0.00000E+00 0.00000E+00 0.00000E+00 0.00000E+00 0.00000E+00 0.00000E+00 9.58203E-03 1.86456E-03 2.34000E-02
     4594  1.41148E-04 3.71987E-05-2.00000E-03 0.00000E+00 0.00000E+00 0.00000E+00 0.00000E+00 0.00000E+00 0.00000E+00 8.63715E-03 3.52230E-03 2.34000E-02
     4595  1.53271E-04 1.75723E-05-2.00000E-03 0.00000E+00 0.00000E+00 0.00000E+00 0.00000E+00 0.00000E+00 0.00000E+00 9.05777E-03 3.66507E-03 2.34000E-02
     4598  1.30906E-04 7.09128E-05-2.00000E-03 0.00000E+00 0.00000E+00 0.00000E+00 0.00000E+00 0.00000E+00 0.00000E+00 7.77641E-03 5.15771E-03 2.34000E-02
     4599  1.46273E-04 6.34293E-05-2.00000E-03 0.00000E+00 0.00000E+00 0.00000E+00 0.00000E+00 0.00000E+00 0.00000E+00 8.15927E-03 5.39143E-03 2.34000E-02
     4602  5.47509E-05 5.45096E-05-2.00000E-03 0.00000E+00 0.00000E+00 0.00000E+00 0.00000E+00 0.00000E+00 0.00000E+00 6.55145E-03 6.54461E-03 2.34000E-02
     4603  8.64972E-05 4.86128E-05-2.00000E-03 0.00000E+00 0.00000E+00 0.00000E+00 0.00000E+00 0.00000E+00 0.00000E+00 6.89470E-03 6.84891E-03 2.34000E-02
     4606  6.26085E-05 8.04699E-05-2.00000E-03 0.00000E+00 0.00000E+00 0.00000E+00 0.00000E+00 0.00000E+00 0.00000E+00 5.15671E-03 7.72107E-03 2.34000E-02
     4607  5.99530E-05 1.17729E-04-2.00000E-03 0.00000E+00 0.00000E+00 0.00000E+00 0.00000E+00 0.00000E+00 0.00000E+00 5.39675E-03 8.12493E-03 2.34000E-02
     4610  6.16438E-06 1.23942E-04-2.00000E-03 0.00000E+00 0.00000E+00 0.00000E+00 0.00000E+00 0.00000E+00 0.00000E+00 3.49736E-03 8.61744E-03 2.34000E-02
     4611  8.93405E-06 1.35465E-04-2.00000E-03 0.00000E+00 0.00000E+00 0.00000E+00 0.00000E+00 0.00000E+00 0.00000E+00 3.66383E-03 9.03697E-03 2.34000E-02
     4614 -3.29578E-06 9.83981E-05-2.00000E-03 0.00000E+00 0.00000E+00 0.00000E+00 0.00000E+00 0.00000E+00 0.00000E+00 1.77180E-03 9.10830E-03 2.34000E-02
     4615  9.35193E-07 1.04742E-04-2.00000E-03 0.00000E+00 0.00000E+00 0.00000E+00 0.00000E+00 0.00000E+00 0.00000E+00 1.85854E-03 9.54644E-03 2.34000E-02
     4618  5.14084E-06 1.04269E-04-2.00000E-03 0.00000E+00 0.00000E+00 0.00000E+00 0.00000E+00 0.00000E+00 0.00000E+00 5.14084E-06 9.28737E-03 2.34000E-02
     4619 -9.43908E-06 1.07988E-04-2.00000E-03 0.00000E+00 0.00000E+00 0.00000E+00 0.00000E+00 0.00000E+00 0.00000E+00-9.43908E-06 9.73069E-03 2.34000E-02
     4622  1.53052E-04 3.04327E-06-2.00000E-03 0.00000E+00 0.00000E+00 0.00000E+00 0.00000E+00 0.00000E+00 0.00000E+00 1.08913E-02 2.10274E-03 2.34000E-02
     4623  1.57137E-04 3.87829E-07-2.00000E-03 0.00000E+00 0.00000E+00 0.00000E+00 0.00000E+00 0.00000E+00 0.00000E+00 1.13272E-02 2.18189E-03 2.34000E-02
     4626  1.65887E-04-8.12590E-07-2.00000E-03 0.00000E+00 0.00000E+00 0.00000E+00 0.00000E+00 0.00000E+00 0.00000E+00 1.02960E-02 4.13409E-03 2.34000E-02
     4627  1.65895E-04 6.23127E-08-2.00000E-03 0.00000E+00 0.00000E+00 0.00000E+00 0.00000E+00 0.00000E+00 0.00000E+00 1.07045E-02 4.29736E-03 2.34000E-02
     4630  1.49018E-04 3.89638E-05-2.00000E-03 0.00000E+00 0.00000E+00 0.00000E+00 0.00000E+00 0.00000E+00 0.00000E+00 9.26462E-03 6.09066E-03 2.34000E-02
     4631  1.60231E-04 3.98124E-05-2.00000E-03 0.00000E+00 0.00000E+00 0.00000E+00 0.00000E+00 0.00000E+00 0.00000E+00 9.64333E-03 6.33281E-03 2.34000E-02
     4634  1.12738E-04 1.10688E-04-2.00000E-03 0.00000E+00 0.00000E+00 0.00000E+00 0.00000E+00 0.00000E+00 0.00000E+00 7.85554E-03 7.84159E-03 2.34000E-02
     4635  1.37173E-04 1.21160E-04-2.00000E-03 0.00000E+00 0.00000E+00 0.00000E+00 0.00000E+00 0.00000E+00 0.00000E+00 8.19147E-03 8.16226E-03 2.34000E-02
     4638  1.35599E-04 1.60358E-04-2.00000E-03 0.00000E+00 0.00000E+00 0.00000E+00 0.00000E+00 0.00000E+00 0.00000E+00 6.20060E-03 9.26716E-03 2.34000E-02
     4639  1.33836E-04 1.97450E-04-2.00000E-03 0.00000E+00 0.00000E+00 0.00000E+00 0.00000E+00 0.00000E+00 0.00000E+00 6.44154E-03 9.67075E-03 2.34000E-02
     4642  1.69676E-05 1.66319E-04-2.00000E-03 0.00000E+00 0.00000E+00 0.00000E+00 0.00000E+00 0.00000E+00 0.00000E+00 4.16277E-03 1.02920E-02 2.34000E-02
     4643  6.62775E-06 1.75933E-04-2.00000E-03 0.00000E+00 0.00000E+00 0.00000E+00 0.00000E+00 0.00000E+00 0.00000E+00 4.31603E-03 1.07096E-02 2.34000E-02
     4646  7.84135E-06 1.11023E-04-2.00000E-03 0.00000E+00 0.00000E+00 0.00000E+00 0.00000E+00 0.00000E+00 0.00000E+00 2.11294E-03 1.08481E-02 2.34000E-02
     4647  3.90571E-07 1.10418E-04-2.00000E-03 0.00000E+00 0.00000E+00 0.00000E+00 0.00000E+00 0.00000E+00 0.00000E+00 2.18799E-03 1.12793E-02 2.34000E-02
     4650  7.51824E-06 1.07800E-04-2.00000E-03 0.00000E+00 0.00000E+00 0.00000E+00 0.00000E+00 0.00000E+00 0.00000E+00 7.51824E-06 1.10493E-02 2.34000E-02
     4651  8.98579E-07 9.87974E-05-2.00000E-03 0.00000E+00 0.00000E+00 0.00000E+00 0.00000E+00 0.00000E+00 0.00000E+00 8.98579E-07 1.14800E-02 2.34000E-02
     4838  1.58870E-04-8.62392E-06-2.00000E-03 0.00000E+00 0.00000E+00 0.00000E+00 0.00000E+00 0.00000E+00 0.00000E+00 1.21929E-02 2.33658E-03 2.34000E-02
     4839  1.63666E-04-5.30756E-06-2.00000E-03 0.00000E+00 0.00000E+00 0.00000E+00 0.00000E+00 0.00000E+00 0.00000E+00 1.26296E-02 2.42179E-03 2.34000E-02
     4842  1.76582E-04 1.27232E-06-2.00000E-03 0.00000E+00 0.00000E+00 0.00000E+00 0.00000E+00 0.00000E+00 0.00000E+00 1.15323E-02 4.62347E-03 2.34000E-02
     4843  1.80393E-04 3.77312E-07-2.00000E-03 0.00000E+00 0.00000E+00 0.00000E+00 0.00000E+00 0.00000E+00 0.00000E+00 1.19446E-02 4.78508E-03 2.34000E-02
     4846  1.70663E-04 4.54814E-05-2.00000E-03 0.00000E+00 0.00000E+00 0.00000E+00 0.00000E+00 0.00000E+00 0.00000E+00 1.03888E-02 6.82088E-03 2.34000E-02
     4847  2.08160E-04 1.24929E-04-2.00000E-03 0.00000E+00 0.00000E+00 0.00000E+00 0.00000E+00 0.00000E+00 0.00000E+00 1.07939E-02 7.14163E-03 2.34000E-02
     4850  1.30094E-04 1.16986E-04-2.00000E-03 0.00000E+00 0.00000E+00 0.00000E+00 0.00000E+00 0.00000E+00 0.00000E+00 8.80749E-03 8.77839E-03 2.34000E-02
     4851  1.79924E-05 3.27316E-05-2.00000E-03 0.00000E+00 0.00000E+00 0.00000E+00 0.00000E+00 0.00000E+00 0.00000E+00 9.00689E-03 9.00433E-03 2.34000E-02
     4854  1.38809E-04 1.41869E-04-2.00000E-03 0.00000E+00 0.00000E+00 0.00000E+00 0.00000E+00 0.00000E+00 0.00000E+00 6.93191E-03 1.03483E-02 2.34000E-02
     4855  1.82115E-04 2.70142E-04-2.00000E-03 0.00000E+00 0.00000E+00 0.00000E+00 0.00000E+00 0.00000E+00 0.00000E+00 7.21792E-03 1.08430E-02 2.34000E-02
     4858  6.39679E-05 2.83274E-04-2.00000E-03 0.00000E+00 0.00000E+00 0.00000E+00 0.00000E+00 0.00000E+00 0.00000E+00 4.70067E-03 1.16331E-02 2.34000E-02
     4859  4.90890E-05 5.38850E-05-2.00000E-03 0.00000E+00 0.00000E+00 0.00000E+00 0.00000E+00 0.00000E+00 0.00000E+00 4.84939E-03 1.18118E-02 2.34000E-02
     4862 -8.06960E-06 1.22889E-04-2.00000E-03 0.00000E+00 0.00000E+00 0.00000E+00 0.00000E+00 0.00000E+00 0.00000E+00 2.34453E-03 1.21555E-02 2.34000E-02
     4863 -1.77216E-05 2.69693E-04-2.00000E-03 0.00000E+00 0.00000E+00 0.00000E+00 0.00000E+00 0.00000E+00 0.00000E+00 2.41728E-03 1.27341E-02 2.34000E-02
     4866  6.00657E-06 1.33795E-04-2.00000E-03 0.00000E+00 0.00000E+00 0.00000E+00 0.00000E+00 0.00000E+00 0.00000E+00 6.00657E-06 1.23942E-02 2.34000E-02
     4867 -2.35474E-06 1.25988E-04-2.00000E-03 0.00000E+00 0.00000E+00 0.00000E+00 0.00000E+00 0.00000E+00 0.00000E+00-2.35474E-06 1.28260E-02 2.34000E-02
     6646  1.40518E-04-1.62433E-05-2.00000E-03 0.00000E+00 0.00000E+00 0.00000E+00 0.00000E+00 0.00000E+00 0.00000E+00 1.04467E-02 2.00156E-03 2.34000E-02
     6647  1.58791E-04 2.61673E-06-2.00000E-03 0.00000E+00 0.00000E+00 0.00000E+00 0.00000E+00 0.00000E+00 0.00000E+00 9.88039E-03 3.97502E-03 2.34000E-02
     6648  1.38407E-04 4.31672E-05-2.00000E-03 0.00000E+00 0.00000E+00 0.00000E+00 0.00000E+00 0.00000E+00 0.00000E+00 8.88641E-03 5.85367E-03 2.34000E-02
     6649  1.00638E-04 1.12084E-04-2.00000E-03 0.00000E+00 0.00000E+00 0.00000E+00 0.00000E+00 0.00000E+00 0.00000E+00 7.53194E-03 7.53278E-03 2.34000E-02
     6650  6.87834E-05 1.30125E-04-2.00000E-03 0.00000E+00 0.00000E+00 0.00000E+00 0.00000E+00 0.00000E+00 0.00000E+00 5.89098E-03 8.87032E-03 2.34000E-02
     6651  3.77350E-05 1.92931E-04-2.00000E-03 0.00000E+00 0.00000E+00 0.00000E+00 0.00000E+00 0.00000E+00 0.00000E+00 4.01984E-03 9.91053E-03 2.34000E-02
     6652  2.89526E-06 1.11626E-04-2.00000E-03 0.00000E+00 0.00000E+00 0.00000E+00 0.00000E+00 0.00000E+00 0.00000E+00 2.02550E-03 1.04169E-02 2.34000E-02
     6653  2.57450E-06 1.02289E-04-2.00000E-03 0.00000E+00 0.00000E+00 0.00000E+00 0.00000E+00 0.00000E+00 0.00000E+00 2.57450E-06 1.06042E-02 2.34000E-02
     6838  1.27246E-04 1.41234E-05-2.00000E-03 0.00000E+00 0.00000E+00 0.00000E+00 0.00000E+00 0.00000E+00 0.00000E+00 7.84185E-03 1.54072E-03 2.34000E-02
     6839  1.23519E-04 1.71351E-05-2.00000E-03 0.00000E+00 0.00000E+00 0.00000E+00 0.00000E+00 0.00000E+00 0.00000E+00 8.27012E-03 1.62564E-03 2.34000E-02
     6841  1.04307E-04 4.95049E-05-2.00000E-03 0.00000E+00 0.00000E+00 0.00000E+00 0.00000E+00 0.00000E+00 0.00000E+00 7.37481E-03 3.04720E-03 2.34000E-02
     6842  1.15666E-04 3.24677E-05-2.00000E-03 0.00000E+00 0.00000E+00 0.00000E+00 0.00000E+00 0.00000E+00 0.00000E+00 7.79467E-03 3.19267E-03 2.34000E-02
     6844  1.10806E-04 5.58273E-05-2.00000E-03 0.00000E+00 0.00000E+00 0.00000E+00 0.00000E+00 0.00000E+00 0.00000E+00 6.65371E-03 4.41893E-03 2.34000E-02
     6845  1.06028E-04 5.84848E-05-2.00000E-03 0.00000E+00 0.00000E+00 0.00000E+00 0.00000E+00 0.00000E+00 0.00000E+00 7.01643E-03 4.66278E-03 2.34000E-02
     6847  4.67145E-05 6.69384E-05-2.00000E-03 0.00000E+00 0.00000E+00 0.00000E+00 0.00000E+00 0.00000E+00 0.00000E+00 5.60881E-03 5.62654E-03 2.34000E-02
     6848  6.09010E-05 6.12652E-05-2.00000E-03 0.00000E+00 0.00000E+00 0.00000E+00 0.00000E+00 0.00000E+00 0.00000E+00 5.93450E-03 5.93107E-03 2.34000E-02
     6850  9.95335E-06 7.22559E-05-2.00000E-03 0.00000E+00 0.00000E+00 0.00000E+00 0.00000E+00 0.00000E+00 0.00000E+00 4.37585E-03 6.61326E-03 2.34000E-02
     6851  1.62072E-05 6.86295E-05-2.00000E-03 0.00000E+00 0.00000E+00 0.00000E+00 0.00000E+00 0.00000E+00 0.00000E+00 4.62491E-03 6.97613E-03 2.34000E-02
     6853  3.32054E-06 1.10978E-04-2.00000E-03 0.00000E+00 0.00000E+00 0.00000E+00 0.00000E+00 0.00000E+00 0.00000E+00 3.00372E-03 7.38038E-03 2.34000E-02
     6854  7.06640E-06 1.12736E-04-2.00000E-03 0.00000E+00 0.00000E+00 0.00000E+00 0.00000E+00 0.00000E+00 0.00000E+00 3.17107E-03 7.79014E-03 2.34000E-02
     6856  9.00357E-07 1.17411E-04-2.00000E-03 0.00000E+00 0.00000E+00 0.00000E+00 0.00000E+00 0.00000E+00 0.00000E+00 1.52860E-03 7.83181E-03 2.34000E-02
     6857  5.01103E-07 1.10873E-04-2.00000E-03 0.00000E+00 0.00000E+00 0.00000E+00 0.00000E+00 0.00000E+00 0.00000E+00 1.61070E-03 8.25707E-03 2.34000E-02
     6859  4.07508E-06 9.82552E-05-2.00000E-03 0.00000E+00 0.00000E+00 0.00000E+00 0.00000E+00 0.00000E+00 0.00000E+00 4.07508E-06 7.96246E-03 2.34000E-02
     6860 -6.14654E-07 1.00026E-04-2.00000E-03 0.00000E+00 0.00000E+00 0.00000E+00 0.00000E+00 0.00000E+00 0.00000E+00-6.14654E-07 8.40383E-03 2.34000E-02
     6894  1.43965E-04-1.65557E-05-2.00000E-03 0.00000E+00 0.00000E+00 0.00000E+00 0.00000E+00 0.00000E+00 0.00000E+00 1.00183E-02 1.91934E-03 2.34000E-02
     6895  1.55161E-04 2.69592E-06-2.00000E-03 0.00000E+00 0.00000E+00 0.00000E+00 0.00000E+00 0.00000E+00 0.00000E+00 9.46826E-03 3.81270E-03 2.34000E-02
     6896  1.53076E-04 5.33062E-05-2.00000E-03 0.00000E+00 0.00000E+00 0.00000E+00 0.00000E+00 0.00000E+00 0.00000E+00 8.53358E-03 5.62261E-03 2.34000E-02
     6897  8.86432E-05 9.77450E-05-2.00000E-03 0.00000E+00 0.00000E+00 0.00000E+00 0.00000E+00 0.00000E+00 0.00000E+00 7.20834E-03 7.20824E-03 2.34000E-02
     6898  8.73909E-05 1.27241E-04-2.00000E-03 0.00000E+00 0.00000E+00 0.00000E+00 0.00000E+00 0.00000E+00 0.00000E+00 5.66689E-03 8.50094E-03 2.34000E-02
     6899  1.52285E-05 1.41780E-04-2.00000E-03 0.00000E+00 0.00000E+00 0.00000E+00 0.00000E+00 0.00000E+00 0.00000E+00 3.83373E-03 9.45138E-03 2.34000E-02
     6900  3.18997E-06 1.08155E-04-2.00000E-03 0.00000E+00 0.00000E+00 0.00000E+00 0.00000E+00 0.00000E+00 0.00000E+00 1.94329E-03 9.98166E-03 2.34000E-02
     6901  1.01635E-05 1.14103E-04-2.00000E-03 0.00000E+00 0.00000E+00 0.00000E+00 0.00000E+00 0.00000E+00 0.00000E+00 1.01635E-05 1.01764E-02 2.34000E-02
     6990  1.12303E-04 3.98574E-05-2.00000E-03 0.00000E+00 0.00000E+00 0.00000E+00 0.00000E+00 0.00000E+00 0.00000E+00 7.39500E-03 1.48456E-03 2.34000E-02
     6991  1.13004E-04 4.87960E-05-2.00000E-03 0.00000E+00 0.00000E+00 0.00000E+00 0.00000E+00 0.00000E+00 0.00000E+00 6.97490E-03 2.88400E-03 2.34000E-02
     6992  8.49561E-05 6.29687E-05-2.00000E-03 0.00000E+00 0.00000E+00 0.00000E+00 0.00000E+00 0.00000E+00 0.00000E+00 6.26036E-03 4.18477E-03 2.34000E-02
     6993  3.17867E-05 5.48698E-05-2.00000E-03 0.00000E+00 0.00000E+00 0.00000E+00 0.00000E+00 0.00000E+00 0.00000E+00 5.28239E-03 5.30427E-03 2.34000E-02
     6994  6.49824E-06 5.16714E-05-2.00000E-03 0.00000E+00 0.00000E+00 0.00000E+00 0.00000E+00 0.00000E+00 0.00000E+00 4.12970E-03 6.22617E-03 2.34000E-02
     6995 -1.39441E-06 1.02898E-04-2.00000E-03 0.00000E+00 0.00000E+00 0.00000E+00 0.00000E+00 0.00000E+00 0.00000E+00 2.83531E-03 6.96420E-03 2.34000E-02
     6996 -5.42630E-06 1.23664E-04-2.00000E-03 0.00000E+00 0.00000E+00 0.00000E+00 0.00000E+00 0.00000E+00 0.00000E+00 1.43977E-03 7.40626E-03 2.34000E-02
     6997  7.62741E-06 1.02762E-04-2.00000E-03 0.00000E+00 0.00000E+00 0.00000E+00 0.00000E+00 0.00000E+00 0.00000E+00 7.62741E-06 7.52736E-03 2.34000E-02
     7454  1.56107E-04-1.41856E-05-2.00000E-03 0.00000E+00 0.00000E+00 0.00000E+00 0.00000E+00 0.00000E+00 0.00000E+00 1.17582E-02 2.24921E-03 2.34000E-02
     7455  1.64812E-04 2.74091E-07-2.00000E-03 0.00000E+00 0.00000E+00 0.00000E+00 0.00000E+00 0.00000E+00 0.00000E+00 1.11120E-02 4.46007E-03 2.34000E-02
     7456  1.78556E-04 4.96723E-05-2.00000E-03 0.00000E+00 0.00000E+00 0.00000E+00 0.00000E+00 0.00000E+00 0.00000E+00 1.00292E-02 6.58387E-03 2.34000E-02
     7457  8.52468E-05 1.12392E-04-2.00000E-03 0.00000E+00 0.00000E+00 0.00000E+00 0.00000E+00 0.00000E+00 0.00000E+00 8.45115E-03 8.46359E-03 2.34000E-02
     7458  1.65071E-04 2.21304E-04-2.00000E-03 0.00000E+00 0.00000E+00 0.00000E+00 0.00000E+00 0.00000E+00 0.00000E+00 6.71547E-03 1.00612E-02 2.34000E-02
     7459  1.35518E-05 2.16854E-04-2.00000E-03 0.00000E+00 0.00000E+00 0.00000E+00 0.00000E+00 0.00000E+00 0.00000E+00 4.48655E-03 1.11587E-02 2.34000E-02
     7460 -3.79819E-07 1.13195E-04-2.00000E-03 0.00000E+00 0.00000E+00 0.00000E+00 0.00000E+00 0.00000E+00 0.00000E+00 2.26972E-03 1.17139E-02 2.34000E-02
     7461  9.20001E-06 1.09987E-04-2.00000E-03 0.00000E+00 0.00000E+00 0.00000E+00 0.00000E+00 0.00000E+00 0.00000E+00 9.20001E-06 1.19308E-02 2.34000E-02
     7934  1.26986E-04 6.96308E-06-2.00000E-03 0.00000E+00 0.00000E+00 0.00000E+00 0.00000E+00 0.00000E+00 0.00000E+00 8.70549E-03 1.69726E-03 2.34000E-02
     7936  1.35111E-04 3.91210E-05-2.00000E-03 0.00000E+00 0.00000E+00 0.00000E+00 0.00000E+00 0.00000E+00 0.00000E+00 8.22261E-03 3.36172E-03 2.34000E-02
     7938  1.01145E-04 6.17841E-05-2.00000E-03 0.00000E+00 0.00000E+00 0.00000E+00 0.00000E+00 0.00000E+00 0.00000E+00 7.37904E-03 4.90738E-03 2.34000E-02
     7940  6.74290E-05 8.92481E-05-2.00000E-03 0.00000E+00 0.00000E+00 0.00000E+00 0.00000E+00 0.00000E+00 0.00000E+00 6.25263E-03 6.26925E-03 2.34000E-02
     7942  5.69633E-05 7.38343E-05-2.00000E-03 0.00000E+00 0.00000E+00 0.00000E+00 0.00000E+00 0.00000E+00 0.00000E+00 4.90836E-03 7.34793E-03 2.34000E-02
     7944 -2.06240E-06 1.07415E-04-2.00000E-03 0.00000E+00 0.00000E+00 0.00000E+00 0.00000E+00 0.00000E+00 0.00000E+00 3.32554E-03 8.19291E-03 2.34000E-02
     7946  2.58134E-06 1.04379E-04-2.00000E-03 0.00000E+00 0.00000E+00 0.00000E+00 0.00000E+00 0.00000E+00 0.00000E+00 1.69518E-03 8.68238E-03 2.34000E-02
     7948 -3.66014E-06 9.95666E-05-2.00000E-03 0.00000E+00 0.00000E+00 0.00000E+00 0.00000E+00 0.00000E+00 0.00000E+00-3.66014E-06 8.84307E-03 2.34000E-02
