 LS-DYNA keyword deck by LS-PrePost                                      
                    ls-dyna smp d R14 R14.1.1s_1_ef50e1 date 06/16/2024



 n o d a l  s t r e s s  c a l c u l a t i o n s   f o r   t i m e  s t e p        1   ( at time 0.00000E+00 )

 node (global)
          stress       sig-xx      sig-yy      sig-zz      sig-xy      sig-yz      sig-zx       plastic
                                                                                                 strain 
       1-
 mid.  surface    -1.6011E-04 -1.6011E-04 -1.6011E-04  0.0000E+00  0.0000E+00  0.0000E+00  0.0000E+00
       2-
 mid.  surface    -1.1843E-04 -1.1843E-04 -1.1843E-04  0.0000E+00  0.0000E+00  0.0000E+00  0.0000E+00
       8-
 mid.  surface    -2.9208E-05 -2.9208E-05 -2.9208E-05  0.0000E+00  0.0000E+00  0.0000E+00  0.0000E+00
       9-
 mid.  surface     8.3865E-05  8.3865E-05  8.3865E-05  0.0000E+00  0.0000E+00  0.0000E+00  0.0000E+00
      10-
 mid.  surface     2.2199E-05  2.2199E-05  2.2199E-05  0.0000E+00  0.0000E+00  0.0000E+00  0.0000E+00
      11-
 mid.  surface    -4.6801E-05 -4.6801E-05 -4.6801E-05  0.0000E+00  0.0000E+00  0.0000E+00  0.0000E+00
      12-
 mid.  surface     1.5223E-05  1.5223E-05  1.5223E-05  0.0000E+00  0.0000E+00  0.0000E+00  0.0000E+00
      17-
 mid.  surface    -7.2808E-06 -7.2808E-06 -7.2808E-06  0.0000E+00  0.0000E+00  0.0000E+00  0.0000E+00
      18-
 mid.  surface    -3.9787E-05 -3.9787E-05 -3.9787E-05  0.0000E+00  0.0000E+00  0.0000E+00  0.0000E+00
      19-
 mid.  surface     2.0352E-05  2.0352E-05  2.0352E-05  0.0000E+00  0.0000E+00  0.0000E+00  0.0000E+00
      20-
 mid.  surface     3.8997E-05  3.8997E-05  3.8997E-05  0.0000E+00  0.0000E+00  0.0000E+00  0.0000E+00
      21-
 mid.  surface     4.7947E-05  4.7947E-05  4.7947E-05  0.0000E+00  0.0000E+00  0.0000E+00  0.0000E+00
      22-
 mid.  surface     2.7110E-05  2.7110E-05  2.7110E-05  0.0000E+00  0.0000E+00  0.0000E+00  0.0000E+00
      23-
 mid.  surface    -5.2270E-07 -5.2270E-07 -5.2270E-07  0.0000E+00  0.0000E+00  0.0000E+00  0.0000E+00
      40-
 mid.  surface     5.2769E-05  5.2769E-05  5.2769E-05  0.0000E+00  0.0000E+00  0.0000E+00  0.0000E+00
      41-
 mid.  surface     8.6452E-06  8.6452E-06  8.6452E-06  0.0000E+00  0.0000E+00  0.0000E+00  0.0000E+00
      85-
 mid.  surface    -1.5617E-05 -1.5617E-05 -1.5617E-05  0.0000E+00  0.0000E+00  0.0000E+00  0.0000E+00
      86-
 mid.  surface    -5.2982E-05 -5.2982E-05 -5.2982E-05  0.0000E+00  0.0000E+00  0.0000E+00  0.0000E+00
     100-
 mid.  surface    -1.1256E-04 -1.1256E-04 -1.1256E-04  0.0000E+00  0.0000E+00  0.0000E+00  0.0000E+00
     110-
 mid.  surface     3.6241E-05  3.6241E-05  3.6241E-05  0.0000E+00  0.0000E+00  0.0000E+00  0.0000E+00



 n o d a l  s t r a i n  c a l c u l a t i o n s   f o r   t i m e  s t e p        1   ( at time 0.00000E+00 )

 node (global)
          strain       eps-xx      eps-yy      eps-zz      eps-xy      eps-yz      eps-zx       
       1-
 mid.  surface     0.0000E+00  0.0000E+00  0.0000E+00  0.0000E+00  0.0000E+00  0.0000E+00
       2-
 mid.  surface     0.0000E+00  0.0000E+00  0.0000E+00  0.0000E+00  0.0000E+00  0.0000E+00
       8-
 mid.  surface     0.0000E+00  0.0000E+00  0.0000E+00  0.0000E+00  0.0000E+00  0.0000E+00
       9-
 mid.  surface     0.0000E+00  0.0000E+00  0.0000E+00  0.0000E+00  0.0000E+00  0.0000E+00
      10-
 mid.  surface     0.0000E+00  0.0000E+00  0.0000E+00  0.0000E+00  0.0000E+00  0.0000E+00
      11-
 mid.  surface     0.0000E+00  0.0000E+00  0.0000E+00  0.0000E+00  0.0000E+00  0.0000E+00
      12-
 mid.  surface     0.0000E+00  0.0000E+00  0.0000E+00  0.0000E+00  0.0000E+00  0.0000E+00
      17-
 mid.  surface     0.0000E+00  0.0000E+00  0.0000E+00  0.0000E+00  0.0000E+00  0.0000E+00
      18-
 mid.  surface     0.0000E+00  0.0000E+00  0.0000E+00  0.0000E+00  0.0000E+00  0.0000E+00
      19-
 mid.  surface     0.0000E+00  0.0000E+00  0.0000E+00  0.0000E+00  0.0000E+00  0.0000E+00
      20-
 mid.  surface     0.0000E+00  0.0000E+00  0.0000E+00  0.0000E+00  0.0000E+00  0.0000E+00
      21-
 mid.  surface     0.0000E+00  0.0000E+00  0.0000E+00  0.0000E+00  0.0000E+00  0.0000E+00
      22-
 mid.  surface     0.0000E+00  0.0000E+00  0.0000E+00  0.0000E+00  0.0000E+00  0.0000E+00
      23-
 mid.  surface     0.0000E+00  0.0000E+00  0.0000E+00  0.0000E+00  0.0000E+00  0.0000E+00
      40-
 mid.  surface     0.0000E+00  0.0000E+00  0.0000E+00  0.0000E+00  0.0000E+00  0.0000E+00
      41-
 mid.  surface     0.0000E+00  0.0000E+00  0.0000E+00  0.0000E+00  0.0000E+00  0.0000E+00
      85-
 mid.  surface     0.0000E+00  0.0000E+00  0.0000E+00  0.0000E+00  0.0000E+00  0.0000E+00
      86-
 mid.  surface     0.0000E+00  0.0000E+00  0.0000E+00  0.0000E+00  0.0000E+00  0.0000E+00
     100-
 mid.  surface     0.0000E+00  0.0000E+00  0.0000E+00  0.0000E+00  0.0000E+00  0.0000E+00
     110-
 mid.  surface     0.0000E+00  0.0000E+00  0.0000E+00  0.0000E+00  0.0000E+00  0.0000E+00



 n o d a l  s t r e s s  c a l c u l a t i o n s   f o r   t i m e  s t e p       10   ( at time 1.29245E+00 )

 node (global)
          stress       sig-xx      sig-yy      sig-zz      sig-xy      sig-yz      sig-zx       plastic
                                                                                                 strain 
       1-
 mid.  surface    -1.8167E+07 -2.9876E+07 -1.3632E+08  3.2282E+07 -6.3604E+06 -3.1211E+07  0.0000E+00
       2-
 mid.  surface    -2.0967E+07  5.0696E+06 -1.9945E+08  2.0275E+07 -4.1103E+06 -1.2133E+07  0.0000E+00
       8-
 mid.  surface    -2.3368E+07  2.3971E+07 -1.0330E+08 -9.7111E+06  3.5260E+06  3.2377E+06  0.0000E+00
       9-
 mid.  surface    -1.4625E+07 -1.9223E+06 -1.9062E+08 -1.4863E+07 -7.8331E+06  5.1984E+06  0.0000E+00
      10-
 mid.  surface    -7.6990E+06  1.4789E+07 -1.8544E+08  7.2395E+06 -1.7875E+07  1.1134E+07  0.0000E+00
      11-
 mid.  surface    -2.9361E+05 -2.2917E+06 -1.5801E+08  1.2422E+07 -5.5652E+07 -8.8278E+06  0.0000E+00
      12-
 mid.  surface    -2.4921E+07 -2.6652E+07 -1.4555E+08  7.9078E+06 -4.6525E+07 -2.4292E+07  0.0000E+00
      17-
 mid.  surface     1.4363E+07 -3.9796E+06 -1.3066E+08  1.3473E+07 -1.6665E+07 -2.3560E+07  0.0000E+00
      18-
 mid.  surface    -9.2202E+06  2.3175E+07 -1.1224E+08  1.8738E+07 -1.1160E+06 -8.0394E+06  0.0000E+00
      19-
 mid.  surface    -8.9805E+06 -1.0903E+06 -1.6995E+08 -6.0589E+06 -8.6879E+06 -1.6692E+07  0.0000E+00
      20-
 mid.  surface    -8.5150E+06 -3.2818E+07 -1.6002E+08  9.4065E+06  6.4543E+06  1.8069E+07  0.0000E+00
      21-
 mid.  surface    -2.8950E+07 -1.9888E+07 -1.9314E+08 -9.3889E+06  1.9340E+06  9.9193E+06  0.0000E+00
      22-
 mid.  surface    -5.0393E+07 -5.7051E+07 -1.7581E+08  4.3383E+06  1.5584E+07 -1.7159E+07  0.0000E+00
      23-
 mid.  surface    -2.5139E+07 -3.6568E+07 -1.9333E+08  9.0509E+06  1.8795E+07 -1.4902E+07  0.0000E+00
      40-
 mid.  surface    -1.9290E+07 -1.5977E+06 -1.9652E+08  6.0283E+06 -1.1528E+07 -1.9769E+07  0.0000E+00
      41-
 mid.  surface    -2.4013E+07  5.1400E+06 -1.2401E+08  1.7563E+07 -1.2329E+07  1.9297E+06  0.0000E+00
      85-
 mid.  surface    -4.1524E+07 -9.3959E+06 -2.1916E+08  1.6770E+07  3.5763E+06 -1.0791E+06  0.0000E+00
      86-
 mid.  surface    -4.2814E+07 -5.3860E+07 -1.5837E+08  2.8546E+07  3.7406E+07 -2.2902E+07  0.0000E+00
     100-
 mid.  surface    -3.3880E+07  1.2875E+07 -1.0924E+08 -7.5066E+06 -1.1902E+07  3.7483E+06  0.0000E+00
     110-
 mid.  surface    -2.2005E+07 -1.3781E+07 -1.9625E+08 -1.3286E+07 -2.2154E+07 -1.9392E+07  0.0000E+00



 n o d a l  s t r a i n  c a l c u l a t i o n s   f o r   t i m e  s t e p       10   ( at time 1.29245E+00 )

 node (global)
          strain       eps-xx      eps-yy      eps-zz      eps-xy      eps-yz      eps-zx       
       1-
 mid.  surface     5.3478E-04  3.1130E-04 -1.7200E-03  6.1608E-04 -1.2144E-04 -5.9573E-04
       2-
 mid.  surface     6.2921E-04  1.1260E-03 -2.7769E-03  3.8690E-04 -7.8364E-05 -2.3148E-04
       8-
 mid.  surface     4.5051E-05  9.4840E-04 -1.4803E-03 -1.8531E-04  6.7419E-05  6.1883E-05
       9-
 mid.  surface     7.1070E-04  9.5311E-04 -2.6480E-03 -2.8369E-04 -1.4965E-04  9.9102E-05
      10-
 mid.  surface     7.0496E-04  1.1342E-03 -2.6870E-03  1.3808E-04 -3.4123E-04  2.1237E-04
      11-
 mid.  surface     7.6146E-04  7.2357E-04 -2.2489E-03  2.3714E-04 -1.0618E-03 -1.6816E-04
      12-
 mid.  surface     4.6647E-04  4.3355E-04 -1.8355E-03  1.5086E-04 -8.8798E-04 -4.6373E-04
      17-
 mid.  surface     8.4899E-04  4.9874E-04 -1.9189E-03  2.5724E-04 -3.1758E-04 -4.4915E-04
      18-
 mid.  surface     2.9394E-04  9.1198E-04 -1.6721E-03  3.5763E-04 -2.1033E-05 -1.5320E-04
      19-
 mid.  surface     6.8899E-04  8.3938E-04 -2.3830E-03 -1.1565E-04 -1.6559E-04 -3.1832E-04
      20-
 mid.  surface     7.9990E-04  3.3589E-04 -2.0916E-03  1.7962E-04  1.2344E-04  3.4512E-04
      21-
 mid.  surface     6.0385E-04  7.7661E-04 -2.5293E-03 -1.7923E-04  3.6784E-05  1.8915E-04
      22-
 mid.  surface     3.9204E-04  2.6510E-04 -2.0010E-03  8.2697E-05  2.9695E-04 -3.2794E-04
      23-
 mid.  surface     7.3894E-04  5.2111E-04 -2.4709E-03  1.7270E-04  3.5837E-04 -2.8469E-04
      40-
 mid.  surface     6.7045E-04  1.0082E-03 -2.7114E-03  1.1491E-04 -2.2049E-04 -3.7775E-04
      41-
 mid.  surface     2.2472E-04  7.8087E-04 -1.6832E-03  3.3513E-04 -2.3535E-04  3.6707E-05
      85-
 mid.  surface     4.9827E-04  1.1112E-03 -2.8915E-03  3.2004E-04  6.8181E-05 -2.0665E-05
      86-
 mid.  surface     4.0204E-04  1.9118E-04 -1.8030E-03  5.4474E-04  7.1368E-04 -4.3724E-04
     100-
 mid.  surface    -2.3948E-05  8.6822E-04 -1.4620E-03 -1.4326E-04 -2.2726E-04  7.1407E-05
     110-
 mid.  surface     6.8876E-04  8.4572E-04 -2.6365E-03 -2.5361E-04 -4.2317E-04 -3.7038E-04



 n o d a l  s t r e s s  c a l c u l a t i o n s   f o r   t i m e  s t e p       14   ( at time 2.54839E+00 )

 node (global)
          stress       sig-xx      sig-yy      sig-zz      sig-xy      sig-yz      sig-zx       plastic
                                                                                                 strain 
       1-
 mid.  surface    -1.9560E+07 -3.5365E+07 -2.9591E+08  6.6600E+07 -1.6730E+07 -5.4741E+07 -1.7922E-04
       2-
 mid.  surface    -8.5682E+07 -4.1458E+07 -3.0877E+08  3.1512E+07 -7.3477E+06  8.4527E+06  7.5919E-04
       8-
 mid.  surface    -2.5304E+07  6.7489E+07 -2.2767E+08 -1.7268E+07  3.4848E+06  5.5412E+06 -1.8266E-04
       9-
 mid.  surface    -6.1954E+07 -3.8796E+07 -3.0468E+08 -3.0038E+07 -3.7521E+06  1.3307E+07  5.8656E-04
      10-
 mid.  surface    -5.4750E+07 -1.2773E+07 -2.6884E+08  1.1845E+07 -2.9317E+07  3.0946E+07  7.5232E-04
      11-
 mid.  surface    -1.4367E+07 -3.8323E+06 -2.5773E+08  2.7759E+07 -1.1942E+08 -8.3572E+06  3.3905E-04
      12-
 mid.  surface    -4.9943E+07 -4.1707E+07 -2.6764E+08  2.0082E+07 -1.0545E+08 -4.1345E+07  1.4187E-04
      17-
 mid.  surface     3.1145E+07 -1.2596E+07 -2.1466E+08  2.7617E+07 -5.5887E+07 -3.6045E+07  2.7976E-04
      18-
 mid.  surface    -1.0473E+07  4.8542E+07 -2.0359E+08  3.7635E+07 -6.6160E+06 -9.4185E+06  1.3775E-04
      19-
 mid.  surface    -4.9220E+07 -4.9456E+07 -2.4265E+08 -1.6707E+07 -3.7178E+07 -1.2257E+07  7.7373E-04
      20-
 mid.  surface    -1.7507E+07 -7.5122E+07 -2.9922E+08  1.9122E+07  3.4908E+07  2.9161E+07  2.0049E-04
      21-
 mid.  surface    -8.9961E+07 -9.2932E+07 -3.0996E+08 -2.4511E+07  3.1684E+07  1.9849E+07  6.7643E-04
      22-
 mid.  surface    -1.0298E+08 -1.0731E+08 -3.5629E+08  1.3876E+07  3.8549E+07 -4.2013E+07 -2.5437E-06
      23-
 mid.  surface    -6.4073E+07 -6.9530E+07 -3.7082E+08  2.3281E+07  3.4946E+07 -3.2628E+07  8.6687E-05
      40-
 mid.  surface    -8.0856E+07 -4.6869E+07 -3.1105E+08  8.7948E+06 -7.4211E+06 -3.3302E+07  6.7140E-04
      41-
 mid.  surface    -4.0970E+07  1.0412E+07 -2.4475E+08  3.3815E+07 -8.6114E+06 -1.6890E+06  7.6732E-05
      85-
 mid.  surface    -1.2985E+08 -7.5583E+07 -3.5429E+08  2.3357E+07  4.1356E+07 -1.6179E+07  6.8638E-04
      86-
 mid.  surface    -7.4575E+07 -9.0971E+07 -3.4283E+08  5.9445E+07  8.9887E+07 -6.3206E+07 -1.7753E-04
     100-
 mid.  surface    -4.7623E+07  4.0639E+07 -2.4520E+08 -1.3917E+07 -2.7721E+07 -2.9730E+06 -1.9821E-04
     110-
 mid.  surface    -8.0142E+07 -6.6062E+07 -3.2208E+08 -2.8037E+07 -3.5804E+07 -3.9947E+07  5.6443E-04



 n o d a l  s t r a i n  c a l c u l a t i o n s   f o r   t i m e  s t e p       14   ( at time 2.54839E+00 )

 node (global)
          strain       eps-xx      eps-yy      eps-zz      eps-xy      eps-yz      eps-zx       
       1-
 mid.  surface     1.1642E-03  7.2028E-04 -3.5463E-03  1.3152E-03 -2.5909E-04 -1.0514E-03
       2-
 mid.  surface     1.3677E-03  2.3153E-03 -5.7505E-03  8.2446E-04 -1.7247E-04 -3.3484E-04
       8-
 mid.  surface     4.4726E-05  2.0328E-03 -2.9569E-03 -3.9365E-04  1.8787E-04  1.2860E-04
       9-
 mid.  surface     1.5032E-03  2.0349E-03 -5.4655E-03 -5.7787E-04 -2.3659E-04  2.0882E-04
      10-
 mid.  surface     1.5114E-03  2.4398E-03 -5.5526E-03  3.4987E-04 -7.3839E-04  4.3790E-04
      11-
 mid.  surface     1.6743E-03  1.6148E-03 -4.6048E-03  5.8042E-04 -2.3465E-03 -3.9152E-04
      12-
 mid.  surface     1.0646E-03  9.7812E-04 -3.7488E-03  3.6475E-04 -1.9760E-03 -9.7906E-04
      17-
 mid.  surface     1.8177E-03  1.1082E-03 -3.8589E-03  6.5181E-04 -8.1558E-04 -9.9422E-04
      18-
 mid.  surface     5.8532E-04  1.9925E-03 -3.3633E-03  8.0245E-04 -1.0580E-04 -3.3259E-04
      19-
 mid.  surface     1.5246E-03  1.7234E-03 -4.8694E-03 -1.7667E-04 -4.6494E-04 -7.0549E-04
      20-
 mid.  surface     1.6713E-03  7.1602E-04 -4.2483E-03  4.5103E-04  3.4036E-04  7.3592E-04
      21-
 mid.  surface     1.2969E-03  1.5526E-03 -5.1905E-03 -3.3864E-04  1.3275E-04  3.7861E-04
      22-
 mid.  surface     8.5361E-04  5.7229E-04 -4.1143E-03  2.0269E-04  6.7893E-04 -6.7514E-04
      23-
 mid.  surface     1.5711E-03  1.1367E-03 -5.1037E-03  4.1324E-04  8.3829E-04 -5.5705E-04
      40-
 mid.  surface     1.3998E-03  2.1168E-03 -5.6023E-03  2.7325E-04 -4.4514E-04 -7.9375E-04
      41-
 mid.  surface     4.1557E-04  1.6624E-03 -3.3838E-03  7.2297E-04 -5.0718E-04  5.8043E-05
      85-
 mid.  surface     1.0241E-03  2.2583E-03 -5.9395E-03  6.7242E-04  1.8813E-04 -2.9695E-04
      86-
 mid.  surface     8.1827E-04  4.2054E-04 -3.6499E-03  1.1630E-03  1.5800E-03 -1.1211E-03
     100-
 mid.  surface    -1.0821E-04  1.7990E-03 -2.8869E-03 -3.0882E-04 -5.9500E-04  1.1783E-04
     110-
 mid.  surface     1.4295E-03  1.7446E-03 -5.3990E-03 -5.1684E-04 -9.7929E-04 -8.0019E-04



 n o d a l  s t r e s s  c a l c u l a t i o n s   f o r   t i m e  s t e p      175   ( at time 4.53893E+00 )

 node (global)
          stress       sig-xx      sig-yy      sig-zz      sig-xy      sig-yz      sig-zx       plastic
                                                                                                 strain 
       1-
 mid.  surface    -2.5135E+08 -1.2808E+08 -6.3949E+08  1.3027E+08 -1.0213E+07  2.0805E+08 -6.0243E-03
       2-
 mid.  surface    -6.9611E+08 -5.5524E+08 -1.0535E+09  6.6919E+07 -2.1014E+07  2.8924E+08  5.5190E-03
       8-
 mid.  surface    -1.6173E+07  5.6224E+07 -2.6832E+08 -3.9901E+07  7.0743E+07  4.8994E+06  1.2849E-03
       9-
 mid.  surface    -1.9528E+08 -2.2138E+08 -5.2382E+08 -2.7699E+07  6.6066E+07  1.1792E+07  9.5365E-03
      10-
 mid.  surface    -8.5720E+07 -9.1546E+07 -2.2317E+08  2.4281E+07 -4.7155E+07  2.6131E+07  1.7672E-02
      11-
 mid.  surface     2.2130E+08  2.0730E+08 -2.5691E+07  3.2756E+07 -2.1551E+08 -4.8183E+07  8.3487E-03
      12-
 mid.  surface     3.1901E+08  3.3902E+08  2.5728E+08  2.8641E+07 -2.3325E+08 -1.7865E+07  1.6355E-02
      17-
 mid.  surface     1.9010E+08  1.7400E+08 -2.0133E+07  3.4799E+07 -1.5340E+08 -8.0938E+07  9.9035E-03
      18-
 mid.  surface     7.3388E+07  1.3266E+08 -1.9225E+07  2.6047E+07 -1.8650E+07 -2.7990E+07  1.1426E-02
      19-
 mid.  surface    -5.8952E+07 -4.8459E+07 -1.0719E+08 -7.4011E+06 -1.8012E+08  7.1891E+06  2.4797E-02
      20-
 mid.  surface    -6.2368E+07 -8.9416E+07 -3.6856E+08  3.6466E+07  7.9469E+07  7.2553E+07  7.0579E-03
      21-
 mid.  surface    -3.1599E+08 -3.5700E+08 -4.1176E+08 -2.0779E+07  1.1315E+08  4.9467E+07  2.3004E-02
      22-
 mid.  surface    -3.9103E+07 -7.0057E+07 -1.7180E+08  2.0425E+07  1.1557E+08 -2.2291E+07  1.3579E-02
      23-
 mid.  surface    -7.3680E+07 -1.0335E+08 -4.4892E+08  3.4610E+07  7.3945E+07  3.3959E+07  4.2666E-03
      40-
 mid.  surface    -2.0085E+08 -2.0871E+08 -3.7011E+08  1.6444E+07  3.8537E+07 -2.2363E+06  1.7119E-02
      41-
 mid.  surface    -8.3557E+07 -1.1228E+07 -1.8522E+08  1.6204E+07  3.6197E+07  2.7352E+07  1.0887E-02
      85-
 mid.  surface    -7.4627E+08 -6.4593E+08 -9.4039E+08  1.4466E+07  2.1882E+08 -3.0888E+08  8.5263E-03
      86-
 mid.  surface    -2.4227E+08 -1.6748E+08 -4.4481E+08  8.6584E+07  2.9038E+08 -3.5470E+08 -1.7947E-03
     100-
 mid.  surface    -5.6903E+07  1.2683E+07 -2.6785E+08 -2.2821E+07 -1.0724E+08 -8.9113E+06  1.3406E-03
     110-
 mid.  surface    -1.6812E+08 -2.1415E+08 -4.3094E+08 -1.1069E+07 -1.0343E+08 -5.1181E+07  1.1124E-02



 n o d a l  s t r a i n  c a l c u l a t i o n s   f o r   t i m e  s t e p      175   ( at time 4.53893E+00 )

 node (global)
          strain       eps-xx      eps-yy      eps-zz      eps-xy      eps-yz      eps-zx       
       1-
 mid.  surface    -1.2389E-03  6.7724E-03 -1.0191E-02  7.1387E-03 -9.3195E-04  8.3691E-03
       2-
 mid.  surface     1.9855E-04  9.3073E-03 -2.0227E-02  2.9586E-03 -5.9442E-04  1.0671E-02
       8-
 mid.  surface     1.3814E-03  5.6398E-03 -8.1100E-03 -2.3226E-03  4.3833E-03  3.4409E-04
       9-
 mid.  surface     6.6130E-03  5.0298E-03 -1.6139E-02 -1.7281E-03  3.8627E-03  7.3164E-04
      10-
 mid.  surface     6.7560E-03  6.4897E-03 -1.5219E-02  1.9537E-03 -3.2875E-03  1.0671E-03
      11-
 mid.  surface     6.9803E-03  6.0323E-03 -1.1197E-02  2.1602E-03 -1.2923E-02 -3.7405E-03
      12-
 mid.  surface     5.6174E-03  5.7463E-03 -7.1680E-03  2.6826E-03 -1.2990E-02 -8.4371E-03
      17-
 mid.  surface     6.5143E-03  5.5396E-03 -1.0481E-02  2.1761E-03 -9.1171E-03 -6.5366E-03
      18-
 mid.  surface     3.1098E-03  6.7040E-03 -8.9499E-03  2.0501E-03 -1.9555E-03 -1.9742E-03
      19-
 mid.  surface     6.8860E-03  6.6270E-03 -1.4662E-02  2.4159E-04 -8.0296E-03 -7.9095E-03
      20-
 mid.  surface     6.4048E-03  4.6004E-03 -1.3545E-02  2.0857E-03  5.9370E-03  5.1036E-03
      21-
 mid.  surface     7.8832E-03  4.9632E-03 -1.8138E-02 -1.1345E-04  5.4792E-03  7.2763E-03
      22-
 mid.  surface     6.4179E-03  3.6622E-03 -1.1541E-02  2.6457E-03  7.1040E-03  4.1398E-03
      23-
 mid.  surface     7.1550E-03  4.9269E-03 -1.5138E-02  1.9958E-03  7.9040E-03  2.3244E-03
      40-
 mid.  surface     6.3298E-03  5.7334E-03 -1.5827E-02  1.3264E-03  3.3082E-04 -1.6807E-03
      41-
 mid.  surface     1.8595E-03  6.1044E-03 -9.3126E-03  1.3300E-03 -6.2686E-04  7.0040E-04
      85-
 mid.  surface    -3.2244E-04  7.3008E-03 -1.7922E-02  7.6701E-04  3.0034E-03 -1.2824E-02
      86-
 mid.  surface    -1.6657E-03  4.1144E-03 -6.3961E-03  5.4759E-03  8.9753E-03 -1.5305E-02
     100-
 mid.  surface     5.2115E-04  4.6428E-03 -6.6496E-03 -1.2638E-03 -6.3423E-03 -1.6908E-04
     110-
 mid.  surface     6.5328E-03  3.8476E-03 -1.4307E-02 -6.1578E-04 -6.6770E-03 -3.1153E-03



 n o d a l  s t r e s s  c a l c u l a t i o n s   f o r   t i m e  s t e p      181   ( at time 6.52946E+00 )

 node (global)
          stress       sig-xx      sig-yy      sig-zz      sig-xy      sig-yz      sig-zx       plastic
                                                                                                 strain 
       1-
 mid.  surface    -2.5452E+08 -1.7160E+08 -5.6833E+08  6.7398E+07 -1.0413E+07  1.0739E+08  1.1637E-03
       2-
 mid.  surface    -9.3343E+08 -8.3545E+08 -1.2320E+09  4.2734E+07 -1.7162E+07  1.4994E+08  1.6466E-02
       8-
 mid.  surface     5.4266E+07  1.0270E+08 -1.9036E+08 -2.8104E+07  3.3718E+07  1.1508E+06  1.0723E-02
       9-
 mid.  surface    -2.3822E+08 -2.5639E+08 -5.3040E+08 -2.2388E+07  3.3898E+07  7.2895E+06  2.2247E-02
      10-
 mid.  surface     1.4291E+07  4.0023E+06 -2.1579E+08  1.7065E+07 -5.4496E+07  1.1543E+07  2.9811E-02
      11-
 mid.  surface     3.5729E+08  3.3782E+08  7.4991E+07  1.5605E+07 -1.5480E+08 -3.7292E+07  1.6837E-02
      12-
 mid.  surface     4.9933E+08  5.2015E+08  3.1200E+08  1.1453E+07 -1.4407E+08 -3.3893E+07  2.5868E-02
      17-
 mid.  surface     2.7887E+08  2.7713E+08  4.7348E+07  1.3265E+07 -1.2522E+08 -6.9191E+07  2.0762E-02
      18-
 mid.  surface     2.3475E+08  2.7166E+08  4.5905E+07  1.6749E+07 -4.2144E+07 -2.5457E+07  2.2039E-02
      19-
 mid.  surface    -9.0529E+07 -5.7970E+07 -2.4804E+08 -5.0003E+06 -1.1681E+08 -2.9273E+07  3.8465E-02
      20-
 mid.  surface    -8.8346E+07 -1.0193E+08 -3.9001E+08  2.1850E+07  5.1484E+07  4.3953E+07  1.6752E-02
      21-
 mid.  surface    -4.3191E+08 -4.5265E+08 -6.3973E+08 -5.0797E+06  7.1874E+07  2.3214E+07  3.6432E-02
      22-
 mid.  surface     2.1762E+07 -2.1920E+06 -2.1310E+08  1.6673E+07  8.7138E+07 -8.4919E+06  2.3298E-02
      23-
 mid.  surface    -7.0820E+07 -9.6546E+07 -4.2723E+08  2.1420E+07  7.3384E+07  2.2031E+07  1.2111E-02
      40-
 mid.  surface    -2.4310E+08 -2.5668E+08 -4.9486E+08  9.7988E+06  2.6642E+07 -6.4057E+06  2.8816E-02
      41-
 mid.  surface    -6.7991E+07 -2.7314E+07 -2.6434E+08  1.0451E+07  1.4644E+07  1.6165E+07  2.1074E-02
      85-
 mid.  surface    -1.0525E+09 -9.9949E+08 -1.2669E+09  2.7081E+06  1.1821E+08 -1.6269E+08  2.0880E-02
      86-
 mid.  surface    -2.7324E+08 -2.3653E+08 -4.8879E+08  3.9479E+07  1.6498E+08 -1.8493E+08  7.0970E-03
     100-
 mid.  surface    -1.3217E+08 -9.6861E+07 -3.5703E+08 -1.6432E+07 -6.3391E+07  1.0175E+06  1.0281E-02
     110-
 mid.  surface    -3.2481E+08 -3.6601E+08 -5.9335E+08 -1.0657E+07 -6.0952E+07 -3.1488E+07  2.3434E-02



 n o d a l  s t r a i n  c a l c u l a t i o n s   f o r   t i m e  s t e p      181   ( at time 6.52946E+00 )

 node (global)
          strain       eps-xx      eps-yy      eps-zz      eps-xy      eps-yz      eps-zx       
       1-
 mid.  surface     1.5152E-03  1.2922E-02 -1.8971E-02  9.0206E-03 -1.1398E-03  1.0415E-02
       2-
 mid.  surface     3.1075E-03  1.6054E-02 -3.3184E-02  4.2611E-03 -5.6530E-04  1.3595E-02
       8-
 mid.  surface     5.1144E-03  1.1515E-02 -1.6841E-02 -3.5511E-03  5.3632E-03  3.5657E-04
       9-
 mid.  surface     1.2979E-02  1.0531E-02 -2.8506E-02 -2.8080E-03  4.5426E-03  8.6675E-04
      10-
 mid.  surface     1.2826E-02  1.2007E-02 -2.5929E-02  2.8270E-03 -6.5093E-03  1.2131E-03
      11-
 mid.  surface     1.2437E-02  1.0490E-02 -1.9439E-02  2.7282E-03 -1.9124E-02 -5.3221E-03
      12-
 mid.  surface     9.7312E-03  1.0901E-02 -1.4506E-02  3.1452E-03 -1.8268E-02 -1.1181E-02
      17-
 mid.  surface     1.1650E-02  1.0830E-02 -1.9752E-02  2.5478E-03 -1.4142E-02 -9.6359E-03
      18-
 mid.  surface     7.4263E-03  1.2743E-02 -1.7620E-02  2.9144E-03 -4.6101E-03 -3.2349E-03
      19-
 mid.  surface     1.1163E-02  1.2593E-02 -2.5834E-02  2.3131E-04 -1.1775E-02 -1.0805E-02
      20-
 mid.  surface     1.1719E-02  9.4477E-03 -2.4091E-02  2.8823E-03  8.4734E-03  6.9458E-03
      21-
 mid.  surface     1.3357E-02  9.6768E-03 -3.0526E-02  8.6876E-05  7.3728E-03  8.5727E-03
      22-
 mid.  surface     1.1457E-02  7.7442E-03 -2.0342E-02  3.6145E-03  9.6622E-03  4.6913E-03
      23-
 mid.  surface     1.2699E-02  9.2182E-03 -2.4921E-02  2.7269E-03  1.1718E-02  3.1105E-03
      40-
 mid.  surface     1.1910E-02  1.0402E-02 -2.7185E-02  1.7345E-03  1.0518E-03 -2.4456E-03
      41-
 mid.  surface     5.3666E-03  1.1245E-02 -1.8392E-02  1.8279E-03 -3.5895E-04  1.2461E-03
      85-
 mid.  surface     2.7234E-03  1.2222E-02 -3.0630E-02  5.0561E-04  5.4727E-03 -1.7409E-02
      86-
 mid.  surface     1.3644E-03  8.4125E-03 -1.4446E-02  6.4465E-03  1.3257E-02 -2.0699E-02
     100-
 mid.  surface     3.3782E-03  8.6793E-03 -1.4878E-02 -1.9925E-03 -9.0745E-03  2.6935E-05
     110-
 mid.  surface     1.2361E-02  7.4656E-03 -2.6086E-02 -1.1895E-03 -9.6559E-03 -4.6872E-03



 n o d a l  s t r e s s  c a l c u l a t i o n s   f o r   t i m e  s t e p      187   ( at time 9.68425E+00 )

 node (global)
          stress       sig-xx      sig-yy      sig-zz      sig-xy      sig-yz      sig-zx       plastic
                                                                                                 strain 
       1-
 mid.  surface    -2.3030E+08 -1.7013E+08 -5.0354E+08  3.1397E+07 -7.7941E+06  5.1124E+07  1.4469E-02
       2-
 mid.  surface    -1.1989E+09 -1.1284E+09 -1.4672E+09  2.7634E+07 -1.2455E+07  6.8062E+07  3.3314E-02
       8-
 mid.  surface     1.3136E+08  1.6910E+08 -1.0546E+08 -2.2867E+07 -4.1330E+05  3.3810E+05  2.5187E-02
       9-
 mid.  surface    -3.0273E+08 -3.1461E+08 -5.7145E+08 -1.8693E+07  6.2739E+05  4.8217E+06  4.0571E-02
      10-
 mid.  surface     1.1199E+08  1.0173E+08 -1.5596E+08  1.4818E+07 -6.8268E+07  4.1385E+05  4.6133E-02
      11-
 mid.  surface     4.7043E+08  4.4720E+08  1.8682E+08  5.7069E+06 -1.2181E+08 -3.0088E+07  3.0573E-02
      12-
 mid.  surface     6.6600E+08  6.8724E+08  4.2917E+08  1.8676E+06 -1.0275E+08 -4.3296E+07  3.9531E-02
      17-
 mid.  surface     3.3244E+08  3.3897E+08  9.1171E+07  6.9868E+06 -1.0678E+08 -5.6675E+07  3.6819E-02
      18-
 mid.  surface     4.0305E+08  4.3136E+08  1.6734E+08  1.4285E+07 -6.2666E+07 -2.5862E+07  3.6492E-02
      19-
 mid.  surface    -1.7064E+08 -1.2865E+08 -3.8307E+08  7.5351E+05 -8.8917E+07 -4.7896E+07  5.6173E-02
      20-
 mid.  surface    -1.6210E+08 -1.7152E+08 -4.6492E+08  1.5372E+07  4.4571E+07  3.3132E+07  3.1342E-02
      21-
 mid.  surface    -6.1130E+08 -6.2624E+08 -8.8430E+08  5.0618E+06  5.1946E+07  1.8149E+07  5.3546E-02
      22-
 mid.  surface     5.4907E+07  3.6333E+07 -2.2940E+08  1.4671E+07  6.8275E+07  4.8115E+06  3.7019E-02
      23-
 mid.  surface    -1.0461E+08 -1.2651E+08 -4.4041E+08  1.1608E+07  6.9403E+07  1.8598E+07  2.5113E-02
      40-
 mid.  surface    -3.2610E+08 -3.3798E+08 -6.1845E+08  4.6406E+06  3.2022E+07 -4.5898E+06  4.4564E-02
      41-
 mid.  surface    -8.1646E+07 -5.2983E+07 -3.3251E+08  7.0220E+06  2.1359E+07  1.2163E+07  3.4843E-02
      85-
 mid.  surface    -1.4146E+09 -1.3988E+09 -1.6608E+09  9.3398E+05  8.0013E+07 -9.3539E+07  3.8602E-02
      86-
 mid.  surface    -2.9189E+08 -2.8352E+08 -5.3282E+08  1.9621E+07  1.1251E+08 -9.8530E+07  2.1594E-02
     100-
 mid.  surface    -2.3854E+08 -2.1272E+08 -4.6705E+08 -1.3505E+07 -2.7119E+07  8.0895E+06  2.4377E-02
     110-
 mid.  surface    -5.3775E+08 -5.6966E+08 -8.0490E+08 -1.0016E+07 -2.5896E+07 -1.7103E+07  4.1364E-02



 n o d a l  s t r a i n  c a l c u l a t i o n s   f o r   t i m e  s t e p      187   ( at time 9.68425E+00 )

 node (global)
          strain       eps-xx      eps-yy      eps-zz      eps-xy      eps-yz      eps-zx       
       1-
 mid.  surface     6.5038E-03  2.1712E-02 -3.2332E-02  1.0489E-02 -1.2188E-03  1.1688E-02
       2-
 mid.  surface     7.9931E-03  2.5337E-02 -5.1144E-02  5.8017E-03 -3.3776E-04  1.5507E-02
       8-
 mid.  surface     1.0544E-02  1.9696E-02 -2.9468E-02 -5.0166E-03  4.8985E-03  4.5224E-04
       9-
 mid.  surface     2.1230E-02  1.8153E-02 -4.5350E-02 -4.0747E-03  3.6454E-03  9.8992E-04
      10-
 mid.  surface     2.1062E-02  1.9658E-02 -4.0783E-02  3.9963E-03 -1.1530E-02  9.3161E-04
      11-
 mid.  surface     2.0266E-02  1.6656E-02 -3.1990E-02  3.2114E-03 -2.6386E-02 -7.1621E-03
      12-
 mid.  surface     1.5764E-02  1.8341E-02 -2.5921E-02  3.3813E-03 -2.4431E-02 -1.4727E-02
      17-
 mid.  surface     1.8641E-02  1.8522E-02 -3.3829E-02  3.1217E-03 -2.0007E-02 -1.2998E-02
      18-
 mid.  surface     1.3638E-02  2.1246E-02 -3.0316E-02  4.1143E-03 -8.8384E-03 -4.8805E-03
      19-
 mid.  surface     1.6900E-02  2.1228E-02 -4.1682E-02  6.1690E-04 -1.6291E-02 -1.4510E-02
      20-
 mid.  surface     1.9147E-02  1.6290E-02 -3.9595E-02  3.7790E-03  1.1752E-02  9.1158E-03
      21-
 mid.  surface     2.1003E-02  1.6399E-02 -4.7958E-02  5.7797E-04  9.5071E-03  1.0122E-02
      22-
 mid.  surface     1.8755E-02  1.3845E-02 -3.3673E-02  4.6554E-03  1.2341E-02  5.4337E-03
      23-
 mid.  surface     2.0391E-02  1.5218E-02 -3.9171E-02  3.2438E-03  1.5988E-02  4.0031E-03
      40-
 mid.  surface     1.9666E-02  1.7126E-02 -4.3206E-02  1.9577E-03  2.6187E-03 -3.1795E-03
      41-
 mid.  surface     1.0784E-02  1.8654E-02 -3.1847E-02  2.3273E-03  1.1634E-03  1.9362E-03
      85-
 mid.  surface     8.6002E-03  1.8967E-02 -4.8898E-02  4.0729E-04  9.0123E-03 -2.2474E-02
      86-
 mid.  surface     7.5470E-03  1.4799E-02 -2.7665E-02  7.3904E-03  1.8727E-02 -2.6194E-02
     100-
 mid.  surface     7.9523E-03  1.4964E-02 -2.7387E-02 -2.8153E-03 -1.1030E-02  6.1606E-04
     110-
 mid.  surface     2.0288E-02  1.3120E-02 -4.2822E-02 -1.8807E-03 -1.2136E-02 -6.1324E-03



 n o d a l  s t r e s s  c a l c u l a t i o n s   f o r   t i m e  s t e p      195   ( at time 1.46842E+01 )

 node (global)
          stress       sig-xx      sig-yy      sig-zz      sig-xy      sig-yz      sig-zx       plastic
                                                                                                 strain 
       1-
 mid.  surface    -3.7883E+07 -6.0016E+06 -2.7786E+08  6.2553E+06 -1.1396E+07  5.1111E+06  3.8570E-02
       2-
 mid.  surface    -1.5347E+09 -1.5029E+09 -1.7818E+09  9.0685E+06 -1.4806E+07  1.8529E+07  6.1165E-02
       8-
 mid.  surface     2.4987E+08  2.8383E+08  3.8443E+07 -2.3329E+07 -4.2011E+07  2.5252E+06  4.9433E-02
       9-
 mid.  surface    -4.6515E+08 -4.8105E+08 -7.0609E+08 -2.2645E+07 -2.8326E+07  6.9263E+06  7.0905E-02
      10-
 mid.  surface     3.4462E+08  3.3045E+08  4.6915E+07  1.8062E+07 -1.0236E+08 -1.4095E+07  6.8835E-02
      11-
 mid.  surface     4.3755E+08  4.3046E+08  1.5986E+08 -7.8257E+06 -9.4143E+07 -2.1800E+07  5.0867E-02
      12-
 mid.  surface     6.4999E+08  6.7396E+08  3.9453E+08 -1.0084E+07 -6.7195E+07 -2.7253E+07  6.0687E-02
      17-
 mid.  surface     1.5953E+08  1.8827E+08 -8.3558E+07 -1.1345E+06 -1.2098E+08 -5.1955E+07  6.1521E-02
      18-
 mid.  surface     6.6882E+08  6.9278E+08  3.9912E+08  1.6894E+07 -1.0929E+08 -3.3420E+07  5.7465E-02
      19-
 mid.  surface    -5.2113E+08 -4.7666E+08 -7.6151E+08 -1.0054E+06 -9.0239E+07 -6.0593E+07  8.2016E-02
      20-
 mid.  surface    -1.4973E+08 -1.4144E+08 -4.4485E+08  2.0104E+07  5.8463E+07  3.9844E+07  5.7520E-02
      21-
 mid.  surface    -5.9102E+08 -6.1378E+08 -9.1020E+08  3.9340E+07  4.2439E+07  3.0799E+07  8.0887E-02
      22-
 mid.  surface     4.1271E+08  3.9182E+08  1.1139E+08  3.4143E+07  7.6180E+07  4.7407E+07  6.2979E-02
      23-
 mid.  surface     1.7871E+07 -5.6653E+06 -2.8711E+08  8.8441E+06  1.0888E+08  3.3983E+07  5.0567E-02
      40-
 mid.  surface    -4.7436E+08 -5.0029E+08 -7.9830E+08  2.9872E+06  6.6456E+07 -9.1576E+05  6.8026E-02
      41-
 mid.  surface    -1.3702E+08 -1.1955E+08 -4.2424E+08 -1.3450E+06  4.7367E+07  1.7083E+07  5.6021E-02
      85-
 mid.  surface    -2.0918E+09 -2.0792E+09 -2.3613E+09 -7.5371E+06  6.5316E+07 -4.2414E+07  6.4083E-02
      86-
 mid.  surface    -2.7313E+08 -2.4606E+08 -5.2432E+08  1.0042E+07  8.2251E+07 -4.7745E+07  4.4084E-02
     100-
 mid.  surface    -3.3521E+08 -2.9926E+08 -5.2875E+08 -9.4464E+06  9.9496E+06  1.8754E+07  4.9943E-02
     110-
 mid.  surface    -9.0894E+08 -9.2772E+08 -1.1430E+09 -5.7996E+06  2.2250E+07 -5.7266E+06  7.2863E-02



 n o d a l  s t r a i n  c a l c u l a t i o n s   f o r   t i m e  s t e p      195   ( at time 1.46842E+01 )

 node (global)
          strain       eps-xx      eps-yy      eps-zz      eps-xy      eps-yz      eps-zx       
       1-
 mid.  surface     1.6570E-02  3.4501E-02 -5.2417E-02  1.2373E-02 -1.9401E-03  1.1543E-02
       2-
 mid.  surface     1.7410E-02  3.7580E-02 -7.7666E-02  8.3468E-03 -3.0265E-04  1.8071E-02
       8-
 mid.  surface     1.8542E-02  3.2362E-02 -4.8568E-02 -7.4883E-03  1.6717E-03  9.1085E-04
       9-
 mid.  surface     3.3284E-02  2.9286E-02 -7.1208E-02 -6.5662E-03  7.6821E-04  1.4932E-03
      10-
 mid.  surface     3.3426E-02  3.1298E-02 -6.2073E-02  6.4720E-03 -2.0805E-02 -2.8297E-04
      11-
 mid.  surface     2.9980E-02  2.5312E-02 -5.1065E-02  2.4882E-03 -3.5336E-02 -8.9390E-03
      12-
 mid.  surface     2.3865E-02  2.9084E-02 -4.5254E-02  2.6635E-03 -3.1083E-02 -1.7254E-02
      17-
 mid.  surface     2.7326E-02  3.0011E-02 -5.6720E-02  3.0170E-03 -2.8746E-02 -1.6890E-02
      18-
 mid.  surface     2.3401E-02  3.4411E-02 -4.9929E-02  6.7516E-03 -1.6999E-02 -7.7483E-03
      19-
 mid.  surface     2.4250E-02  3.3579E-02 -6.6730E-02  9.2964E-04 -2.2760E-02 -1.8855E-02
      20-
 mid.  surface     3.1512E-02  2.9301E-02 -6.5199E-02  5.7914E-03  1.8470E-02  1.3293E-02
      21-
 mid.  surface     3.5552E-02  2.9155E-02 -7.5813E-02  4.7036E-03  1.2653E-02  1.3058E-02
      22-
 mid.  surface     3.3695E-02  2.6499E-02 -5.6839E-02  8.3138E-03  1.6860E-02  9.1838E-03
      23-
 mid.  surface     3.4270E-02  2.5544E-02 -6.1991E-02  4.0613E-03  2.4787E-02  6.5431E-03
      40-
 mid.  surface     3.2037E-02  2.6167E-02 -6.7339E-02  2.2492E-03  8.1276E-03 -3.6041E-03
      41-
 mid.  surface     1.9984E-02  2.9618E-02 -5.3311E-02  2.3314E-03  7.1062E-03  3.5807E-03
      85-
 mid.  surface     1.5984E-02  2.9356E-02 -7.6774E-02 -5.6543E-04  1.4605E-02 -2.6130E-02
      86-
 mid.  surface     1.6036E-02  2.7389E-02 -4.8777E-02  7.9516E-03  2.5380E-02 -3.2024E-02
     100-
 mid.  surface     1.4846E-02  2.6324E-02 -4.6935E-02 -3.5882E-03 -1.1345E-02  2.4290E-03
     110-
 mid.  surface     3.1767E-02  2.2827E-02 -6.9432E-02 -2.3507E-03 -1.2308E-02 -7.6026E-03



 n o d a l  s t r e s s  c a l c u l a t i o n s   f o r   t i m e  s t e p      203   ( at time 1.96842E+01 )

 node (global)
          stress       sig-xx      sig-yy      sig-zz      sig-xy      sig-yz      sig-zx       plastic
                                                                                                 strain 
       1-
 mid.  surface    -2.8616E+09 -2.8126E+09 -1.7615E+09 -1.2830E+07  7.6006E+07  9.6472E+07 -3.0972E-02
       2-
 mid.  surface    -4.6160E+09 -4.6237E+09 -3.5506E+09 -2.3606E+07  8.0671E+07  1.2209E+08 -7.9252E-03
       8-
 mid.  surface     2.5239E+08  2.7607E+08  2.8449E+07 -1.0175E+07 -5.6159E+07 -2.7445E+06  7.3062E-02
       9-
 mid.  surface    -5.5516E+08 -5.5506E+08 -7.9570E+08 -6.2452E+06 -4.7114E+07 -2.7889E+06  9.6995E-02
      10-
 mid.  surface     3.7250E+08  3.5718E+08  6.3092E+07 -4.9728E+06 -8.4201E+07 -9.6728E+06  8.8372E-02
      11-
 mid.  surface     4.0846E+08  3.8295E+08  1.1352E+08 -9.5331E+06 -6.7448E+07 -1.4470E+07  7.1383E-02
      12-
 mid.  surface    -6.2578E+08 -5.7585E+08 -2.1422E+08 -1.6510E+06 -1.0088E+07  1.9735E+06  3.3746E-02
      17-
 mid.  surface    -3.3462E+07 -3.8084E+07 -3.0488E+08 -1.6893E+07 -1.0099E+08 -6.3491E+07  8.4632E-02
      18-
 mid.  surface     6.8828E+08  7.0870E+08  4.0539E+08 -1.3443E+06 -1.1067E+08 -3.1418E+07  7.5755E-02
      19-
 mid.  surface    -2.1555E+09 -2.1388E+09 -1.7658E+09 -2.1359E+07 -1.5121E+07 -1.1257E+06  5.7922E-02
      20-
 mid.  surface    -4.7232E+07 -5.3477E+07 -3.5502E+08  3.3440E+07  3.6490E+07  2.4731E+07  8.2351E-02
      21-
 mid.  surface     7.7912E+08  7.6717E+08 -2.7930E+08  2.8276E+07 -1.0277E+07 -3.1136E+07  1.5553E-01
      22-
 mid.  surface     2.1096E+09  2.1161E+09  1.0669E+09  3.6184E+07 -1.5597E+06 -3.5892E+07  1.3532E-01
      23-
 mid.  surface     2.7021E+08  2.3927E+08 -4.0220E+07  3.1921E+07  8.6134E+07  4.7416E+07  7.5956E-02
      40-
 mid.  surface    -3.7910E+08 -3.8797E+08 -7.1355E+08  4.4398E+06  7.4352E+07  1.2747E+07  8.9372E-02
      41-
 mid.  surface    -5.3704E+07 -2.9295E+07 -3.6871E+08  1.6170E+07  4.1088E+07  1.4952E+07  7.4193E-02
      85-
 mid.  surface     1.0699E+09  1.0407E+09 -7.0329E+08  3.1275E+07 -5.0854E+07 -1.3875E+08  1.9115E-01
      86-
 mid.  surface     3.1102E+09  3.1294E+09  1.3671E+09  2.8719E+07 -4.9827E+07 -1.6089E+08  1.7034E-01
     100-
 mid.  surface    -4.6017E+08 -4.4617E+08 -7.0424E+08 -1.0061E+07  2.5299E+07  2.1113E+07  7.2550E-02
     110-
 mid.  surface    -1.0984E+09 -1.1117E+09 -1.3602E+09 -1.5541E+07  3.2317E+07  5.3705E+06  9.8846E-02



 n o d a l  s t r a i n  c a l c u l a t i o n s   f o r   t i m e  s t e p      203   ( at time 1.96842E+01 )

 node (global)
          strain       eps-xx      eps-yy      eps-zz      eps-xy      eps-yz      eps-zx       
       1-
 mid.  surface     3.0545E-02  4.7823E-02 -7.4635E-02  1.4759E-02 -3.4160E-03  8.6086E-03
       2-
 mid.  surface     3.2975E-02  4.7171E-02 -1.0185E-01  9.5979E-03 -4.9878E-04  1.8724E-02
       8-
 mid.  surface     2.6666E-02  4.4471E-02 -6.9108E-02 -7.9847E-03 -8.4701E-04  9.5380E-04
       9-
 mid.  surface     4.3084E-02  4.0357E-02 -9.3602E-02 -6.4570E-03 -3.3429E-03  8.2295E-04
      10-
 mid.  surface     4.3780E-02  4.0043E-02 -8.1116E-02  6.0901E-03 -2.6652E-02 -6.9817E-04
      11-
 mid.  surface     4.0984E-02  3.3005E-02 -7.0615E-02  1.9572E-03 -3.9882E-02 -9.7207E-03
      12-
 mid.  surface     3.3520E-02  4.1742E-02 -6.3076E-02  5.1173E-03 -3.5441E-02 -2.2233E-02
      17-
 mid.  surface     3.7159E-02  3.9067E-02 -7.8967E-02  1.5150E-03 -3.4280E-02 -2.0818E-02
      18-
 mid.  surface     3.1270E-02  4.4781E-02 -6.8197E-02  6.6613E-03 -2.3116E-02 -9.2786E-03
      19-
 mid.  surface     3.5135E-02  4.4358E-02 -8.9552E-02  1.1782E-03 -2.5732E-02 -2.2162E-02
      20-
 mid.  surface     4.4201E-02  4.1664E-02 -8.9371E-02  9.2025E-03  2.1275E-02  1.4825E-02
      21-
 mid.  surface     4.3652E-02  4.0503E-02 -1.0090E-01  5.2091E-03  1.5253E-02  1.5893E-02
      22-
 mid.  surface     4.1770E-02  3.8290E-02 -7.7542E-02  9.5813E-03  1.8765E-02  9.4778E-03
      23-
 mid.  surface     4.8928E-02  3.6426E-02 -8.4468E-02  7.4824E-03  2.9272E-02  9.3443E-03
      40-
 mid.  surface     4.3883E-02  3.6606E-02 -8.8576E-02  2.8416E-03  1.1406E-02 -3.6694E-03
      41-
 mid.  surface     2.8800E-02  4.1017E-02 -7.2732E-02  4.2035E-03  1.0347E-02  4.5998E-03
      85-
 mid.  surface     2.4996E-02  4.0635E-02 -1.0233E-01 -6.5430E-04  1.8326E-02 -2.8259E-02
      86-
 mid.  surface     2.3907E-02  4.1141E-02 -7.2202E-02  6.9617E-03  2.8759E-02 -3.7447E-02
     100-
 mid.  surface     2.3209E-02  3.6644E-02 -6.7976E-02 -4.4307E-03 -1.0703E-02  4.3085E-03
     110-
 mid.  surface     4.2479E-02  3.2322E-02 -9.2767E-02 -3.8147E-03 -1.3379E-02 -7.7928E-03



 n o d a l  s t r e s s  c a l c u l a t i o n s   f o r   t i m e  s t e p      213   ( at time 2.46842E+01 )

 node (global)
          stress       sig-xx      sig-yy      sig-zz      sig-xy      sig-yz      sig-zx       plastic
                                                                                                 strain 
       1-
 mid.  surface    -2.5040E+09 -2.6056E+09 -1.8577E+09  3.4834E+07  6.8116E+07  6.5857E+07 -6.7965E-02
       2-
 mid.  surface    -4.2608E+09 -4.3238E+09 -3.8104E+09  7.8047E+07  6.0685E+07  1.0177E+08 -1.9925E-02
       8-
 mid.  surface     1.9987E+08  1.8227E+08 -2.3177E+07 -2.2032E+07 -1.2962E+08  1.1123E+07  1.0171E-01
       9-
 mid.  surface    -5.8243E+08 -6.1577E+08 -8.4591E+08 -2.7814E+07 -6.7133E+07  1.2454E+07  1.2594E-01
      10-
 mid.  surface     3.5693E+08  2.9041E+08  8.9134E+06 -1.8176E+07 -6.6182E+07 -5.4647E+06  1.0887E-01
      11-
 mid.  surface     4.6563E+08  4.4944E+08  1.8748E+08 -5.8375E+06 -6.3574E+07  1.4753E+06  9.9283E-02
      12-
 mid.  surface    -1.4619E+09 -1.3902E+09 -8.1228E+08 -3.7802E+07 -1.1279E+07  2.3223E+07 -1.9296E-02
      17-
 mid.  surface    -3.7163E+08 -4.0707E+08 -5.9705E+08 -1.8712E+07 -1.2886E+08 -6.7384E+07  1.2079E-01
      18-
 mid.  surface     5.6664E+08  5.3329E+08  2.9412E+08 -1.6690E+07 -1.5738E+08 -2.9034E+07  9.8929E-02
      19-
 mid.  surface    -2.7791E+09 -2.7374E+09 -2.5562E+09 -1.8800E+07 -1.5050E+07 -2.9945E+06  4.7555E-02
      20-
 mid.  surface    -1.5870E+08 -1.7109E+08 -4.6361E+08  2.8214E+07 -5.6808E+06  1.4040E+07  1.1360E-01
      21-
 mid.  surface     4.3362E+08  4.8678E+08 -4.0108E+08 -1.5747E+07 -3.9361E+06 -1.2565E+07  2.1383E-01
      22-
 mid.  surface     1.6062E+09  1.6787E+09  1.1525E+09 -3.7160E+07  3.1114E+07 -4.4546E+06  1.5553E-01
      23-
 mid.  surface     5.7398E+08  5.5610E+08  2.5278E+08  2.8513E+07  1.0636E+08  5.0817E+07  1.0696E-01
      40-
 mid.  surface    -1.7468E+08 -1.6123E+08 -5.0662E+08 -4.7572E+06  1.3273E+08  4.1837E+06  1.1535E-01
      41-
 mid.  surface     1.2970E+08  1.7742E+08 -1.6593E+08 -2.8761E+06  1.7348E+07  1.0048E+07  9.5972E-02
      85-
 mid.  surface     2.3702E+09  2.4358E+09  2.1593E+08  2.3215E+07 -4.4018E+07 -1.8254E+08  3.6511E-01
      86-
 mid.  surface     3.1660E+09  3.2285E+09  1.8788E+09 -3.0867E+07 -9.3434E+06 -1.7592E+08  2.7018E-01
     100-
 mid.  surface    -5.6125E+08 -5.4856E+08 -7.8146E+08 -5.4989E+06  1.1720E+07  3.6688E+07  1.0279E-01
     110-
 mid.  surface    -1.2419E+09 -1.2405E+09 -1.4990E+09  3.7403E+05  9.0318E+07  9.8595E+06  1.3108E-01



 n o d a l  s t r a i n  c a l c u l a t i o n s   f o r   t i m e  s t e p      213   ( at time 2.46842E+01 )

 node (global)
          strain       eps-xx      eps-yy      eps-zz      eps-xy      eps-yz      eps-zx       
       1-
 mid.  surface     4.9456E-02  5.8814E-02 -9.8094E-02  1.6248E-02 -6.3677E-03  1.6029E-03
       2-
 mid.  surface     5.1844E-02  6.3048E-02 -1.3604E-01  1.5236E-02 -1.9945E-03  1.7058E-02
       8-
 mid.  surface     3.7578E-02  5.6808E-02 -9.3623E-02 -1.0582E-02 -8.1498E-03  2.2885E-03
       9-
 mid.  surface     5.6559E-02  4.9947E-02 -1.1776E-01 -9.5359E-03 -1.0845E-02  1.6390E-03
      10-
 mid.  surface     5.7831E-02  4.5627E-02 -1.0171E-01  4.3121E-03 -3.2870E-02 -7.9972E-05
      11-
 mid.  surface     5.4957E-02  4.4734E-02 -9.5767E-02  2.9783E-03 -4.3790E-02 -8.3741E-03
      12-
 mid.  surface     3.5439E-02  5.3508E-02 -7.4006E-02  1.4161E-03 -4.0519E-02 -2.7692E-02
      17-
 mid.  surface     5.1637E-02  4.9462E-02 -1.0928E-01  5.0240E-04 -3.8957E-02 -2.3103E-02
      18-
 mid.  surface     4.1887E-02  5.2353E-02 -8.8690E-02  4.7762E-03 -3.2223E-02 -9.4315E-03
      19-
 mid.  surface     3.8402E-02  5.6082E-02 -1.1186E-01 -2.0083E-03 -2.7301E-02 -2.5694E-02
      20-
 mid.  surface     5.8865E-02  5.5756E-02 -1.2041E-01  1.2068E-02  2.1641E-02  1.5824E-02
      21-
 mid.  surface     5.0448E-02  5.2575E-02 -1.2627E-01  3.5557E-03  1.8634E-02  2.1837E-02
      22-
 mid.  surface     4.8047E-02  5.0063E-02 -9.2519E-02  7.2694E-03  2.0278E-02  9.5435E-03
      23-
 mid.  surface     6.6078E-02  5.0584E-02 -1.1208E-01  9.7614E-03  3.4541E-02  1.2818E-02
      40-
 mid.  surface     5.7193E-02  4.9619E-02 -1.1235E-01  1.9786E-03  1.7987E-02 -5.7451E-03
      41-
 mid.  surface     3.7220E-02  5.6027E-02 -9.3795E-02  3.2577E-03  1.4160E-02  5.2798E-03
      85-
 mid.  surface     3.5588E-02  5.6440E-02 -1.3943E-01  1.8322E-03  2.4779E-02 -2.9469E-02
      86-
 mid.  surface     3.5309E-02  5.3589E-02 -9.8614E-02  7.2203E-03  3.8769E-02 -4.3015E-02
     100-
 mid.  surface     3.3133E-02  5.0586E-02 -9.3552E-02 -4.8041E-03 -9.5229E-03  8.1104E-03
     110-
 mid.  surface     5.5286E-02  4.3680E-02 -1.1938E-01 -3.3046E-03 -1.2865E-02 -8.9506E-03



 n o d a l  s t r e s s  c a l c u l a t i o n s   f o r   t i m e  s t e p      221   ( at time 2.96842E+01 )

 node (global)
          stress       sig-xx      sig-yy      sig-zz      sig-xy      sig-yz      sig-zx       plastic
                                                                                                 strain 
       1-
 mid.  surface    -2.8791E+09 -2.9748E+09 -2.2471E+09  2.2936E+07  4.8551E+07  5.0075E+07 -1.0394E-01
       2-
 mid.  surface    -4.8865E+09 -4.9037E+09 -4.4342E+09  9.8606E+07  3.8716E+07  1.5739E+07 -3.4673E-02
       8-
 mid.  surface     1.1655E+08  6.5019E+07 -1.6347E+08 -2.0223E+07 -1.1330E+08  7.0442E+06  1.2669E-01
       9-
 mid.  surface    -9.6950E+08 -1.0378E+09 -1.2734E+09 -2.1936E+07 -4.5571E+07  1.5022E+07  1.5311E-01
      10-
 mid.  surface     3.3594E+08  3.0045E+08  2.2413E+06 -2.1963E+07 -8.3124E+07 -4.3578E+06  1.3048E-01
      11-
 mid.  surface    -9.3865E+08 -9.8069E+08 -5.4228E+08 -3.9970E+06  2.0184E+07  2.5158E+07  7.9387E-02
      12-
 mid.  surface    -3.4093E+09 -3.3461E+09 -2.0606E+09 -2.2966E+07  6.0660E+07  1.2042E+08 -1.1131E-01
      17-
 mid.  surface    -1.9314E+09 -2.0257E+09 -1.5644E+09 -5.8811E+06  4.5661E+07  3.4320E+07  1.0238E-01
      18-
 mid.  surface     5.1382E+08  4.7642E+08  1.9453E+08 -1.7545E+07 -1.3332E+08 -3.6013E+07  1.1959E-01
      19-
 mid.  surface    -4.7471E+09 -4.6868E+09 -3.8491E+09  1.4948E+07  1.0323E+08  1.2310E+08 -9.7210E-03
      20-
 mid.  surface     1.3890E+09  1.4021E+09  3.3572E+08  2.6297E+07 -7.2825E+07 -4.3451E+07  1.9243E-01
      21-
 mid.  surface     2.3201E+09  2.3819E+09  7.4034E+08 -3.0356E+07 -1.1217E+08 -8.7208E+07  3.1998E-01
      22-
 mid.  surface     3.5064E+09  3.5834E+09  2.3253E+09 -5.4010E+07 -1.3306E+08 -1.1938E+08  2.2843E-01
      23-
 mid.  surface     2.2340E+09  2.2558E+09  1.1809E+09  2.8394E+07 -6.8893E+07 -8.8130E+07  1.8380E-01
      40-
 mid.  surface     1.1868E+08  1.4747E+08 -2.1804E+08  1.7896E+07  1.0297E+08  2.4634E+07  1.4095E-01
      41-
 mid.  surface     3.1115E+08  3.7392E+08  1.6804E+06  1.3680E+07  3.7502E+07  2.7154E+07  1.1852E-01
      85-
 mid.  surface     3.3966E+09  3.3516E+09  1.1160E+09  8.5878E+06  1.6263E+07 -2.1873E+08  5.2683E-01
      86-
 mid.  surface     4.2187E+09  4.1461E+09  2.7914E+09 -4.7583E+07  4.0547E+07 -1.0227E+08  3.6554E-01
     100-
 mid.  surface    -2.8419E+08 -2.1796E+08 -5.2526E+08  5.4940E+06  1.6407E+06  3.5224E+07  1.3009E-01
     110-
 mid.  surface    -1.1522E+09 -1.1173E+09 -1.4150E+09  1.1495E+07  7.2015E+07  1.7581E+07  1.6322E-01



 n o d a l  s t r a i n  c a l c u l a t i o n s   f o r   t i m e  s t e p      221   ( at time 2.96842E+01 )

 node (global)
          strain       eps-xx      eps-yy      eps-zz      eps-xy      eps-yz      eps-zx       
       1-
 mid.  surface     6.7547E-02  6.9331E-02 -1.2229E-01  1.3132E-02 -7.8641E-03 -4.2876E-03
       2-
 mid.  surface     6.8335E-02  7.9129E-02 -1.6905E-01  1.9775E-02 -3.9859E-03  1.0170E-02
       8-
 mid.  surface     5.0089E-02  6.7319E-02 -1.1847E-01 -1.2116E-02 -1.3134E-02  3.5569E-03
       9-
 mid.  surface     6.9781E-02  5.6271E-02 -1.4365E-01 -1.1491E-02 -1.4299E-02  2.6406E-03
      10-
 mid.  surface     6.9662E-02  5.3344E-02 -1.2178E-01  2.7856E-03 -3.6997E-02  2.3415E-05
      11-
 mid.  surface     6.9699E-02  5.5382E-02 -1.1755E-01  5.2163E-03 -4.8360E-02 -1.2847E-02
      12-
 mid.  surface     4.0206E-02  6.4976E-02 -8.5603E-02  3.0850E-04 -4.7021E-02 -3.3603E-02
      17-
 mid.  surface     6.9915E-02  6.0382E-02 -1.3743E-01  4.2491E-03 -3.9506E-02 -2.5874E-02
      18-
 mid.  surface     5.3584E-02  6.1822E-02 -1.1104E-01  4.4417E-03 -3.7632E-02 -1.0832E-02
      19-
 mid.  surface     4.4694E-02  7.1659E-02 -1.3237E-01  1.3174E-03 -2.9965E-02 -2.5905E-02
      20-
 mid.  surface     6.9810E-02  6.9868E-02 -1.5017E-01  1.1871E-02  2.6011E-02  2.0340E-02
      21-
 mid.  surface     5.6315E-02  6.4604E-02 -1.4951E-01  5.9382E-04  2.1042E-02  2.9208E-02
      22-
 mid.  surface     5.1467E-02  5.8600E-02 -1.0673E-01  1.7661E-03  1.8052E-02  5.0926E-03
      23-
 mid.  surface     7.5916E-02  6.1558E-02 -1.3603E-01  8.4712E-03  3.4760E-02  1.0918E-02
      40-
 mid.  surface     7.0395E-02  6.3595E-02 -1.3585E-01  3.7760E-03  1.9333E-02 -5.6814E-03
      41-
 mid.  surface     4.6640E-02  7.2522E-02 -1.1747E-01  5.0021E-03  1.6405E-02  7.3581E-03
      85-
 mid.  surface     5.5390E-02  6.9228E-02 -1.7654E-01  7.1824E-03  3.2769E-02 -3.1091E-02
      86-
 mid.  surface     5.6772E-02  6.2790E-02 -1.2737E-01  8.2460E-03  4.9906E-02 -4.2111E-02
     100-
 mid.  surface     4.2538E-02  7.0289E-02 -1.1887E-01 -3.7233E-03 -1.1816E-02  1.1835E-02
     110-
 mid.  surface     6.7969E-02  5.9565E-02 -1.4712E-01 -1.9873E-03 -1.5361E-02 -9.0747E-03



 n o d a l  s t r e s s  c a l c u l a t i o n s   f o r   t i m e  s t e p      236   ( at time 3.46842E+01 )

 node (global)
          stress       sig-xx      sig-yy      sig-zz      sig-xy      sig-yz      sig-zx       plastic
                                                                                                 strain 
       1-
 mid.  surface    -6.2513E+08 -1.0054E+09 -1.2771E+09  1.3409E+08  2.9192E+08  6.0680E+07 -5.6646E-02
       2-
 mid.  surface    -2.8105E+09 -2.7234E+09 -4.2388E+09  2.4331E+08  1.8541E+08 -7.1093E+07  1.1508E-01
       8-
 mid.  surface    -1.4613E+09 -1.2789E+09 -3.8410E+08 -2.1297E+07  3.7857E+08  3.8833E+07 -2.7594E-03
       9-
 mid.  surface    -3.0574E+09 -2.9237E+09 -2.1239E+09 -7.5533E+06  4.9783E+08  4.8259E+07  2.5147E-02
      10-
 mid.  surface    -3.7059E+08 -2.3793E+08 -6.2139E+07  4.1925E+07  1.7357E+08  2.7257E+07  8.4846E-02
      11-
 mid.  surface    -8.9047E+08 -9.5617E+08 -5.1297E+08 -5.9650E+07  1.3617E+07 -5.0283E+07  6.2244E-02
      12-
 mid.  surface    -1.3074E+09 -1.3073E+09 -9.9765E+08 -4.5640E+07  1.6304E+08  6.8408E+07 -1.4151E-01
      17-
 mid.  surface    -2.0377E+09 -2.2397E+09 -1.6494E+09 -2.8478E+07  2.8797E+07  3.7807E+07  9.6812E-02
      18-
 mid.  surface    -3.9471E+08 -3.4572E+08  6.0770E+07  4.9866E+07  3.2223E+07 -2.5931E+07  9.1834E-02
      19-
 mid.  surface    -3.0283E+09 -2.8197E+09 -3.1388E+09  5.7955E+07  2.4918E+08  1.1834E+08  1.7498E-02
      20-
 mid.  surface     7.4626E+08  6.9090E+08 -2.2748E+08 -3.2317E+07 -1.1125E+08  5.0561E+07  2.7132E-01
      21-
 mid.  surface     9.9176E+08  1.3282E+09  1.3410E+08 -8.8679E+07 -2.3001E+08 -1.2002E+07  3.8668E-01
      22-
 mid.  surface     2.6108E+09  2.7033E+09  2.4019E+09 -1.6319E+08 -2.1669E+08 -1.0715E+08  2.1639E-01
      23-
 mid.  surface     2.1618E+09  2.2373E+09  1.1112E+09 -7.3524E+07 -7.6342E+07 -9.9937E+07  2.4413E-01
      40-
 mid.  surface     1.3481E+09  1.3452E+09  3.2960E+08  4.9272E+07 -1.2901E+08  3.0021E+07  2.7316E-01
      41-
 mid.  surface     1.8542E+09  1.7635E+09  9.0036E+08  5.7796E+07 -3.3233E+08  3.1456E+06  2.4800E-01
      85-
 mid.  surface     1.9133E+08  2.7921E+08 -1.5498E+08  3.9632E+07 -1.3564E+08 -2.8750E+08  5.9184E-01
      86-
 mid.  surface     1.7181E+09  1.2764E+09  2.7413E+09 -5.4660E+07  2.6991E+07 -1.5893E+07  2.8992E-01
     100-
 mid.  surface     2.1139E+09  1.8967E+09  5.9891E+08 -6.2210E+07 -6.1324E+08 -1.9638E+07  3.4230E-01
     110-
 mid.  surface     5.8806E+08  3.2312E+08 -1.0745E+09 -4.4346E+07 -4.8231E+08 -5.2184E+07  3.8079E-01



 n o d a l  s t r a i n  c a l c u l a t i o n s   f o r   t i m e  s t e p      236   ( at time 3.46842E+01 )

 node (global)
          strain       eps-xx      eps-yy      eps-zz      eps-xy      eps-yz      eps-zx       
       1-
 mid.  surface     9.1430E-02  7.8537E-02 -1.4915E-01  1.2233E-02 -1.7622E-02 -1.2783E-02
       2-
 mid.  surface     9.0638E-02  1.0565E-01 -2.2492E-01  3.3138E-02 -1.3474E-02 -4.5958E-04
       8-
 mid.  surface     6.2719E-02  8.3660E-02 -1.4128E-01 -2.0106E-02 -2.3747E-02  8.4521E-03
       9-
 mid.  surface     8.9361E-02  6.7428E-02 -1.7585E-01 -1.5592E-02 -3.2162E-02  6.5341E-03
      10-
 mid.  surface     8.6611E-02  7.4802E-02 -1.5639E-01  7.4444E-03 -4.3753E-02  8.6548E-04
      11-
 mid.  surface     7.3184E-02  5.6417E-02 -1.2619E-01 -5.2897E-03 -5.3894E-02 -1.7322E-02
      12-
 mid.  surface     3.5989E-02  7.3470E-02 -8.2397E-02 -9.6886E-03 -6.1124E-02 -3.8395E-02
      17-
 mid.  surface     8.7036E-02  6.4471E-02 -1.6436E-01  6.3403E-04 -4.2757E-02 -3.0363E-02
      18-
 mid.  surface     7.6079E-02  8.1670E-02 -1.5243E-01  9.8245E-03 -4.9822E-02 -1.5289E-02
      19-
 mid.  surface     4.3929E-02  9.5608E-02 -1.5332E-01  3.3529E-03 -3.8456E-02 -2.3834E-02
      20-
 mid.  surface     8.6637E-02  7.7905E-02 -1.8340E-01  9.7688E-03  3.5835E-02  3.2707E-02
      21-
 mid.  surface     5.7972E-02  8.7551E-02 -1.7989E-01  2.0547E-03  3.0543E-02  4.1351E-02
      22-
 mid.  surface     4.9926E-02  6.9342E-02 -1.1153E-01 -8.0622E-03  1.8384E-02 -7.0300E-03
      23-
 mid.  surface     8.2088E-02  6.9463E-02 -1.5029E-01 -2.5068E-04  3.1786E-02  5.3129E-03
      40-
 mid.  surface     8.6907E-02  8.7080E-02 -1.7469E-01  9.8939E-03  2.8403E-02  1.9083E-03
      41-
 mid.  surface     6.6393E-02  9.5952E-02 -1.5497E-01  1.3265E-02  1.4263E-02  7.6715E-03
      85-
 mid.  surface     8.5544E-02  9.0979E-02 -2.4197E-01  1.9023E-02  4.9218E-02 -3.5473E-02
      86-
 mid.  surface     9.0959E-02  7.0302E-02 -1.6444E-01  5.8037E-03  7.8336E-02 -3.1706E-02
     100-
 mid.  surface     5.3314E-02  8.1362E-02 -1.3799E-01 -9.6271E-03 -1.4209E-02  1.0395E-02
     110-
 mid.  surface     8.6907E-02  6.6670E-02 -1.8021E-01 -3.8323E-03 -2.4741E-02 -1.9813E-02



 n o d a l  s t r e s s  c a l c u l a t i o n s   f o r   t i m e  s t e p      246   ( at time 3.96842E+01 )

 node (global)
          stress       sig-xx      sig-yy      sig-zz      sig-xy      sig-yz      sig-zx       plastic
                                                                                                 strain 
       1-
 mid.  surface    -4.7292E+09 -4.8449E+09 -3.7022E+09  1.2921E+08  2.2667E+08  1.7349E+08 -1.1335E-01
       2-
 mid.  surface     1.4920E+09  1.3583E+09 -1.6739E+09  9.9038E+07  1.1675E+08  1.8732E+07  3.8830E-01
       8-
 mid.  surface    -2.4214E+09 -2.3231E+09 -1.4086E+09 -1.4792E+07  3.6818E+08  8.8618E+07 -1.1131E-01
       9-
 mid.  surface    -3.7548E+09 -3.6540E+09 -2.7994E+09  1.7041E+07  4.6149E+08  1.0113E+08 -9.5669E-02
      10-
 mid.  surface    -1.4619E+09 -1.3027E+09 -5.0786E+08  6.7039E+07  3.9681E+08  4.1170E+07 -2.2563E-02
      11-
 mid.  surface    -4.7201E+08 -4.4933E+08 -1.8857E+08  9.4441E+07  4.1677E+08  1.6891E+08  4.9756E-02
      12-
 mid.  surface    -1.6413E+09 -1.5736E+09 -1.3168E+09  5.4219E+07  2.9824E+08  2.0090E+08 -1.6313E-01
      17-
 mid.  surface    -2.0507E+09 -2.0971E+09 -1.7620E+09  9.4767E+07  3.3495E+08  1.4391E+08  8.6229E-02
      18-
 mid.  surface    -2.3993E+09 -2.2579E+09 -1.3777E+09  5.8440E+07  3.0344E+08  4.3326E+07 -3.1593E-03
      19-
 mid.  surface     1.0005E+09  9.9200E+08 -8.3389E+08  3.6186E+07  2.6781E+08  1.1526E+08  1.5935E-01
      20-
 mid.  surface     4.2558E+08  3.3145E+08 -5.7501E+08 -1.2940E+08 -5.1526E+08 -1.5416E+08  3.7713E-01
      21-
 mid.  surface     1.9831E+09  2.0923E+09  8.2424E+08 -1.0596E+08 -3.3072E+08 -1.8738E+08  4.6707E-01
      22-
 mid.  surface    -5.5173E+08 -3.8165E+08  6.9564E+08 -9.4202E+07 -2.3512E+08 -1.1247E+08  1.0877E-01
      23-
 mid.  surface     2.1412E+09  2.1691E+09  1.1706E+09 -1.3586E+08 -4.0801E+08 -1.3767E+08  3.5339E-01
      40-
 mid.  surface     3.2261E+09  3.1194E+09  1.5139E+09 -6.1724E+07 -4.0681E+08 -6.5453E+07  4.6036E-01
      41-
 mid.  surface     3.4143E+09  3.2490E+09  1.7071E+09 -5.6007E+07 -5.3124E+08 -8.5572E+07  4.3453E-01
      85-
 mid.  surface     4.6921E+09  4.6360E+09  2.6390E+09 -2.8218E+07 -1.2025E+08 -2.9271E+08  7.6587E-01
      86-
 mid.  surface    -2.5170E+09 -2.5449E+09  2.4587E+08 -1.0506E+07  4.2962E+07 -3.1669E+07  9.0010E-02
     100-
 mid.  surface     2.5238E+09  2.3142E+09  9.6207E+08 -2.0779E+07 -5.5276E+08 -3.5070E+07  5.4615E-01
     110-
 mid.  surface     1.3024E+09  1.0956E+09 -3.2558E+08  4.2988E+06 -4.6258E+08 -1.4130E+07  5.7609E-01



 n o d a l  s t r a i n  c a l c u l a t i o n s   f o r   t i m e  s t e p      246   ( at time 3.96842E+01 )

 node (global)
          strain       eps-xx      eps-yy      eps-zz      eps-xy      eps-yz      eps-zx       
       1-
 mid.  surface     1.2011E-01  9.1357E-02 -1.8130E-01  1.8266E-02 -2.8686E-02 -2.1290E-02
       2-
 mid.  surface     1.2368E-01  1.1953E-01 -2.7136E-01  4.2348E-02 -2.2254E-02 -1.6448E-03
       8-
 mid.  surface     8.1460E-02  9.6537E-02 -1.7950E-01 -2.0250E-02 -3.4943E-02  1.5151E-02
       9-
 mid.  surface     1.0386E-01  6.8856E-02 -1.9445E-01 -1.0178E-02 -5.5211E-02  9.4916E-03
      10-
 mid.  surface     1.0144E-01  9.3639E-02 -1.8144E-01  1.0255E-02 -5.2504E-02 -5.3248E-04
      11-
 mid.  surface     8.2527E-02  7.4945E-02 -1.5573E-01 -8.3359E-03 -5.2526E-02 -1.3138E-02
      12-
 mid.  surface     3.5022E-02  8.5360E-02 -9.0248E-02 -1.8784E-02 -6.6916E-02 -4.0827E-02
      17-
 mid.  surface     9.6687E-02  8.2066E-02 -1.9905E-01 -2.0696E-03 -4.4979E-02 -3.0348E-02
      18-
 mid.  surface     9.0334E-02  1.0435E-01 -1.9400E-01  1.0547E-02 -5.6826E-02 -1.4270E-02
      19-
 mid.  surface     4.7741E-02  1.0822E-01 -1.7120E-01 -3.7701E-03 -4.2195E-02 -2.5867E-02
      20-
 mid.  surface     1.1036E-01  9.0361E-02 -2.2185E-01  1.3310E-02  3.5354E-02  3.3213E-02
      21-
 mid.  surface     6.9203E-02  1.0401E-01 -2.0774E-01  6.2844E-03  3.5829E-02  4.8734E-02
      22-
 mid.  surface     5.8015E-02  8.7289E-02 -1.2904E-01 -7.4255E-03  1.7015E-02 -1.3638E-02
      23-
 mid.  surface     1.0283E-01  8.6817E-02 -1.8603E-01  1.1229E-03  3.0932E-02  7.9348E-03
      40-
 mid.  surface     1.0245E-01  1.0135E-01 -2.0599E-01  6.5435E-03  3.5368E-02  8.2971E-04
      41-
 mid.  surface     8.3421E-02  1.1162E-01 -1.9347E-01  1.0199E-02  2.3005E-02  7.5653E-03
      85-
 mid.  surface     1.0400E-01  1.1181E-01 -2.9806E-01  2.4481E-02  5.9245E-02 -4.2470E-02
      86-
 mid.  surface     1.0856E-01  8.9568E-02 -2.0680E-01  3.2997E-03  9.8068E-02 -3.1248E-02
     100-
 mid.  surface     6.8958E-02  9.8235E-02 -1.7476E-01 -1.1242E-02 -5.8725E-03  1.2501E-02
     110-
 mid.  surface     1.0102E-01  7.5841E-02 -2.0261E-01 -1.9619E-03 -3.7302E-02 -1.7647E-02



 n o d a l  s t r e s s  c a l c u l a t i o n s   f o r   t i m e  s t e p      261   ( at time 4.46842E+01 )

 node (global)
          stress       sig-xx      sig-yy      sig-zz      sig-xy      sig-yz      sig-zx       plastic
                                                                                                 strain 
       1-
 mid.  surface    -3.8973E+08 -5.6102E+08 -2.1798E+09  1.5363E+07  2.0502E+08  3.2766E+06  6.9609E-02
       2-
 mid.  surface     2.8184E+08  2.3291E+08 -1.4016E+09  5.7450E+07  1.7265E+08 -1.6635E+08  5.8175E-01
       8-
 mid.  surface    -5.1892E+09 -5.0491E+09 -3.9932E+09 -7.4029E+07  7.8637E+08  7.5579E+07 -2.8367E-01
       9-
 mid.  surface    -4.6707E+09 -4.6067E+09 -4.1294E+09  8.8776E+06  2.0867E+08 -5.3979E+06 -1.6989E-01
      10-
 mid.  surface    -1.1729E+09 -1.1010E+09 -4.6888E+08  9.2304E+07  4.9060E+07 -7.8655E+07 -8.3893E-02
      11-
 mid.  surface    -6.2952E+08 -5.5939E+08 -1.5503E+08  1.0740E+08  3.1945E+08  2.6017E+07  2.8203E-02
      12-
 mid.  surface    -8.3586E+08 -1.1016E+09 -1.0631E+09  3.5042E+07  1.7675E+08  2.5236E+07 -1.3628E-01
      17-
 mid.  surface    -1.9187E+09 -1.8326E+09 -2.2538E+09  3.4750E+07  3.7216E+08  1.6094E+07  1.4685E-01
      18-
 mid.  surface    -2.4996E+09 -2.4278E+09 -2.0505E+09  2.2093E+07  1.7984E+08  2.2578E+07 -4.4066E-02
      19-
 mid.  surface     7.6671E+08  6.5430E+08 -5.2490E+08  1.0218E+07  5.2710E+07 -1.1309E+08  3.0121E-01
      20-
 mid.  surface     1.8812E+09  1.9942E+09  1.9715E+08 -1.1021E+08 -2.0902E+08  4.6343E+07  5.5492E-01
      21-
 mid.  surface    -1.9917E+08 -1.2736E+08 -3.1714E+08 -1.1159E+08 -3.4697E+08 -3.8218E+07  4.7596E-01
      22-
 mid.  surface    -6.8312E+08 -6.6668E+08  2.5052E+08 -8.1643E+07 -2.5318E+08  7.3440E+07  5.2368E-03
      23-
 mid.  surface     1.7201E+09  1.8461E+09  1.5934E+09 -5.4433E+07 -1.7785E+08  2.7779E+07  3.9082E-01
      40-
 mid.  surface     5.0722E+09  5.0563E+09  3.7292E+09  5.2661E+06 -6.3674E+08 -5.3297E+07  6.2889E-01
      41-
 mid.  surface     3.4796E+09  3.3644E+09  2.4297E+09 -4.2289E+07 -2.2173E+08  8.0359E+07  5.5733E-01
      85-
 mid.  surface    -2.0597E+08 -7.3664E+07  1.0275E+09  4.6002E+07  1.2705E+08 -9.4156E+07  6.3135E-01
      86-
 mid.  surface    -1.5892E+09 -1.5401E+09 -4.2164E+08  2.1023E+07  2.0723E+08  3.1827E+06 -4.5241E-02
     100-
 mid.  surface     1.4815E+09  1.4096E+09  9.2120E+08 -3.5323E+07  1.4253E+08  9.5503E+07  6.2275E-01
     110-
 mid.  surface     1.5894E+09  1.4884E+09  3.9570E+08  1.2773E+07 -4.0030E+08  2.0315E+07  7.3462E-01



 n o d a l  s t r a i n  c a l c u l a t i o n s   f o r   t i m e  s t e p      261   ( at time 4.46842E+01 )

 node (global)
          strain       eps-xx      eps-yy      eps-zz      eps-xy      eps-yz      eps-zx       
       1-
 mid.  surface     1.4174E-01  1.1736E-01 -1.9384E-01  3.4026E-02 -3.1104E-02 -4.3656E-02
       2-
 mid.  surface     1.5834E-01  1.3659E-01 -3.1392E-01  4.5127E-02 -1.4193E-02 -2.2073E-03
       8-
 mid.  surface     9.4841E-02  1.3165E-01 -2.2023E-01 -1.6511E-02 -4.0244E-02  1.7499E-02
       9-
 mid.  surface     1.1606E-01  8.4735E-02 -2.2297E-01 -3.7452E-03 -7.6898E-02  8.7843E-03
      10-
 mid.  surface     1.1329E-01  1.1462E-01 -1.9857E-01  1.8472E-02 -6.6735E-02 -1.0954E-03
      11-
 mid.  surface     8.6038E-02  1.0482E-01 -1.9298E-01 -1.0092E-02 -5.2059E-02 -3.0877E-04
      12-
 mid.  surface     5.0776E-02  1.0466E-01 -1.1779E-01 -2.0535E-02 -7.1621E-02 -4.6586E-02
      17-
 mid.  surface     9.9974E-02  1.1170E-01 -2.4415E-01 -1.1808E-02 -4.9754E-02 -2.7014E-02
      18-
 mid.  surface     9.9911E-02  1.3628E-01 -2.2757E-01  1.4667E-02 -6.2100E-02 -1.0977E-02
      19-
 mid.  surface     7.2864E-02  1.1802E-01 -2.1491E-01 -1.7042E-02 -3.8120E-02 -3.2890E-02
      20-
 mid.  surface     1.4353E-01  1.0580E-01 -2.6604E-01  2.3153E-02  3.7372E-02  2.5857E-02
      21-
 mid.  surface     9.9622E-02  1.1550E-01 -2.6060E-01  4.3440E-03  3.6079E-02  4.9616E-02
      22-
 mid.  surface     7.8206E-02  1.1077E-01 -1.6257E-01 -1.6818E-04  4.0618E-03 -1.8835E-02
      23-
 mid.  surface     1.2555E-01  1.1836E-01 -2.2677E-01  1.4872E-02  3.8163E-02  7.6793E-03
      40-
 mid.  surface     1.1268E-01  1.0613E-01 -2.2562E-01 -3.8105E-03  3.0696E-02 -2.5907E-03
      41-
 mid.  surface     9.9582E-02  1.1799E-01 -2.2468E-01  1.8416E-03  4.1763E-02  1.2283E-02
      85-
 mid.  surface     1.1610E-01  1.4407E-01 -3.6002E-01  1.7439E-02  7.1603E-02 -2.0240E-02
      86-
 mid.  surface     1.0583E-01  1.1875E-01 -2.3588E-01  4.0770E-03  1.1298E-01 -4.9461E-02
     100-
 mid.  surface     8.9424E-02  1.1552E-01 -2.1513E-01 -1.1377E-02  3.5456E-03  1.7947E-02
     110-
 mid.  surface     1.1717E-01  7.8958E-02 -2.3559E-01 -5.0130E-03 -5.7600E-02 -1.5705E-02



 n o d a l  s t r e s s  c a l c u l a t i o n s   f o r   t i m e  s t e p      276   ( at time 4.96842E+01 )

 node (global)
          stress       sig-xx      sig-yy      sig-zz      sig-xy      sig-yz      sig-zx       plastic
                                                                                                 strain 
       1-
 mid.  surface    -1.1936E+09 -1.4679E+09 -2.5871E+09 -6.5824E+07  2.0502E+08 -5.6771E+07  2.0996E-01
       2-
 mid.  surface    -1.3765E+09 -1.4287E+09 -1.8247E+09  3.4238E+07  2.7809E+08 -5.1778E+07  6.4531E-01
       8-
 mid.  surface    -4.5678E+09 -4.1500E+09 -3.9479E+09 -5.1868E+07  4.9994E+08 -1.2009E+07 -3.7189E-01
       9-
 mid.  surface    -4.3549E+09 -4.1057E+09 -3.7865E+09 -2.3510E+07  8.2017E+07 -1.9168E+08 -2.0917E-01
      10-
 mid.  surface    -1.2770E+08 -3.2810E+08 -5.9216E+08  1.9432E+08  8.2411E+07 -7.5991E+07 -3.0026E-02
      11-
 mid.  surface     7.0898E+08  8.3016E+08  6.3717E+08  6.3121E+07  5.6010E+08 -6.7963E+07  4.7984E-02
      12-
 mid.  surface    -1.1732E+09 -1.4181E+09 -9.3968E+08  6.4037E+07  1.4829E+08 -6.3012E+07 -1.3857E-01
      17-
 mid.  surface    -1.2398E+07  3.6091E+08 -1.2913E+09 -8.7096E+07  6.0356E+08 -4.3609E+07  2.9475E-01
      18-
 mid.  surface    -2.1365E+09 -2.2214E+09 -2.5973E+09  2.9669E+07  3.2638E+08  7.3293E+07 -5.4619E-03
      19-
 mid.  surface     2.5416E+08  3.4359E+08 -5.0187E+08  6.7911E+07  1.1178E+08 -1.0531E+08  3.8890E-01
      20-
 mid.  surface     1.2554E+09  1.6277E+09  3.5148E+07 -2.1224E+08 -3.8945E+08  4.7913E+07  6.9239E-01
      21-
 mid.  surface     2.1283E+08  4.3032E+08 -2.8656E+08 -2.6916E+07 -3.5247E+08  1.5169E+07  5.2205E-01
      22-
 mid.  surface    -1.0369E+09 -1.0980E+09 -1.7089E+08 -2.6933E+07 -3.2827E+08  7.0423E+07 -7.5995E-02
      23-
 mid.  surface     1.3309E+09  1.4373E+09  1.6796E+09 -6.5661E+07 -3.2928E+08  1.9320E+07  3.7092E-01
      40-
 mid.  surface     3.9214E+09  3.5998E+09  3.5368E+09  8.0572E+07 -6.6168E+08 -9.4272E+06  6.7834E-01
      41-
 mid.  surface     1.4995E+09  1.1909E+09  1.3644E+09 -4.2085E+06 -2.6734E+08  1.6320E+08  5.6778E-01
      85-
 mid.  surface    -1.6351E+09 -1.6377E+09  3.0865E+07  1.1050E+07  1.7451E+08  1.4502E+07  4.5859E-01
      86-
 mid.  surface    -1.2795E+09 -1.4117E+09 -6.1381E+08 -2.5432E+07  1.0253E+08  1.2555E+07 -1.2284E-01
     100-
 mid.  surface     1.1033E+09  1.3341E+09  1.2277E+09 -8.6122E+07  5.6016E+08  1.3191E+08  5.8419E-01
     110-
 mid.  surface     1.5980E+09  1.7292E+09  1.1589E+09 -1.1632E+08 -1.6495E+08 -6.9549E+07  8.2621E-01



 n o d a l  s t r a i n  c a l c u l a t i o n s   f o r   t i m e  s t e p      276   ( at time 4.96842E+01 )

 node (global)
          strain       eps-xx      eps-yy      eps-zz      eps-xy      eps-yz      eps-zx       
       1-
 mid.  surface     1.6455E-01  1.4727E-01 -2.3394E-01  4.0849E-02 -3.6117E-02 -4.0201E-02
       2-
 mid.  surface     1.9446E-01  1.4959E-01 -3.5467E-01  4.3333E-02 -1.0926E-02  1.2211E-02
       8-
 mid.  surface     1.0212E-01  1.9963E-01 -2.6915E-01 -1.0565E-02 -3.7564E-02  1.1469E-02
       9-
 mid.  surface     1.2740E-01  1.3324E-01 -2.6726E-01  1.3462E-03 -9.8288E-02  2.1496E-03
      10-
 mid.  surface     1.2499E-01  1.1346E-01 -2.1114E-01  2.2686E-02 -8.5381E-02 -2.9750E-03
      11-
 mid.  surface     8.3955E-02  1.2107E-01 -2.1190E-01 -2.0608E-02 -5.3842E-02  2.2407E-03
      12-
 mid.  surface     6.7035E-02  1.3012E-01 -1.5097E-01 -1.9088E-02 -7.7772E-02 -3.6835E-02
      17-
 mid.  surface     1.0409E-01  1.4059E-01 -2.8840E-01 -3.1089E-02 -5.8661E-02 -3.1094E-02
      18-
 mid.  surface     1.1755E-01  1.6036E-01 -2.6600E-01  1.2234E-02 -7.2872E-02 -1.0298E-02
      19-
 mid.  surface     9.3336E-02  1.2957E-01 -2.4921E-01 -2.0240E-02 -4.2380E-02 -2.6385E-02
      20-
 mid.  surface     1.6201E-01  1.3919E-01 -3.1789E-01  2.8765E-02  5.6304E-02  2.4443E-02
      21-
 mid.  surface     1.2608E-01  1.3141E-01 -3.0363E-01  5.8546E-03  3.5470E-02  3.8094E-02
      22-
 mid.  surface     9.7123E-02  1.4224E-01 -2.0529E-01  9.1489E-03 -3.2062E-03 -2.5561E-02
      23-
 mid.  surface     1.3320E-01  1.5363E-01 -2.5609E-01  2.4643E-02  5.1091E-02 -2.3910E-03
      40-
 mid.  surface     1.2554E-01  1.0290E-01 -2.4071E-01 -5.3731E-03  1.4344E-02  8.1629E-03
      41-
 mid.  surface     1.2907E-01  1.1923E-01 -2.6256E-01  7.7438E-03  6.4957E-02  2.3860E-02
      85-
 mid.  surface     1.3402E-01  1.6320E-01 -4.1398E-01  9.2396E-03  8.9049E-02 -3.2941E-02
      86-
 mid.  surface     1.1494E-01  1.5473E-01 -2.8919E-01  4.2491E-03  1.2652E-01 -5.5192E-02
     100-
 mid.  surface     1.1897E-01  1.2496E-01 -2.5631E-01 -1.2239E-02  8.4354E-03  2.3723E-02
     110-
 mid.  surface     1.3777E-01  7.2638E-02 -2.7868E-01 -1.9233E-02 -8.1632E-02 -1.7426E-02



 n o d a l  s t r e s s  c a l c u l a t i o n s   f o r   t i m e  s t e p      285   ( at time 5.46842E+01 )

 node (global)
          stress       sig-xx      sig-yy      sig-zz      sig-xy      sig-yz      sig-zx       plastic
                                                                                                 strain 
       1-
 mid.  surface    -7.1094E+08 -8.7189E+08 -2.0696E+09 -2.9777E+07  1.2258E+08 -2.6096E+07  2.9472E-01
       2-
 mid.  surface    -1.0139E+09 -1.0816E+09 -1.4737E+09 -1.6022E+07  2.2037E+08 -4.5250E+06  6.7676E-01
       8-
 mid.  surface    -3.5568E+09 -3.3624E+09 -3.4115E+09  1.2757E+07  1.0857E+08  2.9900E+07 -3.7414E-01
       9-
 mid.  surface    -4.2725E+09 -4.1494E+09 -4.0530E+09  2.7436E+07 -8.4242E+07 -4.6672E+07 -2.0162E-01
      10-
 mid.  surface    -9.3801E+08 -1.0119E+09 -1.2358E+09  6.2120E+07  2.0715E+08  3.4206E+07 -4.0107E-03
      11-
 mid.  surface     2.8928E+08  3.2343E+08  1.6480E+08  1.5876E+07  3.8630E+08  6.1833E+07  6.5443E-02
      12-
 mid.  surface    -1.3660E+09 -1.5599E+09 -1.1056E+09  4.4911E+07  1.1434E+08 -5.4205E+07 -1.6340E-01
      17-
 mid.  surface    -2.7443E+08 -3.4926E+07 -1.6078E+09 -4.0151E+07  3.0020E+08  9.0862E+06  4.1436E-01
      18-
 mid.  surface    -2.3083E+09 -2.2998E+09 -2.9683E+09 -1.5036E+07  1.7684E+08  5.0944E+07  5.1042E-02
      19-
 mid.  surface     3.9868E+08  3.9047E+08 -4.1473E+08  3.4018E+07  7.7815E+07 -9.2599E+07  4.4768E-01
      20-
 mid.  surface     1.5794E+09  1.8351E+09  2.5335E+08 -8.4807E+07 -3.6658E+08 -6.5075E+07  8.0467E-01
      21-
 mid.  surface     8.3078E+08  9.9347E+08  2.6565E+08 -8.5658E+06 -2.5033E+08 -5.4842E+07  5.7241E-01
      22-
 mid.  surface    -7.4138E+08 -7.4248E+08  1.3316E+08 -2.6006E+05 -2.0320E+08 -2.5332E+07 -1.3471E-01
      23-
 mid.  surface     1.3926E+09  1.4695E+09  1.6911E+09 -2.3677E+07 -2.1004E+08 -9.4251E+06  3.5540E-01
      40-
 mid.  surface     2.7340E+09  2.5347E+09  2.7944E+09  1.4344E+07 -1.6354E+08 -7.2723E+06  6.5558E-01
      41-
 mid.  surface     1.0378E+09  8.6421E+08  1.0831E+09 -7.5259E+06 -1.0386E+08  1.6295E+07  5.4612E-01
      85-
 mid.  surface    -1.6094E+09 -1.6028E+09  1.1699E+08 -4.0518E+07  1.4189E+08  3.5395E+07  3.3176E-01
      86-
 mid.  surface    -1.2662E+09 -1.3092E+09 -5.2014E+08 -3.4530E+07  7.7696E+07  4.2445E+07 -1.8376E-01
     100-
 mid.  surface     2.8804E+09  2.9490E+09  2.6758E+09 -1.0957E+07  2.0128E+08  9.1612E+07  5.9350E-01
     110-
 mid.  surface     1.7348E+09  1.7828E+09  1.6005E+09 -3.1494E+07 -4.9837E+07 -1.7349E+07  8.4099E-01



 n o d a l  s t r a i n  c a l c u l a t i o n s   f o r   t i m e  s t e p      285   ( at time 5.46842E+01 )

 node (global)
          strain       eps-xx      eps-yy      eps-zz      eps-xy      eps-yz      eps-zx       
       1-
 mid.  surface     1.7752E-01  1.6175E-01 -2.5271E-01  4.5055E-02 -3.8471E-02 -4.4571E-02
       2-
 mid.  surface     2.1005E-01  1.5823E-01 -3.8119E-01  4.4274E-02 -9.9679E-03  1.3610E-02
       8-
 mid.  surface     1.1172E-01  2.2943E-01 -2.9413E-01 -9.6307E-03 -3.5343E-02  1.4166E-02
       9-
 mid.  surface     1.3843E-01  1.5470E-01 -2.9712E-01  4.4367E-03 -1.0512E-01  2.9850E-03
      10-
 mid.  surface     1.3552E-01  1.2165E-01 -2.3519E-01  2.1697E-02 -8.8145E-02  4.1561E-04
      11-
 mid.  surface     9.4511E-02  1.3576E-01 -2.3842E-01 -2.2448E-02 -5.1006E-02  5.5835E-03
      12-
 mid.  surface     8.1309E-02  1.4563E-01 -1.7441E-01 -1.6488E-02 -8.1191E-02 -3.5136E-02
      17-
 mid.  surface     1.1342E-01  1.5722E-01 -3.2086E-01 -3.6187E-02 -5.7710E-02 -2.9864E-02
      18-
 mid.  surface     1.2841E-01  1.7710E-01 -2.9622E-01  7.6259E-03 -7.4200E-02 -5.7880E-03
      19-
 mid.  surface     1.0704E-01  1.3932E-01 -2.7363E-01 -1.9441E-02 -4.1979E-02 -2.3737E-02
      20-
 mid.  surface     1.7286E-01  1.6219E-01 -3.5255E-01  3.1092E-02  5.7633E-02  2.2169E-02
      21-
 mid.  surface     1.3904E-01  1.4315E-01 -3.3407E-01  3.5733E-03  3.2654E-02  3.3335E-02
      22-
 mid.  surface     1.0977E-01  1.5908E-01 -2.3417E-01  8.6595E-03 -1.1759E-02 -2.8919E-02
      23-
 mid.  surface     1.4284E-01  1.7815E-01 -2.8837E-01  2.7971E-02  5.6351E-02 -4.9454E-03
      40-
 mid.  surface     1.3969E-01  1.1342E-01 -2.6939E-01 -4.0131E-03  9.1186E-03  8.6200E-03
      41-
 mid.  surface     1.4703E-01  1.3139E-01 -2.9246E-01  1.0794E-02  6.8892E-02  2.3706E-02
      85-
 mid.  surface     1.4751E-01  1.7875E-01 -4.5140E-01  7.8547E-03  9.6089E-02 -3.9231E-02
      86-
 mid.  surface     1.2762E-01  1.7264E-01 -3.1801E-01  5.1529E-03  1.3884E-01 -5.8923E-02
     100-
 mid.  surface     1.3679E-01  1.3161E-01 -2.7912E-01 -1.4801E-02  1.1084E-02  2.4791E-02
     110-
 mid.  surface     1.5446E-01  7.3020E-02 -3.0587E-01 -2.3358E-02 -1.0172E-01 -2.3291E-02



 n o d a l  s t r e s s  c a l c u l a t i o n s   f o r   t i m e  s t e p      300   ( at time 5.96842E+01 )

 node (global)
          stress       sig-xx      sig-yy      sig-zz      sig-xy      sig-yz      sig-zx       plastic
                                                                                                 strain 
       1-
 mid.  surface    -3.8597E+08 -5.2417E+08 -1.7659E+09 -2.4770E+07  1.3796E+08 -1.0487E+08  4.2912E-01
       2-
 mid.  surface    -2.8109E+08 -3.0122E+08 -7.0636E+08  8.3600E+07  2.7091E+08 -9.9354E+07  7.2726E-01
       8-
 mid.  surface    -3.4342E+09 -3.0660E+09 -3.2702E+09 -5.3341E+06  3.0363E+08  3.1534E+07 -3.7083E-01
       9-
 mid.  surface    -5.4607E+09 -5.2832E+09 -5.2001E+09  9.2795E+07 -5.4137E+07 -1.8683E+08 -1.7903E-01
      10-
 mid.  surface    -1.9539E+09 -2.1409E+09 -2.2643E+09  8.7871E+07  1.9118E+08 -8.1325E+07  1.5906E-02
      11-
 mid.  surface     1.8671E+09  2.0564E+09  1.5248E+09  6.4403E+07  4.3130E+08 -8.6206E+07  1.2597E-01
      12-
 mid.  surface    -1.1936E+09 -1.4289E+09 -1.1953E+09  6.1997E+07  1.0999E+08 -1.4860E+08 -1.6651E-01
      17-
 mid.  surface     1.7929E+09  2.3715E+09  4.2489E+08 -1.3716E+08  2.8345E+08 -1.1038E+08  6.1313E-01
      18-
 mid.  surface    -2.3271E+09 -2.3133E+09 -2.9833E+09 -1.0165E+08  1.9320E+08  4.8402E+07  1.1882E-01
      19-
 mid.  surface    -9.9552E+07 -1.3955E+08 -6.9433E+08  1.0292E+07  9.1367E+07 -2.1696E+08  4.9299E-01
      20-
 mid.  surface     1.1809E+09  1.6697E+09  2.4159E+08 -1.8913E+08 -4.1817E+08  1.0083E+08  9.4939E-01
      21-
 mid.  surface    -6.5564E+08 -6.4694E+08 -6.3925E+08 -5.6883E+07 -1.8490E+08  3.1383E+07  5.6420E-01
      22-
 mid.  surface    -1.9280E+09 -2.1424E+09 -9.3833E+08 -1.5189E+07 -1.5946E+08  1.2940E+08 -2.3800E-01
      23-
 mid.  surface     1.3024E+09  1.4942E+09  1.4840E+09 -9.3169E+06 -2.5356E+08  1.4568E+08  3.6220E-01
      40-
 mid.  surface     1.8867E+09  1.4708E+09  1.8746E+09  6.8635E+07 -3.1809E+08 -2.9676E+07  5.9734E-01
      41-
 mid.  surface     1.0427E+09  7.3241E+08  1.0162E+09 -1.8799E+07 -1.7895E+08  1.2099E+08  5.1126E-01
      85-
 mid.  surface    -1.3613E+09 -1.3967E+09  3.4308E+08  7.9167E+07  1.7727E+08  9.9056E+07  1.6274E-01
      86-
 mid.  surface    -7.5633E+08 -8.6997E+08 -6.2670E+07  2.3196E+07  8.8347E+07  5.4154E+07 -2.5647E-01
     100-
 mid.  surface     3.9945E+09  4.1739E+09  3.7381E+09 -3.8207E+07  3.5713E+08  1.5924E+08  6.1152E-01
     110-
 mid.  surface     1.4554E+09  1.5338E+09  1.3343E+09 -5.9122E+06 -3.7259E+07 -8.6684E+07  8.7008E-01



 n o d a l  s t r a i n  c a l c u l a t i o n s   f o r   t i m e  s t e p      300   ( at time 5.96842E+01 )

 node (global)
          strain       eps-xx      eps-yy      eps-zz      eps-xy      eps-yz      eps-zx       
       1-
 mid.  surface     1.9559E-01  1.7942E-01 -2.6596E-01  5.5632E-02 -4.2839E-02 -5.3558E-02
       2-
 mid.  surface     2.3864E-01  1.7394E-01 -4.2511E-01  4.4756E-02 -6.6269E-03  1.7307E-02
       8-
 mid.  surface     1.2450E-01  2.8906E-01 -3.3748E-01 -5.1776E-03 -3.2769E-02  1.2186E-02
       9-
 mid.  surface     1.5157E-01  1.8997E-01 -3.4070E-01  1.3303E-02 -1.1973E-01  1.4410E-04
      10-
 mid.  surface     1.4356E-01  1.1495E-01 -2.4896E-01  2.0515E-02 -1.0080E-01  2.9068E-03
      11-
 mid.  surface     9.6097E-02  1.6074E-01 -2.7102E-01 -2.9922E-02 -4.4632E-02  1.6187E-02
      12-
 mid.  surface     9.1904E-02  1.6479E-01 -2.0941E-01 -2.3328E-02 -8.2981E-02 -2.4553E-02
      17-
 mid.  surface     1.2451E-01  1.8515E-01 -3.6600E-01 -5.2284E-02 -5.6701E-02 -2.9979E-02
      18-
 mid.  surface     1.4307E-01  1.9845E-01 -3.2653E-01 -5.7703E-03 -8.1771E-02 -1.1378E-03
      19-
 mid.  surface     1.2491E-01  1.4241E-01 -3.0458E-01 -3.0233E-02 -3.9254E-02 -1.8892E-02
      20-
 mid.  surface     1.8950E-01  2.0491E-01 -4.0493E-01  4.0300E-02  6.7582E-02  1.6665E-02
      21-
 mid.  surface     1.6553E-01  1.5765E-01 -3.7380E-01  5.6096E-04  2.9450E-02  2.2760E-02
      22-
 mid.  surface     1.3077E-01  1.8735E-01 -2.7437E-01  9.6203E-03 -3.8519E-02 -3.8793E-02
      23-
 mid.  surface     1.5177E-01  2.2291E-01 -3.3256E-01  3.9068E-02  7.1878E-02 -1.6454E-02
      40-
 mid.  surface     1.5230E-01  1.1131E-01 -2.9136E-01 -2.8207E-03 -7.7491E-03  1.6753E-02
      41-
 mid.  surface     1.7713E-01  1.3430E-01 -3.2940E-01  1.5107E-02  9.4317E-02  3.1604E-02
      85-
 mid.  surface     1.5533E-01  2.0948E-01 -5.1746E-01  7.5812E-04  1.1124E-01 -2.5296E-02
      86-
 mid.  surface     1.2579E-01  2.0476E-01 -3.5025E-01  7.2999E-03  1.6015E-01 -5.4923E-02
     100-
 mid.  surface     1.7049E-01  1.3816E-01 -3.1881E-01 -1.8880E-02  2.0417E-02  2.8221E-02
     110-
 mid.  surface     1.7590E-01  6.2415E-02 -3.4731E-01 -3.7925E-02 -1.3330E-01 -2.6961E-02



 n o d a l  s t r e s s  c a l c u l a t i o n s   f o r   t i m e  s t e p      309   ( at time 6.46842E+01 )

 node (global)
          stress       sig-xx      sig-yy      sig-zz      sig-xy      sig-yz      sig-zx       plastic
                                                                                                 strain 
       1-
 mid.  surface    -3.1725E+07 -2.9555E+07 -1.3578E+09 -2.2632E+07  9.4026E+07  1.4618E+07  5.0071E-01
       2-
 mid.  surface    -1.5663E+08 -1.3648E+08 -5.7925E+08 -1.0296E+07  1.9761E+08 -1.0762E+07  7.4653E-01
       8-
 mid.  surface    -3.7386E+09 -3.6135E+09 -3.5971E+09 -2.0221E+07  1.5206E+08  4.4725E+07 -3.7251E-01
       9-
 mid.  surface    -6.4551E+09 -6.4556E+09 -6.3204E+09  5.7196E+07 -2.7728E+05 -4.8626E+07 -1.7796E-01
      10-
 mid.  surface    -2.5697E+09 -2.6921E+09 -2.8991E+09  3.4081E+07  1.2365E+08 -8.8771E+06  3.3580E-02
      11-
 mid.  surface     1.0385E+09  1.1113E+09  8.3865E+08 -3.2044E+06  2.6386E+08  3.6515E+07  1.4494E-01
      12-
 mid.  surface    -1.2991E+09 -1.4858E+09 -1.4951E+09  6.3267E+06  9.4886E+07 -1.1140E+08 -1.5928E-01
      17-
 mid.  surface     7.8397E+08  1.0990E+09 -7.1336E+07 -6.8337E+07  1.0570E+08  1.6667E+07  6.9335E-01
      18-
 mid.  surface    -2.7753E+09 -2.7278E+09 -3.4352E+09 -7.5454E+07  1.0558E+08  4.7849E+07  1.7295E-01
      19-
 mid.  surface    -2.2614E+08 -3.2765E+08 -5.8549E+08  1.3034E+07  4.8612E+07 -1.6476E+08  5.0839E-01
      20-
 mid.  surface     1.9122E+09  2.2080E+09  1.0446E+09 -4.4255E+07 -2.9467E+08  1.1413E+07  1.0287E+00
      21-
 mid.  surface     8.6368E+07  7.6936E+07 -1.4873E+08  2.1538E+06 -1.3198E+08 -6.9363E+07  5.8626E-01
      22-
 mid.  surface    -1.3915E+09 -1.5066E+09 -6.8411E+08  6.5520E+06 -9.0557E+07  2.6202E+07 -2.7938E-01
      23-
 mid.  surface     2.0308E+09  2.1495E+09  1.8561E+09  1.9949E+07 -1.3383E+08  3.6282E+07  3.8270E-01
      40-
 mid.  surface     2.0089E+09  1.7631E+09  2.0236E+09  6.2681E+07 -1.5755E+08 -4.6319E+07  5.7048E-01
      41-
 mid.  surface     1.3484E+09  1.2184E+09  1.4263E+09 -4.0902E+06 -8.9030E+07  1.3665E+07  4.9520E-01
      85-
 mid.  surface    -1.4438E+09 -1.3877E+09  3.6078E+08 -2.2037E+06  1.2933E+08  1.0388E+08  4.0726E-02
      86-
 mid.  surface    -8.4073E+08 -7.9988E+08 -3.4189E+07 -1.1031E+07  6.9181E+07  1.1161E+08 -3.1660E-01
     100-
 mid.  surface     4.5803E+09  4.6572E+09  4.3709E+09 -3.3768E+07  1.7531E+08  1.0073E+08  6.2383E-01
     110-
 mid.  surface     1.5499E+09  1.5437E+09  1.3515E+09  4.8640E+06 -5.6285E+06 -2.0589E+07  8.8145E-01



 n o d a l  s t r a i n  c a l c u l a t i o n s   f o r   t i m e  s t e p      309   ( at time 6.46842E+01 )

 node (global)
          strain       eps-xx      eps-yy      eps-zz      eps-xy      eps-yz      eps-zx       
       1-
 mid.  surface     2.0560E-01  1.8940E-01 -2.7522E-01  5.9414E-02 -4.3812E-02 -5.8869E-02
       2-
[...]
      23-
 mid.  surface     1.8542E-01  3.2187E-01 -4.7954E-01  4.4828E-02  1.1494E-01 -6.0524E-02
      40-
 mid.  surface     2.0207E-01  1.3329E-01 -3.7843E-01 -3.9666E-03 -2.5374E-02  5.0081E-02
      41-
 mid.  surface     2.5437E-01  1.4996E-01 -4.4972E-01  1.4964E-02  1.4653E-01  4.4314E-02
      85-
 mid.  surface     1.8189E-01  2.8197E-01 -6.5727E-01 -1.0401E-02  1.3396E-01  2.6123E-02
      86-
 mid.  surface     1.4270E-01  2.7904E-01 -4.1774E-01  4.5072E-03  2.0141E-01 -4.1776E-02
     100-
 mid.  surface     2.4661E-01  1.9980E-01 -4.4862E-01 -2.3704E-02  2.8883E-02  3.9569E-02
     110-
 mid.  surface     2.3758E-01  1.1322E-01 -4.9202E-01 -5.3111E-02 -1.9400E-01 -3.1088E-02



 n o d a l  s t r e s s  c a l c u l a t i o n s   f o r   t i m e  s t e p      357   ( at time 8.46842E+01 )

 node (global)
          stress       sig-xx      sig-yy      sig-zz      sig-xy      sig-yz      sig-zx       plastic
                                                                                                 strain 
       1-
 mid.  surface    -1.2961E+09 -1.1170E+09 -1.1303E+09  7.6199E+07 -1.0943E+07  8.0007E+07  6.5201E-01
       2-
 mid.  surface    -2.0815E+08 -2.0979E+07 -2.2197E+06  1.6120E+08  3.5726E+07 -7.2979E+07  7.5467E-01
       8-
 mid.  surface     1.8217E+09  1.3054E+09 -1.9199E+09 -1.1882E+08  1.2434E+08  2.2916E+08  2.9614E-01
       9-
 mid.  surface    -3.6298E+09 -4.0920E+09 -7.4242E+09 -1.2488E+08  1.0038E+08  1.0488E+08  5.0152E-01
      10-
 mid.  surface    -2.6085E+09 -2.5392E+09 -1.8177E+09  3.6406E+07 -3.7005E+08 -1.7002E+08  1.5136E-01
      11-
 mid.  surface     2.3570E+09  2.4925E+09  2.3381E+09 -2.2032E+07 -1.0582E+08 -2.2644E+08  2.4595E-01
      12-
 mid.  surface    -1.4331E+08 -1.8217E+08 -1.5070E+09 -1.0581E+08 -6.1177E+07 -5.2471E+07  6.3845E-02
      17-
 mid.  surface    -2.2617E+07  1.4141E+08 -1.3059E+09 -1.1847E+08  4.1903E+07 -1.1369E+08  1.0596E+00
      18-
 mid.  surface    -1.5138E+09 -1.4331E+09 -2.9136E+09 -1.3244E+08 -2.1113E+08  1.5494E+06  6.4587E-01
      19-
 mid.  surface     1.6098E+07  4.6171E+06 -3.4341E+08 -2.2174E+06 -3.1305E+07 -9.6398E+07  6.5828E-01
      20-
 mid.  surface    -1.5963E+08 -1.1721E+08 -9.6066E+08 -3.8577E+07  1.8613E+08  1.2181E+08  1.2726E+00
      21-
 mid.  surface    -3.6886E+08 -5.1219E+08 -2.0319E+08 -3.2872E+07  1.4864E+07  9.0040E+07  5.9607E-01
      22-
 mid.  surface    -8.0532E+08 -9.8191E+08 -1.2360E+09 -1.1063E+08  1.4256E+07  2.1215E+08 -2.9915E-01
      23-
 mid.  surface     1.8788E+09  1.8342E+09  2.2703E+09  5.4650E+07  4.8467E+06  6.8780E+06  3.6221E-01
      40-
 mid.  surface    -7.9368E+08 -6.6732E+08  2.1107E+09  1.7640E+08 -1.3291E+08 -1.2840E+08  4.8594E-04
      41-
 mid.  surface    -5.7979E+08 -4.4330E+08  2.3139E+08  1.9301E+07  2.9237E+07  2.1126E+07  2.3835E-01
      85-
 mid.  surface    -6.5947E+08 -5.9782E+08  7.4088E+08  1.1298E+08  1.1563E+07  9.6777E+07 -4.5241E-01
      86-
 mid.  surface    -9.2726E+08 -8.6761E+08  4.6322E+08  9.2062E+07  7.5819E+04  1.3443E+08 -6.5726E-01
     100-
 mid.  surface     4.5497E+09  4.3868E+09  4.1546E+09  7.2550E+06  3.9764E+08  5.0446E+07  3.5468E-01
     110-
 mid.  surface    -1.1993E+09 -1.2594E+09 -1.5721E+09 -1.3668E+07  2.3601E+08 -9.1017E+07  6.0305E-01



 n o d a l  s t r a i n  c a l c u l a t i o n s   f o r   t i m e  s t e p      357   ( at time 8.46842E+01 )

 node (global)
          strain       eps-xx      eps-yy      eps-zz      eps-xy      eps-yz      eps-zx       
       1-
 mid.  surface     2.4300E-01  2.3988E-01 -3.0649E-01  8.5805E-02 -3.5086E-02 -7.3043E-02
       2-
 mid.  surface     2.9643E-01  2.2559E-01 -5.6960E-01  5.1061E-02  8.2657E-03 -1.4247E-02
       8-
 mid.  surface     1.9990E-01  3.8843E-01 -4.6726E-01 -1.0837E-03 -4.2611E-02  2.0304E-02
       9-
 mid.  surface     2.2387E-01  2.4689E-01 -4.8522E-01  2.2242E-02 -1.4127E-01  1.4961E-02
      10-
 mid.  surface     2.0052E-01  1.2137E-01 -2.9782E-01  2.8294E-02 -1.4030E-01  1.7646E-02
      11-
 mid.  surface     1.3721E-01  2.7371E-01 -4.4160E-01 -4.9013E-02 -3.9217E-02  3.6226E-02
      12-
 mid.  surface     1.7986E-01  2.2560E-01 -3.9574E-01 -3.5449E-02 -6.5044E-02  4.8536E-03
      17-
 mid.  surface     1.8804E-01  2.6732E-01 -5.1138E-01 -8.1814E-02 -4.3786E-02 -3.5903E-02
      18-
 mid.  surface     2.2510E-01  2.3193E-01 -4.4050E-01 -2.3200E-02 -9.8347E-02  7.6174E-03
      19-
 mid.  surface     2.2070E-01  1.5638E-01 -4.1574E-01 -4.7496E-02 -2.4904E-02 -1.9185E-02
      20-
 mid.  surface     2.4751E-01  3.1601E-01 -5.6128E-01  3.6970E-02  6.4721E-02 -1.3508E-02
      21-
 mid.  surface     2.4987E-01  2.0582E-01 -4.9334E-01 -5.0454E-03  4.8482E-03 -2.0077E-02
      22-
 mid.  surface     2.1383E-01  2.7626E-01 -4.4861E-01  1.4659E-04 -1.4156E-01 -3.6411E-02
      23-
 mid.  surface     1.9712E-01  3.5180E-01 -5.2609E-01  4.2491E-02  1.3447E-01 -7.8303E-02
      40-
 mid.  surface     2.1055E-01  1.4093E-01 -4.0212E-01 -5.0574E-03 -1.1832E-02  6.9454E-02
      41-
 mid.  surface     2.7359E-01  1.5782E-01 -4.8693E-01  1.1212E-02  1.6777E-01  4.2536E-02
      85-
 mid.  surface     1.8563E-01  3.0413E-01 -7.0028E-01 -1.6398E-02  1.3802E-01  7.0016E-02
      86-
 mid.  surface     1.3779E-01  2.9842E-01 -4.2158E-01  6.5582E-03  2.1697E-01 -1.5827E-02
     100-
 mid.  surface     2.6757E-01  2.1890E-01 -4.8584E-01 -2.9157E-02  5.3349E-02  3.1355E-02
     110-
 mid.  surface     2.4785E-01  1.2495E-01 -5.1900E-01 -5.0742E-02 -2.2601E-01 -3.5549E-02



 n o d a l  s t r e s s  c a l c u l a t i o n s   f o r   t i m e  s t e p      365   ( at time 8.96842E+01 )

 node (global)
          stress       sig-xx      sig-yy      sig-zz      sig-xy      sig-yz      sig-zx       plastic
                                                                                                 strain 
       1-
 mid.  surface    -8.1894E+08 -7.6395E+08 -6.9667E+08  7.3719E+07 -5.4326E+07  1.0777E+08  6.4522E-01
       2-
 mid.  surface     1.5862E+07  4.6272E+07  1.2226E+08  4.7188E+07 -3.1301E+07  6.3740E+07  7.4819E-01
       8-
 mid.  surface     3.1229E+09  3.0121E+09  1.2119E+08 -5.6287E+07 -1.2691E+08  4.3427E+07  4.7445E-01
       9-
 mid.  surface    -2.7341E+09 -2.8857E+09 -6.0344E+09  1.4609E+07 -7.4770E+07 -9.4646E+05  6.9467E-01
      10-
 mid.  surface    -2.6430E+09 -2.6057E+09 -2.0610E+09 -1.8573E+07 -1.8920E+08 -3.1706E+07  1.1661E-01
      11-
 mid.  surface     1.4892E+09  1.5334E+09  2.0489E+09 -1.0662E+07 -4.1967E+07  3.2961E+07  2.2769E-01
      12-
 mid.  surface    -3.4504E+08 -3.4886E+08 -5.8827E+08 -8.2208E+07  1.6606E+07 -1.7919E+08  8.2442E-02
      17-
 mid.  surface     3.4557E+08  3.6060E+08 -1.6464E+09  2.7862E+07 -1.1145E+08  3.9284E+07  1.1793E+00
      18-
 mid.  surface    -9.7912E+08 -8.6414E+08 -2.1784E+09 -4.8601E+07 -2.4264E+08  3.5012E+07  7.2928E-01
      19-
 mid.  surface     6.0563E+08  5.5306E+08 -2.5045E+08 -5.2504E+07 -2.7916E+07 -1.9279E+08  6.8473E-01
      20-
 mid.  surface     8.8355E+08  8.7098E+08 -1.0495E+09  1.0638E+08  3.6523E+07  1.1203E+08  1.3845E+00
      21-
 mid.  surface     5.3338E+07  9.0170E+05 -3.2921E+08 -4.9101E+07  9.2419E+06 -9.3337E+07  6.0055E-01
      22-
 mid.  surface    -8.5496E+08 -8.6218E+08 -5.5867E+08 -5.3919E+07  9.6519E+07 -2.1386E+07 -3.0807E-01
      23-
 mid.  surface     1.5020E+09  1.4953E+09  2.1048E+09  6.4582E+07  9.2492E+07  1.0639E+08  3.3734E-01
      40-
 mid.  surface    -1.4021E+09 -1.4210E+09  8.7234E+08  4.7150E+07  1.2247E+08 -5.3788E+07 -1.4402E-01
      41-
 mid.  surface    -4.9345E+08 -4.1966E+08  4.7078E+07  4.3184E+06  9.3677E+07  4.0260E+06  2.1067E-01
      85-
 mid.  surface    -9.8431E+08 -9.2816E+08  4.4117E+08  3.8671E+07 -6.2387E+06  1.5693E+08 -5.2624E-01
      86-
 mid.  surface    -1.1898E+09 -1.1276E+09  2.3960E+08  4.5202E+07 -1.1906E+07  1.6777E+08 -7.3116E-01
     100-
 mid.  surface     4.2764E+09  4.2257E+09  4.3417E+09 -4.9727E+07  1.8375E+08 -1.6996E+06  3.4409E-01
     110-
 mid.  surface    -1.1306E+09 -1.3207E+09 -2.0749E+09  3.7806E+07  2.8644E+08 -3.6432E+07  6.4171E-01



 n o d a l  s t r a i n  c a l c u l a t i o n s   f o r   t i m e  s t e p      365   ( at time 8.96842E+01 )

 node (global)
          strain       eps-xx      eps-yy      eps-zz      eps-xy      eps-yz      eps-zx       
       1-
 mid.  surface     2.5213E-01  2.4859E-01 -3.2379E-01  8.3148E-02 -3.6046E-02 -7.6022E-02
       2-
 mid.  surface     3.0373E-01  2.3514E-01 -5.9965E-01  5.1617E-02  1.7939E-03 -2.0753E-02
       8-
 mid.  surface     2.1467E-01  3.9643E-01 -4.8559E-01  2.7576E-05 -5.2171E-02  2.4375E-02
       9-
 mid.  surface     2.3785E-01  2.4452E-01 -4.9892E-01  2.6193E-02 -1.4958E-01  1.8205E-02
      10-
 mid.  surface     2.1371E-01  1.2803E-01 -3.1210E-01  2.8678E-02 -1.4391E-01  2.2071E-02
      11-
 mid.  surface     1.5290E-01  2.8864E-01 -4.7622E-01 -4.3539E-02 -3.5607E-02  3.8340E-02
      12-
 mid.  surface     1.9123E-01  2.3513E-01 -4.1425E-01 -3.6633E-02 -6.3069E-02  3.9818E-03
      17-
 mid.  surface     2.0237E-01  2.7855E-01 -5.3843E-01 -7.6469E-02 -3.7249E-02 -3.3179E-02
      18-
 mid.  surface     2.3610E-01  2.4213E-01 -4.6013E-01 -2.4626E-02 -1.0005E-01  1.2602E-02
      19-
 mid.  surface     2.3211E-01  1.6529E-01 -4.2484E-01 -4.7761E-02 -2.3703E-02 -2.2639E-02
      20-
 mid.  surface     2.5971E-01  3.2804E-01 -5.8737E-01  3.8432E-02  5.1021E-02 -1.8679E-02
      21-
 mid.  surface     2.5837E-01  2.1338E-01 -5.0469E-01 -7.0841E-03  9.0139E-03 -1.7870E-02
      22-
 mid.  surface     2.2128E-01  2.8531E-01 -4.6488E-01 -4.4283E-03 -1.5251E-01 -4.9390E-02
      23-
 mid.  surface     2.0973E-01  3.6456E-01 -5.6310E-01  4.3717E-02  1.3750E-01 -7.5705E-02
      40-
 mid.  surface     2.2359E-01  1.5107E-01 -4.2563E-01 -5.9657E-03 -9.9793E-03  6.5313E-02
      41-
 mid.  surface     2.8458E-01  1.7037E-01 -5.1247E-01  8.4476E-03  1.7228E-01  4.1196E-02
      85-
 mid.  surface     2.0000E-01  3.1232E-01 -7.3059E-01 -1.1582E-02  1.3855E-01  8.3060E-02
      86-
 mid.  surface     1.5245E-01  3.0568E-01 -4.4012E-01  8.5239E-03  2.2610E-01 -1.0240E-02
     100-
 mid.  surface     2.8032E-01  2.3657E-01 -5.1632E-01 -3.0271E-02  7.0108E-02  2.6927E-02
     110-
 mid.  surface     2.5959E-01  1.3725E-01 -5.3877E-01 -4.7031E-02 -2.3971E-01 -3.8064E-02



 n o d a l  s t r e s s  c a l c u l a t i o n s   f o r   t i m e  s t e p      380   ( at time 9.46842E+01 )

 node (global)
          stress       sig-xx      sig-yy      sig-zz      sig-xy      sig-yz      sig-zx       plastic
                                                                                                 strain 
       1-
 mid.  surface    -5.4807E+08 -6.9208E+08 -1.0409E+09  1.3328E+07 -1.0765E+08  6.1591E+07  7.0076E-01
       2-
 mid.  surface    -9.3226E+08 -1.0393E+09 -3.4379E+08  1.5096E+07 -1.0728E+08  8.9598E+07  7.0729E-01
       8-
 mid.  surface     3.8110E+09  3.2232E+09 -3.3569E+06 -9.2164E+07 -2.3560E+07  1.4919E+08  7.6457E-01
       9-
 mid.  surface    -2.5730E+09 -3.0429E+09 -6.4656E+09 -7.6116E+07 -7.2737E+07  9.1743E+06  9.7066E-01
      10-
 mid.  surface    -1.1861E+09 -1.0904E+09 -1.2466E+09 -4.3566E+07 -5.0215E+08 -1.6480E+08  1.3561E-01
      11-
 mid.  surface     1.0804E+09  1.0517E+09  1.8738E+09  1.6171E+07 -2.7763E+08 -1.9972E+08  1.7663E-01
      12-
 mid.  surface    -9.7286E+07 -6.7885E+07 -1.1781E+09 -9.2405E+07 -4.5094E+07 -1.2959E+08  1.5839E-01
      17-
 mid.  surface    -4.1325E+08 -4.0630E+08 -9.5048E+08  1.4096E+07 -9.1391E+07 -8.4664E+07  1.2414E+00
      18-
 mid.  surface     5.0646E+08  6.0340E+08 -1.7933E+09 -7.5572E+07 -3.2363E+08  8.6161E+06  9.6190E-01
      19-
 mid.  surface     7.6297E+08  8.2928E+08  1.1727E+09 -7.8788E+07  2.8173E+07 -3.9343E+07  6.1141E-01
      20-
 mid.  surface    -1.5729E+09 -1.6121E+09 -1.5651E+09  1.1040E+08  2.8076E+08  1.4358E+08  1.3928E+00
      21-
 mid.  surface     1.1909E+08  1.9713E+08  6.5194E+08 -5.6561E+07  7.4353E+07  3.4197E+07  5.2685E-01
      22-
 mid.  surface    -6.1709E+08 -5.6866E+08 -1.2196E+09 -5.1109E+07  7.0790E+07  2.2165E+07 -2.6886E-01
      23-
 mid.  surface    -6.5648E+08 -7.8834E+08  5.7097E+08  1.0048E+08  6.9865E+07  4.5327E+07  2.4399E-01
      40-
 mid.  surface    -7.2242E+08 -5.0517E+08  1.3752E+09  6.9733E+07  2.0901E+07 -5.2238E+07 -3.1609E-01
      41-
 mid.  surface    -1.8815E+08  4.2866E+07 -2.3021E+08  3.1367E+07  2.2565E+08  1.2028E+08  2.5245E-01
      85-
 mid.  surface    -1.0268E+09 -1.1248E+09 -1.7220E+08  1.5531E+07 -1.0719E+08  9.6492E+07 -5.9088E-01
      86-
 mid.  surface    -9.3225E+08 -1.0393E+09 -3.4380E+08  1.5095E+07 -1.0728E+08  8.9598E+07 -7.7206E-01
     100-
 mid.  surface     4.9420E+09  4.8008E+09  4.4745E+09  1.4089E+07  5.2472E+08  6.1492E+07  3.7943E-01
     110-
 mid.  surface    -1.4206E+09 -1.4348E+09 -1.8745E+09  3.7136E+07  3.6403E+08 -4.5435E+07  6.5366E-01



 n o d a l  s t r a i n  c a l c u l a t i o n s   f o r   t i m e  s t e p      380   ( at time 9.46842E+01 )

 node (global)
          strain       eps-xx      eps-yy      eps-zz      eps-xy      eps-yz      eps-zx       
       1-
 mid.  surface     2.5114E-01  2.7162E-01 -3.6689E-01  6.8438E-02 -2.8829E-02 -4.8976E-02
       2-
 mid.  surface     3.0493E-01  2.6282E-01 -6.3071E-01  4.3998E-02 -5.8729E-04 -2.1717E-02
       8-
 mid.  surface     2.4050E-01  4.1886E-01 -5.3129E-01  5.3219E-03 -7.7005E-02  1.7439E-02
       9-
 mid.  surface     2.5654E-01  2.5164E-01 -5.1890E-01  3.2780E-02 -1.7320E-01  2.0184E-02
      10-
 mid.  surface     2.2788E-01  1.1992E-01 -3.1102E-01  2.6084E-02 -1.5390E-01  3.6444E-02
      11-
 mid.  surface     1.8251E-01  3.2939E-01 -5.4967E-01 -3.4838E-02 -3.6311E-02  4.4737E-02
      12-
 mid.  surface     1.9873E-01  2.5618E-01 -4.5819E-01 -4.1466E-02 -5.0124E-02 -1.0039E-03
      17-
 mid.  surface     2.3213E-01  2.9298E-01 -5.9122E-01 -7.4378E-02 -3.2700E-02 -2.9597E-02
      18-
 mid.  surface     2.5052E-01  2.3573E-01 -4.6486E-01 -3.5958E-02 -1.0480E-01  1.8759E-02
      19-
 mid.  surface     2.4301E-01  1.7171E-01 -4.3570E-01 -5.1376E-02 -9.1914E-03 -3.7355E-02
      20-
 mid.  surface     2.7661E-01  3.5168E-01 -6.3680E-01  3.8291E-02  2.6287E-02 -5.2303E-02
      21-
 mid.  surface     2.7596E-01  2.0865E-01 -5.0131E-01 -1.3819E-02 -1.9041E-03 -2.1121E-02
      22-
 mid.  surface     2.3262E-01  3.0582E-01 -4.9727E-01 -4.2314E-03 -1.5787E-01 -4.8626E-02
      23-
 mid.  surface     2.2408E-01  4.0221E-01 -6.3470E-01  5.0928E-02  1.7571E-01 -5.8619E-02
      40-
 mid.  surface     2.3747E-01  1.5068E-01 -4.3190E-01 -7.6113E-03 -7.5670E-03  6.5463E-02
      41-
 mid.  surface     2.9682E-01  1.6598E-01 -5.2372E-01 -6.0924E-04  1.9079E-01  4.3102E-02
      85-
 mid.  surface     2.3356E-01  3.1328E-01 -7.4902E-01 -1.1865E-02  1.3240E-01  1.0320E-01
      86-
 mid.  surface     1.7916E-01  3.1309E-01 -4.7280E-01  1.1317E-02  2.1339E-01  5.6780E-03
     100-
 mid.  surface     3.0570E-01  2.4965E-01 -5.6863E-01 -3.5154E-02  1.0370E-01  1.4478E-02
     110-
 mid.  surface     2.7070E-01  1.4386E-01 -5.5784E-01 -4.7277E-02 -2.2952E-01 -3.2854E-02



 n o d a l  s t r e s s  c a l c u l a t i o n s   f o r   t i m e  s t e p      388   ( at time 9.96842E+01 )

 node (global)
          stress       sig-xx      sig-yy      sig-zz      sig-xy      sig-yz      sig-zx       plastic
                                                                                                 strain 
       1-
 mid.  surface     3.1087E+08  1.6528E+08 -1.5813E+08 -5.9051E+07 -1.4442E+08 -2.1899E+07  7.1951E-01
       2-
 mid.  surface    -3.5299E+08 -4.6796E+08  2.2722E+08 -7.6452E+07 -8.3042E+07  1.2816E+08  6.7011E-01
       8-
 mid.  surface     4.9819E+09  4.8002E+09  1.8856E+09 -1.7985E+07 -3.2684E+08  2.2284E+07  9.4738E-01
       9-
 mid.  surface    -1.5152E+09 -1.7333E+09 -4.9041E+09  4.0910E+07 -3.1143E+08 -6.3274E+06  1.1781E+00
      10-
 mid.  surface    -9.2174E+08 -9.2185E+08 -1.2248E+09 -6.6630E+06 -3.3307E+08 -4.5748E+07  1.6015E-01
      11-
 mid.  surface     7.6140E+08  6.9003E+08  7.5946E+08 -2.2928E+06 -1.9608E+08  1.7065E+07  1.5863E-01
      12-
 mid.  surface     2.2660E+08  2.8891E+08 -1.9204E+09  9.0198E+07 -3.9698E+07 -1.7734E+08  2.6393E-01
      17-
 mid.  surface    -1.2010E+09 -1.1993E+09 -9.5947E+08 -5.3847E+07 -8.7689E+07 -2.7524E+07  1.2479E+00
      18-
 mid.  surface     1.3728E+09  1.3290E+09 -8.2747E+08 -6.8868E+05 -4.0661E+08 -6.6200E+07  1.0917E+00
      19-
 mid.  surface    -6.7417E+08 -3.9662E+08  6.5884E+08 -3.5166E+07  3.4520E+07 -8.5048E+07  5.6184E-01
      20-
 mid.  surface    -1.0385E+09 -1.1192E+09 -5.7795E+08  4.3262E+06  1.8253E+08  5.2044E+07  1.3818E+00
      21-
 mid.  surface    -1.0103E+09 -7.7477E+08  3.9442E+08 -9.6736E+06  1.7594E+08 -1.6109E+07  4.6853E-01
      22-
 mid.  surface    -1.3315E+08 -9.4125E+07 -1.4783E+09  9.7314E+07  6.5601E+07 -8.0672E+07 -2.0636E-01
      23-
 mid.  surface     1.0429E+08 -4.6754E+07  5.6340E+08  5.7989E+07  1.1508E+08  7.8640E+07  1.9592E-01
      40-
 mid.  surface    -7.8841E+08 -7.4130E+08  6.3509E+08  2.6887E+07  2.3588E+08  5.3077E+06 -4.0026E-01
      41-
 mid.  surface     2.6503E+08  2.8988E+08 -1.7709E+08  1.9928E+07  1.9923E+08  1.3204E+07  2.7389E-01
      85-
 mid.  surface    -5.1640E+08 -6.2383E+08  3.2207E+08 -8.0734E+07 -6.7934E+07  1.6510E+08 -6.4182E-01
      86-
 mid.  surface    -3.5299E+08 -4.6796E+08  2.2722E+08 -7.6452E+07 -8.3042E+07  1.2816E+08 -8.0923E-01
     100-
 mid.  surface     4.4045E+09  4.4262E+09  4.3983E+09 -4.2904E+07  2.6704E+08  1.7424E+07  3.6448E-01
     110-
 mid.  surface    -1.4774E+09 -1.5888E+09 -2.4699E+09  3.6287E+07  4.3339E+08  3.5090E+06  7.0746E-01



 n o d a l  s t r a i n  c a l c u l a t i o n s   f o r   t i m e  s t e p      388   ( at time 9.96842E+01 )

 node (global)
          strain       eps-xx      eps-yy      eps-zz      eps-xy      eps-yz      eps-zx       
       1-
 mid.  surface     2.6123E-01  2.8675E-01 -4.1332E-01  6.3624E-02 -2.8337E-02 -3.5279E-02
       2-
 mid.  surface     3.1425E-01  2.7950E-01 -6.5053E-01  4.0610E-02 -7.6383E-04 -1.9853E-02
       8-
 mid.  surface     2.5457E-01  4.3722E-01 -5.6411E-01  6.9012E-03 -8.5742E-02  1.4846E-02
       9-
 mid.  surface     2.7207E-01  2.5840E-01 -5.4737E-01  3.6803E-02 -1.7975E-01  1.9348E-02
      10-
 mid.  surface     2.4285E-01  1.2752E-01 -3.2637E-01  2.6706E-02 -1.5210E-01  3.7635E-02
      11-
 mid.  surface     1.9850E-01  3.3231E-01 -5.6299E-01 -3.0956E-02 -3.9453E-02  4.1123E-02
      12-
 mid.  surface     2.1015E-01  2.7144E-01 -4.7972E-01 -4.0688E-02 -5.1129E-02 -1.1838E-03
      17-
 mid.  surface     2.4408E-01  3.0384E-01 -6.2052E-01 -7.3199E-02 -3.7326E-02 -2.9472E-02
      18-
 mid.  surface     2.6162E-01  2.5145E-01 -4.8313E-01 -3.6036E-02 -1.0529E-01  1.9087E-02
      19-
 mid.  surface     2.5235E-01  1.9461E-01 -4.6976E-01 -5.1025E-02 -7.1732E-03 -3.8823E-02
      20-
 mid.  surface     2.8918E-01  3.5909E-01 -6.6696E-01  3.8503E-02  2.3634E-02 -5.0236E-02
      21-
 mid.  surface     2.8509E-01  2.1945E-01 -5.2465E-01 -1.3360E-02  2.1293E-03 -2.7872E-02
      22-
 mid.  surface     2.4258E-01  3.1397E-01 -5.1660E-01 -2.0153E-04 -1.3048E-01 -4.9793E-02
      23-
 mid.  surface     2.3851E-01  4.0400E-01 -6.4938E-01  5.1965E-02  1.7017E-01 -4.6264E-02
      40-
 mid.  surface     2.5126E-01  1.5408E-01 -4.4584E-01 -7.8302E-03 -6.6542E-03  6.4601E-02
      41-
 mid.  surface     3.0821E-01  1.7590E-01 -5.4068E-01 -2.6634E-03  1.9446E-01  4.5102E-02
      85-
 mid.  surface     2.4522E-01  3.1413E-01 -7.4283E-01 -9.6390E-03  1.2036E-01  9.1611E-02
      86-
 mid.  surface     1.9229E-01  3.1367E-01 -4.9454E-01  1.1988E-02  1.9206E-01  7.1617E-03
     100-
 mid.  surface     3.1856E-01  2.6657E-01 -5.9787E-01 -3.6008E-02  1.1006E-01  1.0047E-02
     110-
 mid.  surface     2.8433E-01  1.5628E-01 -5.8398E-01 -4.6363E-02 -2.2509E-01 -3.3350E-02
