 LS-DYNA keyword deck by LS-PrePost                                      
                    ls-dyna smp d R14 R14.1.1s_1_ef50e1 date 06/16/2024

{BEGIN LEGEND}
 Entity #        Title
        1                                                                                     
        2                                                                                     
        3                                                                                     
        4                                                                                     
        5                                                                                     
        6                                                                                     
        7                                                                                     
        8                                                                                     
        9                                                                                     
       10                                                                                     
       11                                                                                     
       12                                                                                     
       13                                                                                     
       14                                                                                     
       15                                                                                     
       16                                                                                     
       17                                                                                     
       18                                                                                     
       19                                                                                     
      167                                                                                     
      168                                                                                     
      169                                                                                     
      170                                                                                     
      197                                                                                     
      198                                                                                     
      225                                                                                     
      226                                                                                     
      279                                                                                     
      280                                                                                     
      281                                                                                     
      282                                                                                     
      296                                                                                     
      323                                                                                     
      324                                                                                     
      338                                                                                     
      352                                                                                     
      366                                                                                     
      380                                                                                     
      608                                                                                     
      609                                                                                     
      610                                                                                     
      611                                                                                     
      804                                                                                     
      806                                                                                     
      808                                                                                     
      810                                                                                     
      852                                                                                     
      854                                                                                     
      856                                                                                     
      858                                                                                     
      864                                                                                     
      866                                                                                     
      868                                                                                     
      870                                                                                     
      880                                                                                     
      882                                                                                     
      884                                                                                     
      886                                                                                     
{END LEGEND}




 n o d a l   p r i n t   o u t   f o r   t i m e  s t e p       1                              ( at time 0.0000000E+00 )

 nodal point  x-disp     y-disp      z-disp      x-vel       y-vel       z-vel      x-accl      y-accl      z-accl      x-coor      y-coor      z-coor
        1  0.00000E+00 0.00000E+00 0.00000E+00 0.00000E+00 0.00000E+00 0.00000E+00 0.00000E+00 0.00000E+00 0.00000E+00 3.17500E-03 0.00000E+00-1.78000E-18
        2  0.00000E+00 0.00000E+00 0.00000E+00 0.00000E+00 0.00000E+00 0.00000E+00 0.00000E+00 0.00000E+00 0.00000E+00 2.38130E-03 0.00000E+00 0.00000E+00
        3  0.00000E+00 0.00000E+00 0.00000E+00 0.00000E+00 0.00000E+00 0.00000E+00 0.00000E+00 0.00000E+00 0.00000E+00 1.58750E-03 0.00000E+00 0.00000E+00
        4  0.00000E+00 0.00000E+00 0.00000E+00 0.00000E+00 0.00000E+00 0.00000E+00 0.00000E+00 0.00000E+00 0.00000E+00 7.93750E-04 0.00000E+00 0.00000E+00
        5  0.00000E+00 0.00000E+00 0.00000E+00 0.00000E+00 0.00000E+00 0.00000E+00 0.00000E+00 0.00000E+00 0.00000E+00 0.00000E+00 0.00000E+00 0.00000E+00
        6  0.00000E+00 0.00000E+00 0.00000E+00 0.00000E+00 0.00000E+00 0.00000E+00 0.00000E+00 0.00000E+00 0.00000E+00 4.86000E-20 7.93750E-04 0.00000E+00
        7  0.00000E+00 0.00000E+00 0.00000E+00 0.00000E+00 0.00000E+00 0.00000E+00 0.00000E+00 0.00000E+00 0.00000E+00 9.72100E-20 1.58750E-03 0.00000E+00
        8  0.00000E+00 0.00000E+00 0.00000E+00 0.00000E+00 0.00000E+00 0.00000E+00 0.00000E+00 0.00000E+00 0.00000E+00 1.45800E-19 2.38130E-03 0.00000E+00
        9  0.00000E+00 0.00000E+00 0.00000E+00 0.00000E+00 0.00000E+00 0.00000E+00 0.00000E+00 0.00000E+00 0.00000E+00 1.94400E-19 3.17500E-03 0.00000E+00
       10  0.00000E+00 0.00000E+00 0.00000E+00 0.00000E+00 0.00000E+00 0.00000E+00 0.00000E+00 0.00000E+00 0.00000E+00 1.21500E-03 2.93330E-03 0.00000E+00
       11  0.00000E+00 0.00000E+00 0.00000E+00 0.00000E+00 0.00000E+00 0.00000E+00 0.00000E+00 0.00000E+00 0.00000E+00 2.24510E-03 2.24510E-03 0.00000E+00
       12  0.00000E+00 0.00000E+00 0.00000E+00 0.00000E+00 0.00000E+00 0.00000E+00 0.00000E+00 0.00000E+00 0.00000E+00 2.93330E-03 1.21500E-03 0.00000E+00
       13  0.00000E+00 0.00000E+00 0.00000E+00 0.00000E+00 0.00000E+00 0.00000E+00 0.00000E+00 0.00000E+00 0.00000E+00 1.30830E-03 1.35190E-03 0.00000E+00
       14  0.00000E+00 0.00000E+00 0.00000E+00 0.00000E+00 0.00000E+00 0.00000E+00 0.00000E+00 0.00000E+00 0.00000E+00 1.48830E-03 7.06977E-04 0.00000E+00
       15  0.00000E+00 0.00000E+00 0.00000E+00 0.00000E+00 0.00000E+00 0.00000E+00 0.00000E+00 0.00000E+00 0.00000E+00 6.69510E-04 1.50700E-03 0.00000E+00
       16  0.00000E+00 0.00000E+00 0.00000E+00 0.00000E+00 0.00000E+00 0.00000E+00 0.00000E+00 0.00000E+00 0.00000E+00 7.53638E-04 7.82337E-04 0.00000E+00
       17  0.00000E+00 0.00000E+00 0.00000E+00 0.00000E+00 0.00000E+00 0.00000E+00 0.00000E+00 0.00000E+00 0.00000E+00 1.73630E-03 1.76750E-03 0.00000E+00
       18  0.00000E+00 0.00000E+00 0.00000E+00 0.00000E+00 0.00000E+00 0.00000E+00 0.00000E+00 0.00000E+00 0.00000E+00 9.20131E-04 2.19110E-03 0.00000E+00
       19  0.00000E+00 0.00000E+00 0.00000E+00 0.00000E+00 0.00000E+00 0.00000E+00 0.00000E+00 0.00000E+00 0.00000E+00 2.16330E-03 9.50859E-04 0.00000E+00
      167  0.00000E+00 0.00000E+00 0.00000E+00 0.00000E+00 0.00000E+00 0.00000E+00 0.00000E+00 0.00000E+00 0.00000E+00 3.12470E-03 3.18070E-03 2.54000E-02
      168  0.00000E+00 0.00000E+00 0.00000E+00 0.00000E+00 0.00000E+00 0.00000E+00 0.00000E+00 0.00000E+00 0.00000E+00 2.35430E-03 2.43270E-03 2.54000E-02
      169  0.00000E+00 0.00000E+00 0.00000E+00 0.00000E+00 0.00000E+00 0.00000E+00 0.00000E+00 0.00000E+00 0.00000E+00 2.67800E-03 1.27200E-03 2.54000E-02
      170  0.00000E+00 0.00000E+00 0.00000E+00 0.00000E+00 0.00000E+00 0.00000E+00 0.00000E+00 0.00000E+00 0.00000E+00 3.89280E-03 1.71090E-03 2.54000E-02
      197  0.00000E+00 0.00000E+00 0.00000E+00 0.00000E+00 0.00000E+00 0.00000E+00 0.00000E+00 0.00000E+00 0.00000E+00 1.20460E-03 2.71160E-03 2.54000E-02
      198  0.00000E+00 0.00000E+00 0.00000E+00 0.00000E+00 0.00000E+00 0.00000E+00 0.00000E+00 0.00000E+00 0.00000E+00 1.65560E-03 3.94280E-03 2.54000E-02
      225  0.00000E+00 0.00000E+00 0.00000E+00 0.00000E+00 0.00000E+00 0.00000E+00 0.00000E+00 0.00000E+00 0.00000E+00 2.85750E-03 0.00000E+00 2.54000E-02
      226  0.00000E+00 0.00000E+00 0.00000E+00 0.00000E+00 0.00000E+00 0.00000E+00 0.00000E+00 0.00000E+00 0.00000E+00 4.28630E-03 0.00000E+00 2.54000E-02
      279  0.00000E+00 0.00000E+00 0.00000E+00 0.00000E+00 0.00000E+00 0.00000E+00 0.00000E+00 0.00000E+00 0.00000E+00 1.42880E-03 0.00000E+00 2.54000E-02
      280  0.00000E+00 0.00000E+00 0.00000E+00 0.00000E+00 0.00000E+00 0.00000E+00 0.00000E+00 0.00000E+00 0.00000E+00 1.35620E-03 1.40780E-03 2.54000E-02
      281  0.00000E+00 0.00000E+00 0.00000E+00 0.00000E+00 0.00000E+00 0.00000E+00 0.00000E+00 0.00000E+00 0.00000E+00 8.74900E-20 1.42880E-03 2.54000E-02
      282  0.00000E+00 0.00000E+00 0.00000E+00 0.00000E+00 0.00000E+00 0.00000E+00 0.00000E+00 0.00000E+00 0.00000E+00 0.00000E+00 0.00000E+00 2.54000E-02
      296  0.00000E+00 0.00000E+00 0.00000E+00 0.00000E+00 0.00000E+00 0.00000E+00 0.00000E+00 0.00000E+00 0.00000E+00 1.75000E-19 2.85750E-03 2.54000E-02
      323  0.00000E+00 0.00000E+00 0.00000E+00 0.00000E+00 0.00000E+00 0.00000E+00 0.00000E+00 0.00000E+00 0.00000E+00 4.04110E-03 4.04120E-03 2.54000E-02
      324  0.00000E+00 0.00000E+00 0.00000E+00 0.00000E+00 0.00000E+00 0.00000E+00 0.00000E+00 0.00000E+00 0.00000E+00 2.18670E-03 5.28010E-03 2.54000E-02
      338  0.00000E+00 0.00000E+00 0.00000E+00 0.00000E+00 0.00000E+00 0.00000E+00 0.00000E+00 0.00000E+00 0.00000E+00 5.28000E-03 2.18690E-03 2.54000E-02
      352  0.00000E+00 0.00000E+00 0.00000E+00 0.00000E+00 0.00000E+00 0.00000E+00 0.00000E+00 0.00000E+00 0.00000E+00 2.62500E-19 4.28630E-03 2.54000E-02
      366  0.00000E+00 0.00000E+00 0.00000E+00 0.00000E+00 0.00000E+00 0.00000E+00 0.00000E+00 0.00000E+00 0.00000E+00 5.71500E-03 0.00000E+00 2.54000E-02
      380  0.00000E+00 0.00000E+00 0.00000E+00 0.00000E+00 0.00000E+00 0.00000E+00 0.00000E+00 0.00000E+00 0.00000E+00 3.49900E-19 5.71500E-03 2.54000E-02
      608  0.00000E+00 0.00000E+00 0.00000E+00 0.00000E+00 0.00000E+00 0.00000E+00 0.00000E+00 0.00000E+00 0.00000E+00 1.27000E-02 0.00000E+00 2.54000E-02
      609  0.00000E+00 0.00000E+00 0.00000E+00 0.00000E+00 0.00000E+00 0.00000E+00 0.00000E+00 0.00000E+00 0.00000E+00 1.09538E-02 0.00000E+00 2.54000E-02
      610  0.00000E+00 0.00000E+00 0.00000E+00 0.00000E+00 0.00000E+00 0.00000E+00 0.00000E+00 0.00000E+00 0.00000E+00 9.20750E-03 0.00000E+00 2.54000E-02
      611  0.00000E+00 0.00000E+00 0.00000E+00 0.00000E+00 0.00000E+00 0.00000E+00 0.00000E+00 0.00000E+00 0.00000E+00 7.46130E-03 0.00000E+00 2.54000E-02
      804  0.00000E+00 0.00000E+00 0.00000E+00 0.00000E+00 0.00000E+00 0.00000E+00 0.00000E+00 0.00000E+00 0.00000E+00 6.90200E-03 2.83400E-03 2.54000E-02
      806  0.00000E+00 0.00000E+00 0.00000E+00 0.00000E+00 0.00000E+00 0.00000E+00 0.00000E+00 0.00000E+00 0.00000E+00 5.27800E-03 5.27380E-03 2.54000E-02
      808  0.00000E+00 0.00000E+00 0.00000E+00 0.00000E+00 0.00000E+00 0.00000E+00 0.00000E+00 0.00000E+00 0.00000E+00 2.83770E-03 6.90050E-03 2.54000E-02
      810  0.00000E+00 0.00000E+00 0.00000E+00 0.00000E+00 0.00000E+00 0.00000E+00 0.00000E+00 0.00000E+00 0.00000E+00 4.56900E-19 7.46130E-03 2.54000E-02
      852  0.00000E+00 0.00000E+00 0.00000E+00 0.00000E+00 0.00000E+00 0.00000E+00 0.00000E+00 0.00000E+00 0.00000E+00 8.52400E-03 3.48110E-03 2.54000E-02
      854  0.00000E+00 0.00000E+00 0.00000E+00 0.00000E+00 0.00000E+00 0.00000E+00 0.00000E+00 0.00000E+00 0.00000E+00 6.51500E-03 6.50640E-03 2.54000E-02
      856  0.00000E+00 0.00000E+00 0.00000E+00 0.00000E+00 0.00000E+00 0.00000E+00 0.00000E+00 0.00000E+00 0.00000E+00 3.48870E-03 8.52100E-03 2.54000E-02
      858  0.00000E+00 0.00000E+00 0.00000E+00 0.00000E+00 0.00000E+00 0.00000E+00 0.00000E+00 0.00000E+00 0.00000E+00 5.63800E-19 9.20750E-03 2.54000E-02
      864  0.00000E+00 0.00000E+00 0.00000E+00 0.00000E+00 0.00000E+00 0.00000E+00 0.00000E+00 0.00000E+00 0.00000E+00 1.01461E-02 4.12810E-03 2.54000E-02
      866  0.00000E+00 0.00000E+00 0.00000E+00 0.00000E+00 0.00000E+00 0.00000E+00 0.00000E+00 0.00000E+00 0.00000E+00 7.75190E-03 7.73900E-03 2.54000E-02
      868  0.00000E+00 0.00000E+00 0.00000E+00 0.00000E+00 0.00000E+00 0.00000E+00 0.00000E+00 0.00000E+00 0.00000E+00 4.13970E-03 1.01414E-02 2.54000E-02
      870  0.00000E+00 0.00000E+00 0.00000E+00 0.00000E+00 0.00000E+00 0.00000E+00 0.00000E+00 0.00000E+00 0.00000E+00 6.70700E-19 1.09538E-02 2.54000E-02
      880  0.00000E+00 0.00000E+00 0.00000E+00 0.00000E+00 0.00000E+00 0.00000E+00 0.00000E+00 0.00000E+00 0.00000E+00 1.17681E-02 4.77520E-03 2.54000E-02
      882  0.00000E+00 0.00000E+00 0.00000E+00 0.00000E+00 0.00000E+00 0.00000E+00 0.00000E+00 0.00000E+00 0.00000E+00 8.98890E-03 8.97160E-03 2.54000E-02
      884  0.00000E+00 0.00000E+00 0.00000E+00 0.00000E+00 0.00000E+00 0.00000E+00 0.00000E+00 0.00000E+00 0.00000E+00 4.79070E-03 1.17618E-02 2.54000E-02
      886  0.00000E+00 0.00000E+00 0.00000E+00 0.00000E+00 0.00000E+00 0.00000E+00 0.00000E+00 0.00000E+00 0.00000E+00 7.77700E-19 1.27000E-02 2.54000E-02



 n o d a l   p r i n t   o u t   f o r   t i m e  s t e p      10                              ( at time 1.2924466E+00 )

 nodal point  x-disp     y-disp      z-disp      x-vel       y-vel       z-vel      x-accl      y-accl      z-accl      x-coor      y-coor      z-coor
        1  1.55885E-06 0.00000E+00 0.00000E+00 0.00000E+00 0.00000E+00 0.00000E+00 0.00000E+00 0.00000E+00 0.00000E+00 3.17656E-03 0.00000E+00-1.78000E-18
        2  9.28554E-07 0.00000E+00 0.00000E+00 0.00000E+00 0.00000E+00 0.00000E+00 0.00000E+00 0.00000E+00 0.00000E+00 2.38223E-03 0.00000E+00 0.00000E+00
        3  5.31308E-07 0.00000E+00 0.00000E+00 0.00000E+00 0.00000E+00 0.00000E+00 0.00000E+00 0.00000E+00 0.00000E+00 1.58803E-03 0.00000E+00 0.00000E+00
        4  2.44286E-07 0.00000E+00 0.00000E+00 0.00000E+00 0.00000E+00 0.00000E+00 0.00000E+00 0.00000E+00 0.00000E+00 7.93994E-04 0.00000E+00 0.00000E+00
        5  0.00000E+00 0.00000E+00 0.00000E+00 0.00000E+00 0.00000E+00 0.00000E+00 0.00000E+00 0.00000E+00 0.00000E+00 0.00000E+00 0.00000E+00 0.00000E+00
        6  0.00000E+00 2.28798E-07 0.00000E+00 0.00000E+00 0.00000E+00 0.00000E+00 0.00000E+00 0.00000E+00 0.00000E+00 4.86000E-20 7.93979E-04 0.00000E+00
        7  0.00000E+00 5.24346E-07 0.00000E+00 0.00000E+00 0.00000E+00 0.00000E+00 0.00000E+00 0.00000E+00 0.00000E+00 9.72100E-20 1.58802E-03 0.00000E+00
        8  0.00000E+00 9.87926E-07 0.00000E+00 0.00000E+00 0.00000E+00 0.00000E+00 0.00000E+00 0.00000E+00 0.00000E+00 1.45800E-19 2.38229E-03 0.00000E+00
        9  0.00000E+00 1.69943E-06 0.00000E+00 0.00000E+00 0.00000E+00 0.00000E+00 0.00000E+00 0.00000E+00 0.00000E+00 1.94400E-19 3.17670E-03 0.00000E+00
       10  5.73351E-07 1.62325E-06 0.00000E+00 0.00000E+00 0.00000E+00 0.00000E+00 0.00000E+00 0.00000E+00 0.00000E+00 1.21557E-03 2.93492E-03 0.00000E+00
       11  1.17699E-06 1.45145E-06 0.00000E+00 0.00000E+00 0.00000E+00 0.00000E+00 0.00000E+00 0.00000E+00 0.00000E+00 2.24628E-03 2.24655E-03 0.00000E+00
       12  1.48518E-06 8.23258E-07 0.00000E+00 0.00000E+00 0.00000E+00 0.00000E+00 0.00000E+00 0.00000E+00 0.00000E+00 2.93479E-03 1.21582E-03 0.00000E+00
       13  5.72765E-07 5.71025E-07 0.00000E+00 0.00000E+00 0.00000E+00 0.00000E+00 0.00000E+00 0.00000E+00 0.00000E+00 1.30887E-03 1.35247E-03 0.00000E+00
       14  5.51029E-07 2.76291E-07 0.00000E+00 0.00000E+00 0.00000E+00 0.00000E+00 0.00000E+00 0.00000E+00 0.00000E+00 1.48885E-03 7.07253E-04 0.00000E+00
       15  2.71792E-07 5.41893E-07 0.00000E+00 0.00000E+00 0.00000E+00 0.00000E+00 0.00000E+00 0.00000E+00 0.00000E+00 6.69782E-04 1.50754E-03 0.00000E+00
       16  2.58677E-07 2.60557E-07 0.00000E+00 0.00000E+00 0.00000E+00 0.00000E+00 0.00000E+00 0.00000E+00 0.00000E+00 7.53896E-04 7.82598E-04 0.00000E+00
       17  8.90138E-07 8.10414E-07 0.00000E+00 0.00000E+00 0.00000E+00 0.00000E+00 0.00000E+00 0.00000E+00 0.00000E+00 1.73719E-03 1.76831E-03 0.00000E+00
       18  4.48499E-07 9.15661E-07 0.00000E+00 0.00000E+00 0.00000E+00 0.00000E+00 0.00000E+00 0.00000E+00 0.00000E+00 9.20579E-04 2.19202E-03 0.00000E+00
       19  9.29426E-07 3.78610E-07 0.00000E+00 0.00000E+00 0.00000E+00 0.00000E+00 0.00000E+00 0.00000E+00 0.00000E+00 2.16423E-03 9.51237E-04 0.00000E+00
      167  1.44478E-07 1.62128E-07-1.29245E-05 0.00000E+00 0.00000E+00 0.00000E+00 0.00000E+00 0.00000E+00 0.00000E+00 3.12484E-03 3.18086E-03 2.53871E-02
      168  9.90362E-08 1.19289E-07-1.29245E-05 0.00000E+00 0.00000E+00 0.00000E+00 0.00000E+00 0.00000E+00 0.00000E+00 2.35440E-03 2.43282E-03 2.53871E-02
      169  1.10373E-07 4.70262E-08-1.29245E-05 0.00000E+00 0.00000E+00 0.00000E+00 0.00000E+00 0.00000E+00 0.00000E+00 2.67811E-03 1.27205E-03 2.53871E-02
      170  1.42758E-07 8.60441E-08-1.29245E-05 0.00000E+00 0.00000E+00 0.00000E+00 0.00000E+00 0.00000E+00 0.00000E+00 3.89294E-03 1.71099E-03 2.53871E-02
      197  3.62312E-08 1.19368E-07-1.29245E-05 0.00000E+00 0.00000E+00 0.00000E+00 0.00000E+00 0.00000E+00 0.00000E+00 1.20464E-03 2.71172E-03 2.53871E-02
      198  7.02231E-08 1.49910E-07-1.29245E-05 0.00000E+00 0.00000E+00 0.00000E+00 0.00000E+00 0.00000E+00 0.00000E+00 1.65567E-03 3.94295E-03 2.53871E-02
      225  1.26333E-07 0.00000E+00-1.29245E-05 0.00000E+00 0.00000E+00 0.00000E+00 0.00000E+00 0.00000E+00 0.00000E+00 2.85763E-03 0.00000E+00 2.53871E-02
      226  1.95760E-07 0.00000E+00-1.29245E-05 0.00000E+00 0.00000E+00 0.00000E+00 0.00000E+00 0.00000E+00 0.00000E+00 4.28650E-03 0.00000E+00 2.53871E-02
      279  6.19494E-08 0.00000E+00-1.29245E-05 0.00000E+00 0.00000E+00 0.00000E+00 0.00000E+00 0.00000E+00 0.00000E+00 1.42886E-03 0.00000E+00 2.53871E-02
      280  6.47059E-08 8.65784E-08-1.29245E-05 0.00000E+00 0.00000E+00 0.00000E+00 0.00000E+00 0.00000E+00 0.00000E+00 1.35626E-03 1.40789E-03 2.53871E-02
      281  0.00000E+00 7.68506E-08-1.29245E-05 0.00000E+00 0.00000E+00 0.00000E+00 0.00000E+00 0.00000E+00 0.00000E+00 8.74900E-20 1.42888E-03 2.53871E-02
      282  0.00000E+00 0.00000E+00-1.29245E-05 0.00000E+00 0.00000E+00 0.00000E+00 0.00000E+00 0.00000E+00 0.00000E+00 0.00000E+00 0.00000E+00 2.53871E-02
      296  0.00000E+00 1.48489E-07-1.29245E-05 0.00000E+00 0.00000E+00 0.00000E+00 0.00000E+00 0.00000E+00 0.00000E+00 1.75000E-19 2.85765E-03 2.53871E-02
      323  1.68086E-07 1.78123E-07-1.29245E-05 0.00000E+00 0.00000E+00 0.00000E+00 0.00000E+00 0.00000E+00 0.00000E+00 4.04127E-03 4.04138E-03 2.53871E-02
      324  9.24522E-08 2.30859E-07-1.29245E-05 0.00000E+00 0.00000E+00 0.00000E+00 0.00000E+00 0.00000E+00 0.00000E+00 2.18679E-03 5.28033E-03 2.53871E-02
      338  2.16328E-07 1.01675E-07-1.29245E-05 0.00000E+00 0.00000E+00 0.00000E+00 0.00000E+00 0.00000E+00 0.00000E+00 5.28022E-03 2.18700E-03 2.53871E-02
      352  0.00000E+00 2.18397E-07-1.29245E-05 0.00000E+00 0.00000E+00 0.00000E+00 0.00000E+00 0.00000E+00 0.00000E+00 2.62500E-19 4.28652E-03 2.53871E-02
      366  2.29436E-07 0.00000E+00-1.29245E-05 0.00000E+00 0.00000E+00 0.00000E+00 0.00000E+00 0.00000E+00 0.00000E+00 5.71523E-03 0.00000E+00 2.53871E-02
      380  0.00000E+00 2.58990E-07-1.29245E-05 0.00000E+00 0.00000E+00 0.00000E+00 0.00000E+00 0.00000E+00 0.00000E+00 3.49900E-19 5.71526E-03 2.53871E-02
      608  4.88313E-07 0.00000E+00-1.29245E-05 0.00000E+00 0.00000E+00 0.00000E+00 0.00000E+00 0.00000E+00 0.00000E+00 1.27005E-02 0.00000E+00 2.53871E-02
      609  4.20791E-07 0.00000E+00-1.29245E-05 0.00000E+00 0.00000E+00 0.00000E+00 0.00000E+00 0.00000E+00 0.00000E+00 1.09542E-02 0.00000E+00 2.53871E-02
      610  3.65459E-07 0.00000E+00-1.29245E-05 0.00000E+00 0.00000E+00 0.00000E+00 0.00000E+00 0.00000E+00 0.00000E+00 9.20787E-03 0.00000E+00 2.53871E-02
      611  3.05681E-07 0.00000E+00-1.29245E-05 0.00000E+00 0.00000E+00 0.00000E+00 0.00000E+00 0.00000E+00 0.00000E+00 7.46161E-03 0.00000E+00 2.53871E-02
      804  2.89014E-07 1.39225E-07-1.29245E-05 0.00000E+00 0.00000E+00 0.00000E+00 0.00000E+00 0.00000E+00 0.00000E+00 6.90229E-03 2.83414E-03 2.53871E-02
      806  2.30302E-07 2.54384E-07-1.29245E-05 0.00000E+00 0.00000E+00 0.00000E+00 0.00000E+00 0.00000E+00 0.00000E+00 5.27823E-03 5.27405E-03 2.53871E-02
      808  1.25410E-07 3.25470E-07-1.29245E-05 0.00000E+00 0.00000E+00 0.00000E+00 0.00000E+00 0.00000E+00 0.00000E+00 2.83783E-03 6.90083E-03 2.53871E-02
      810  0.00000E+00 3.55279E-07-1.29245E-05 0.00000E+00 0.00000E+00 0.00000E+00 0.00000E+00 0.00000E+00 0.00000E+00 4.56900E-19 7.46166E-03 2.53871E-02
      852  3.47628E-07 1.69175E-07-1.29245E-05 0.00000E+00 0.00000E+00 0.00000E+00 0.00000E+00 0.00000E+00 0.00000E+00 8.52435E-03 3.48127E-03 2.53871E-02
      854  2.81708E-07 3.12798E-07-1.29245E-05 0.00000E+00 0.00000E+00 0.00000E+00 0.00000E+00 0.00000E+00 0.00000E+00 6.51528E-03 6.50671E-03 2.53871E-02
      856  1.55749E-07 3.99584E-07-1.29245E-05 0.00000E+00 0.00000E+00 0.00000E+00 0.00000E+00 0.00000E+00 0.00000E+00 3.48886E-03 8.52140E-03 2.53871E-02
      858  0.00000E+00 4.30202E-07-1.29245E-05 0.00000E+00 0.00000E+00 0.00000E+00 0.00000E+00 0.00000E+00 0.00000E+00 5.63800E-19 9.20793E-03 2.53871E-02
      864  4.04798E-07 1.97585E-07-1.29245E-05 0.00000E+00 0.00000E+00 0.00000E+00 0.00000E+00 0.00000E+00 0.00000E+00 1.01465E-02 4.12830E-03 2.53871E-02
      866  3.32249E-07 3.72892E-07-1.29245E-05 0.00000E+00 0.00000E+00 0.00000E+00 0.00000E+00 0.00000E+00 0.00000E+00 7.75223E-03 7.73937E-03 2.53871E-02
      868  1.84468E-07 4.79362E-07-1.29245E-05 0.00000E+00 0.00000E+00 0.00000E+00 0.00000E+00 0.00000E+00 0.00000E+00 4.13988E-03 1.01419E-02 2.53871E-02
      870  0.00000E+00 5.16075E-07-1.29245E-05 0.00000E+00 0.00000E+00 0.00000E+00 0.00000E+00 0.00000E+00 0.00000E+00 6.70700E-19 1.09543E-02 2.53871E-02
      880  4.63721E-07 2.26634E-07-1.29245E-05 0.00000E+00 0.00000E+00 0.00000E+00 0.00000E+00 0.00000E+00 0.00000E+00 1.17686E-02 4.77543E-03 2.53871E-02
      882  3.85400E-07 4.38720E-07-1.29245E-05 0.00000E+00 0.00000E+00 0.00000E+00 0.00000E+00 0.00000E+00 0.00000E+00 8.98929E-03 8.97204E-03 2.53871E-02
      884  2.35411E-07 6.26327E-07-1.29245E-05 0.00000E+00 0.00000E+00 0.00000E+00 0.00000E+00 0.00000E+00 0.00000E+00 4.79094E-03 1.17624E-02 2.53871E-02
      886  0.00000E+00 7.15981E-07-1.29245E-05 0.00000E+00 0.00000E+00 0.00000E+00 0.00000E+00 0.00000E+00 0.00000E+00 7.77700E-19 1.27007E-02 2.53871E-02



 n o d a l   p r i n t   o u t   f o r   t i m e  s t e p      14                              ( at time 2.5483898E+00 )

 nodal point  x-disp     y-disp      z-disp      x-vel       y-vel       z-vel      x-accl      y-accl      z-accl      x-coor      y-coor      z-coor
        1  3.19897E-06 0.00000E+00 0.00000E+00 0.00000E+00 0.00000E+00 0.00000E+00 0.00000E+00 0.00000E+00 0.00000E+00 3.17820E-03 0.00000E+00-1.78000E-18
        2  1.80991E-06 0.00000E+00 0.00000E+00 0.00000E+00 0.00000E+00 0.00000E+00 0.00000E+00 0.00000E+00 0.00000E+00 2.38311E-03 0.00000E+00 0.00000E+00
        3  1.00769E-06 0.00000E+00 0.00000E+00 0.00000E+00 0.00000E+00 0.00000E+00 0.00000E+00 0.00000E+00 0.00000E+00 1.58851E-03 0.00000E+00 0.00000E+00
        4  4.60777E-07 0.00000E+00 0.00000E+00 0.00000E+00 0.00000E+00 0.00000E+00 0.00000E+00 0.00000E+00 0.00000E+00 7.94211E-04 0.00000E+00 0.00000E+00
        5  0.00000E+00 0.00000E+00 0.00000E+00 0.00000E+00 0.00000E+00 0.00000E+00 0.00000E+00 0.00000E+00 0.00000E+00 0.00000E+00 0.00000E+00 0.00000E+00
        6  0.00000E+00 4.24073E-07 0.00000E+00 0.00000E+00 0.00000E+00 0.00000E+00 0.00000E+00 0.00000E+00 0.00000E+00 4.86000E-20 7.94174E-04 0.00000E+00
        7  0.00000E+00 9.96675E-07 0.00000E+00 0.00000E+00 0.00000E+00 0.00000E+00 0.00000E+00 0.00000E+00 0.00000E+00 9.72100E-20 1.58850E-03 0.00000E+00
        8  0.00000E+00 1.95961E-06 0.00000E+00 0.00000E+00 0.00000E+00 0.00000E+00 0.00000E+00 0.00000E+00 0.00000E+00 1.45800E-19 2.38326E-03 0.00000E+00
        9  0.00000E+00 3.52050E-06 0.00000E+00 0.00000E+00 0.00000E+00 0.00000E+00 0.00000E+00 0.00000E+00 0.00000E+00 1.94400E-19 3.17852E-03 0.00000E+00
       10  1.20333E-06 3.40561E-06 0.00000E+00 0.00000E+00 0.00000E+00 0.00000E+00 0.00000E+00 0.00000E+00 0.00000E+00 1.21620E-03 2.93671E-03 0.00000E+00
       11  2.49247E-06 3.09912E-06 0.00000E+00 0.00000E+00 0.00000E+00 0.00000E+00 0.00000E+00 0.00000E+00 0.00000E+00 2.24759E-03 2.24820E-03 0.00000E+00
       12  3.11928E-06 1.76042E-06 0.00000E+00 0.00000E+00 0.00000E+00 0.00000E+00 0.00000E+00 0.00000E+00 0.00000E+00 2.93642E-03 1.21676E-03 0.00000E+00
       13  1.17227E-06 1.16996E-06 0.00000E+00 0.00000E+00 0.00000E+00 0.00000E+00 0.00000E+00 0.00000E+00 0.00000E+00 1.30947E-03 1.35307E-03 0.00000E+00
       14  1.10705E-06 5.64365E-07 0.00000E+00 0.00000E+00 0.00000E+00 0.00000E+00 0.00000E+00 0.00000E+00 0.00000E+00 1.48941E-03 7.07541E-04 0.00000E+00
       15  5.53450E-07 1.07017E-06 0.00000E+00 0.00000E+00 0.00000E+00 0.00000E+00 0.00000E+00 0.00000E+00 0.00000E+00 6.70064E-04 1.50807E-03 0.00000E+00
       16  5.15569E-07 5.10166E-07 0.00000E+00 0.00000E+00 0.00000E+00 0.00000E+00 0.00000E+00 0.00000E+00 0.00000E+00 7.54153E-04 7.82847E-04 0.00000E+00
       17  1.82974E-06 1.68695E-06 0.00000E+00 0.00000E+00 0.00000E+00 0.00000E+00 0.00000E+00 0.00000E+00 0.00000E+00 1.73813E-03 1.76919E-03 0.00000E+00
       18  9.09471E-07 1.85498E-06 0.00000E+00 0.00000E+00 0.00000E+00 0.00000E+00 0.00000E+00 0.00000E+00 0.00000E+00 9.21040E-04 2.19295E-03 0.00000E+00
       19  1.88887E-06 7.91081E-07 0.00000E+00 0.00000E+00 0.00000E+00 0.00000E+00 0.00000E+00 0.00000E+00 0.00000E+00 2.16519E-03 9.51650E-04 0.00000E+00
      167  2.74968E-07 3.22966E-07-2.54839E-05 0.00000E+00 0.00000E+00 0.00000E+00 0.00000E+00 0.00000E+00 0.00000E+00 3.12497E-03 3.18102E-03 2.53745E-02
      168  1.81709E-07 2.35757E-07-2.54839E-05 0.00000E+00 0.00000E+00 0.00000E+00 0.00000E+00 0.00000E+00 0.00000E+00 2.35448E-03 2.43294E-03 2.53745E-02
      169  2.00090E-07 9.93982E-08-2.54839E-05 0.00000E+00 0.00000E+00 0.00000E+00 0.00000E+00 0.00000E+00 0.00000E+00 2.67820E-03 1.27210E-03 2.53745E-02
      170  2.62336E-07 1.75771E-07-2.54839E-05 0.00000E+00 0.00000E+00 0.00000E+00 0.00000E+00 0.00000E+00 0.00000E+00 3.89306E-03 1.71108E-03 2.53745E-02
      197  6.33630E-08 2.27606E-07-2.54839E-05 0.00000E+00 0.00000E+00 0.00000E+00 0.00000E+00 0.00000E+00 0.00000E+00 1.20466E-03 2.71183E-03 2.53745E-02
      198  1.30283E-07 2.79819E-07-2.54839E-05 0.00000E+00 0.00000E+00 0.00000E+00 0.00000E+00 0.00000E+00 0.00000E+00 1.65573E-03 3.94308E-03 2.53745E-02
      225  2.31088E-07 0.00000E+00-2.54839E-05 0.00000E+00 0.00000E+00 0.00000E+00 0.00000E+00 0.00000E+00 0.00000E+00 2.85773E-03 0.00000E+00 2.53745E-02
      226  3.66659E-07 0.00000E+00-2.54839E-05 0.00000E+00 0.00000E+00 0.00000E+00 0.00000E+00 0.00000E+00 0.00000E+00 4.28667E-03 0.00000E+00 2.53745E-02
      279  1.09257E-07 0.00000E+00-2.54839E-05 0.00000E+00 0.00000E+00 0.00000E+00 0.00000E+00 0.00000E+00 0.00000E+00 1.42891E-03 0.00000E+00 2.53745E-02
      280  1.16712E-07 1.75207E-07-2.54839E-05 0.00000E+00 0.00000E+00 0.00000E+00 0.00000E+00 0.00000E+00 0.00000E+00 1.35632E-03 1.40798E-03 2.53745E-02
      281  0.00000E+00 1.60324E-07-2.54839E-05 0.00000E+00 0.00000E+00 0.00000E+00 0.00000E+00 0.00000E+00 0.00000E+00 8.74900E-20 1.42896E-03 2.53745E-02
      282  0.00000E+00 0.00000E+00-2.54839E-05 0.00000E+00 0.00000E+00 0.00000E+00 0.00000E+00 0.00000E+00 0.00000E+00 0.00000E+00 0.00000E+00 2.53745E-02
      296  0.00000E+00 2.97797E-07-2.54839E-05 0.00000E+00 0.00000E+00 0.00000E+00 0.00000E+00 0.00000E+00 0.00000E+00 1.75000E-19 2.85780E-03 2.53745E-02
      323  3.20245E-07 3.56097E-07-2.54839E-05 0.00000E+00 0.00000E+00 0.00000E+00 0.00000E+00 0.00000E+00 0.00000E+00 4.04142E-03 4.04156E-03 2.53745E-02
      324  1.74835E-07 4.45165E-07-2.54839E-05 0.00000E+00 0.00000E+00 0.00000E+00 0.00000E+00 0.00000E+00 0.00000E+00 2.18687E-03 5.28055E-03 2.53745E-02
      338  4.04993E-07 2.09764E-07-2.54839E-05 0.00000E+00 0.00000E+00 0.00000E+00 0.00000E+00 0.00000E+00 0.00000E+00 5.28040E-03 2.18711E-03 2.53745E-02
      352  0.00000E+00 4.31181E-07-2.54839E-05 0.00000E+00 0.00000E+00 0.00000E+00 0.00000E+00 0.00000E+00 0.00000E+00 2.62500E-19 4.28673E-03 2.53745E-02
      366  4.24009E-07 0.00000E+00-2.54839E-05 0.00000E+00 0.00000E+00 0.00000E+00 0.00000E+00 0.00000E+00 0.00000E+00 5.71542E-03 0.00000E+00 2.53745E-02
      380  0.00000E+00 5.03979E-07-2.54839E-05 0.00000E+00 0.00000E+00 0.00000E+00 0.00000E+00 0.00000E+00 0.00000E+00 3.49900E-19 5.71550E-03 2.53745E-02
      608  8.92396E-07 0.00000E+00-2.54839E-05 0.00000E+00 0.00000E+00 0.00000E+00 0.00000E+00 0.00000E+00 0.00000E+00 1.27009E-02 0.00000E+00 2.53745E-02
      609  7.80029E-07 0.00000E+00-2.54839E-05 0.00000E+00 0.00000E+00 0.00000E+00 0.00000E+00 0.00000E+00 0.00000E+00 1.09546E-02 0.00000E+00 2.53745E-02
      610  6.79947E-07 0.00000E+00-2.54839E-05 0.00000E+00 0.00000E+00 0.00000E+00 0.00000E+00 0.00000E+00 0.00000E+00 9.20818E-03 0.00000E+00 2.53745E-02
      611  5.68497E-07 0.00000E+00-2.54839E-05 0.00000E+00 0.00000E+00 0.00000E+00 0.00000E+00 0.00000E+00 0.00000E+00 7.46187E-03 0.00000E+00 2.53745E-02
      804  5.43129E-07 2.86342E-07-2.54839E-05 0.00000E+00 0.00000E+00 0.00000E+00 0.00000E+00 0.00000E+00 0.00000E+00 6.90254E-03 2.83429E-03 2.53745E-02
      806  4.42554E-07 5.08256E-07-2.54839E-05 0.00000E+00 0.00000E+00 0.00000E+00 0.00000E+00 0.00000E+00 0.00000E+00 5.27844E-03 5.27431E-03 2.53745E-02
      808  2.43071E-07 6.36719E-07-2.54839E-05 0.00000E+00 0.00000E+00 0.00000E+00 0.00000E+00 0.00000E+00 0.00000E+00 2.83794E-03 6.90114E-03 2.53745E-02
      810  0.00000E+00 6.96156E-07-2.54839E-05 0.00000E+00 0.00000E+00 0.00000E+00 0.00000E+00 0.00000E+00 0.00000E+00 4.56900E-19 7.46200E-03 2.53745E-02
      852  6.54618E-07 3.48849E-07-2.54839E-05 0.00000E+00 0.00000E+00 0.00000E+00 0.00000E+00 0.00000E+00 0.00000E+00 8.52465E-03 3.48145E-03 2.53745E-02
      854  5.43362E-07 6.25027E-07-2.54839E-05 0.00000E+00 0.00000E+00 0.00000E+00 0.00000E+00 0.00000E+00 0.00000E+00 6.51554E-03 6.50703E-03 2.53745E-02
      856  3.05989E-07 7.86824E-07-2.54839E-05 0.00000E+00 0.00000E+00 0.00000E+00 0.00000E+00 0.00000E+00 0.00000E+00 3.48901E-03 8.52179E-03 2.53745E-02
      858  0.00000E+00 8.45247E-07-2.54839E-05 0.00000E+00 0.00000E+00 0.00000E+00 0.00000E+00 0.00000E+00 0.00000E+00 5.63800E-19 9.20835E-03 2.53745E-02
      864  7.62275E-07 4.05384E-07-2.54839E-05 0.00000E+00 0.00000E+00 0.00000E+00 0.00000E+00 0.00000E+00 0.00000E+00 1.01469E-02 4.12851E-03 2.53745E-02
      866  6.43256E-07 7.43720E-07-2.54839E-05 0.00000E+00 0.00000E+00 0.00000E+00 0.00000E+00 0.00000E+00 0.00000E+00 7.75254E-03 7.73974E-03 2.53745E-02
      868  3.62557E-07 9.47121E-07-2.54839E-05 0.00000E+00 0.00000E+00 0.00000E+00 0.00000E+00 0.00000E+00 0.00000E+00 4.14006E-03 1.01423E-02 2.53745E-02
      870  0.00000E+00 1.02212E-06-2.54839E-05 0.00000E+00 0.00000E+00 0.00000E+00 0.00000E+00 0.00000E+00 0.00000E+00 6.70700E-19 1.09548E-02 2.53745E-02
      880  8.58395E-07 4.52769E-07-2.54839E-05 0.00000E+00 0.00000E+00 0.00000E+00 0.00000E+00 0.00000E+00 0.00000E+00 1.17690E-02 4.77565E-03 2.53745E-02
      882  7.32601E-07 8.62666E-07-2.54839E-05 0.00000E+00 0.00000E+00 0.00000E+00 0.00000E+00 0.00000E+00 0.00000E+00 8.98963E-03 8.97246E-03 2.53745E-02
      884  4.64402E-07 1.25427E-06-2.54839E-05 0.00000E+00 0.00000E+00 0.00000E+00 0.00000E+00 0.00000E+00 0.00000E+00 4.79116E-03 1.17631E-02 2.53745E-02
      886  0.00000E+00 1.46587E-06-2.54839E-05 0.00000E+00 0.00000E+00 0.00000E+00 0.00000E+00 0.00000E+00 0.00000E+00 7.77700E-19 1.27015E-02 2.53745E-02



 n o d a l   p r i n t   o u t   f o r   t i m e  s t e p     175                              ( at time 4.5389257E+00 )

 nodal point  x-disp     y-disp      z-disp      x-vel       y-vel       z-vel      x-accl      y-accl      z-accl      x-coor      y-coor      z-coor
        1  1.06443E-05 0.00000E+00 0.00000E+00 0.00000E+00 0.00000E+00 0.00000E+00 0.00000E+00 0.00000E+00 0.00000E+00 3.18564E-03 0.00000E+00-1.78000E-18
        2  5.41674E-06 0.00000E+00 0.00000E+00 0.00000E+00 0.00000E+00 0.00000E+00 0.00000E+00 0.00000E+00 0.00000E+00 2.38672E-03 0.00000E+00 0.00000E+00
        3  2.62934E-06 0.00000E+00 0.00000E+00 0.00000E+00 0.00000E+00 0.00000E+00 0.00000E+00 0.00000E+00 0.00000E+00 1.59013E-03 0.00000E+00 0.00000E+00
        4  1.23472E-06 0.00000E+00 0.00000E+00 0.00000E+00 0.00000E+00 0.00000E+00 0.00000E+00 0.00000E+00 0.00000E+00 7.94985E-04 0.00000E+00 0.00000E+00
        5  0.00000E+00 0.00000E+00 0.00000E+00 0.00000E+00 0.00000E+00 0.00000E+00 0.00000E+00 0.00000E+00 0.00000E+00 0.00000E+00 0.00000E+00 0.00000E+00
        6  0.00000E+00 1.50012E-06 0.00000E+00 0.00000E+00 0.00000E+00 0.00000E+00 0.00000E+00 0.00000E+00 0.00000E+00 4.86000E-20 7.95250E-04 0.00000E+00
        7  0.00000E+00 3.87607E-06 0.00000E+00 0.00000E+00 0.00000E+00 0.00000E+00 0.00000E+00 0.00000E+00 0.00000E+00 9.72100E-20 1.59138E-03 0.00000E+00
        8  0.00000E+00 7.92662E-06 0.00000E+00 0.00000E+00 0.00000E+00 0.00000E+00 0.00000E+00 0.00000E+00 0.00000E+00 1.45800E-19 2.38923E-03 0.00000E+00
        9  0.00000E+00 1.33722E-05 0.00000E+00 0.00000E+00 0.00000E+00 0.00000E+00 0.00000E+00 0.00000E+00 0.00000E+00 1.94400E-19 3.18837E-03 0.00000E+00
       10  5.86348E-06 1.43174E-05 0.00000E+00 0.00000E+00 0.00000E+00 0.00000E+00 0.00000E+00 0.00000E+00 0.00000E+00 1.22086E-03 2.94762E-03 0.00000E+00
       11  1.21438E-05 1.42053E-05 0.00000E+00 0.00000E+00 0.00000E+00 0.00000E+00 0.00000E+00 0.00000E+00 0.00000E+00 2.25724E-03 2.25931E-03 0.00000E+00
       12  1.58124E-05 9.10438E-06 0.00000E+00 0.00000E+00 0.00000E+00 0.00000E+00 0.00000E+00 0.00000E+00 0.00000E+00 2.94911E-03 1.22410E-03 0.00000E+00
       13  7.20368E-06 7.71854E-06 0.00000E+00 0.00000E+00 0.00000E+00 0.00000E+00 0.00000E+00 0.00000E+00 0.00000E+00 1.31550E-03 1.35962E-03 0.00000E+00
       14  7.63696E-06 4.47478E-06 0.00000E+00 0.00000E+00 0.00000E+00 0.00000E+00 0.00000E+00 0.00000E+00 0.00000E+00 1.49594E-03 7.11452E-04 0.00000E+00
       15  3.36452E-06 5.56822E-06 0.00000E+00 0.00000E+00 0.00000E+00 0.00000E+00 0.00000E+00 0.00000E+00 0.00000E+00 6.72875E-04 1.51257E-03 0.00000E+00
       16  3.46015E-06 2.65716E-06 0.00000E+00 0.00000E+00 0.00000E+00 0.00000E+00 0.00000E+00 0.00000E+00 0.00000E+00 7.57098E-04 7.84994E-04 0.00000E+00
       17  1.02552E-05 9.91678E-06 0.00000E+00 0.00000E+00 0.00000E+00 0.00000E+00 0.00000E+00 0.00000E+00 0.00000E+00 1.74656E-03 1.77742E-03 0.00000E+00
       18  4.86139E-06 9.18530E-06 0.00000E+00 0.00000E+00 0.00000E+00 0.00000E+00 0.00000E+00 0.00000E+00 0.00000E+00 9.24992E-04 2.20029E-03 0.00000E+00
       19  1.17757E-05 5.76361E-06 0.00000E+00 0.00000E+00 0.00000E+00 0.00000E+00 0.00000E+00 0.00000E+00 0.00000E+00 2.17508E-03 9.56622E-04 0.00000E+00
      167  1.12046E-07 9.12145E-07-4.53893E-05 0.00000E+00 0.00000E+00 0.00000E+00 0.00000E+00 0.00000E+00 0.00000E+00 3.12481E-03 3.18161E-03 2.53546E-02
      168  1.12743E-07 5.91745E-07-4.53893E-05 0.00000E+00 0.00000E+00 0.00000E+00 0.00000E+00 0.00000E+00 0.00000E+00 2.35441E-03 2.43329E-03 2.53546E-02
      169 -3.13600E-08 1.07135E-06-4.53893E-05 0.00000E+00 0.00000E+00 0.00000E+00 0.00000E+00 0.00000E+00 0.00000E+00 2.67797E-03 1.27307E-03 2.53546E-02
      170 -1.20774E-07 1.10082E-06-4.53893E-05 0.00000E+00 0.00000E+00 0.00000E+00 0.00000E+00 0.00000E+00 0.00000E+00 3.89268E-03 1.71200E-03 2.53546E-02
      197 -1.01653E-08 4.76431E-07-4.53893E-05 0.00000E+00 0.00000E+00 0.00000E+00 0.00000E+00 0.00000E+00 0.00000E+00 1.20459E-03 2.71208E-03 2.53546E-02
      198 -3.95066E-08 2.96459E-07-4.53893E-05 0.00000E+00 0.00000E+00 0.00000E+00 0.00000E+00 0.00000E+00 0.00000E+00 1.65556E-03 3.94310E-03 2.53546E-02
      225  1.52276E-06 0.00000E+00-4.53893E-05 0.00000E+00 0.00000E+00 0.00000E+00 0.00000E+00 0.00000E+00 0.00000E+00 2.85902E-03 0.00000E+00 2.53546E-02
      226  9.40676E-07 0.00000E+00-4.53893E-05 0.00000E+00 0.00000E+00 0.00000E+00 0.00000E+00 0.00000E+00 0.00000E+00 4.28724E-03 0.00000E+00 2.53546E-02
      279  1.85560E-06 0.00000E+00-4.53893E-05 0.00000E+00 0.00000E+00 0.00000E+00 0.00000E+00 0.00000E+00 0.00000E+00 1.43066E-03 0.00000E+00 2.53546E-02
      280 -2.26108E-08 9.85065E-07-4.53893E-05 0.00000E+00 0.00000E+00 0.00000E+00 0.00000E+00 0.00000E+00 0.00000E+00 1.35618E-03 1.40879E-03 2.53546E-02
      281  0.00000E+00 1.11300E-06-4.53893E-05 0.00000E+00 0.00000E+00 0.00000E+00 0.00000E+00 0.00000E+00 0.00000E+00 8.74900E-20 1.42991E-03 2.53546E-02
      282  0.00000E+00 0.00000E+00-4.53893E-05 0.00000E+00 0.00000E+00 0.00000E+00 0.00000E+00 0.00000E+00 0.00000E+00 0.00000E+00 0.00000E+00 2.53546E-02
      296  0.00000E+00 9.21966E-07-4.53893E-05 0.00000E+00 0.00000E+00 0.00000E+00 0.00000E+00 0.00000E+00 0.00000E+00 1.75000E-19 2.85842E-03 2.53546E-02
      323  2.25999E-07 8.62728E-07-4.53893E-05 0.00000E+00 0.00000E+00 0.00000E+00 0.00000E+00 0.00000E+00 0.00000E+00 4.04133E-03 4.04206E-03 2.53546E-02
      324  8.82159E-08 5.53587E-07-4.53893E-05 0.00000E+00 0.00000E+00 0.00000E+00 0.00000E+00 0.00000E+00 0.00000E+00 2.18679E-03 5.28065E-03 2.53546E-02
      338  2.04199E-07 1.07368E-06-4.53893E-05 0.00000E+00 0.00000E+00 0.00000E+00 0.00000E+00 0.00000E+00 0.00000E+00 5.28020E-03 2.18797E-03 2.53546E-02
      352  0.00000E+00 1.25616E-06-4.53893E-05 0.00000E+00 0.00000E+00 0.00000E+00 0.00000E+00 0.00000E+00 0.00000E+00 2.62500E-19 4.28756E-03 2.53546E-02
      366  4.15856E-07 0.00000E+00-4.53893E-05 0.00000E+00 0.00000E+00 0.00000E+00 0.00000E+00 0.00000E+00 0.00000E+00 5.71542E-03 0.00000E+00 2.53546E-02
      380  0.00000E+00 9.20136E-07-4.53893E-05 0.00000E+00 0.00000E+00 0.00000E+00 0.00000E+00 0.00000E+00 0.00000E+00 3.49900E-19 5.71592E-03 2.53546E-02
      608 -9.45268E-08 0.00000E+00-4.53893E-05 0.00000E+00 0.00000E+00 0.00000E+00 0.00000E+00 0.00000E+00 0.00000E+00 1.26999E-02 0.00000E+00 2.53546E-02
      609  1.41791E-07 0.00000E+00-4.53893E-05 0.00000E+00 0.00000E+00 0.00000E+00 0.00000E+00 0.00000E+00 0.00000E+00 1.09539E-02 0.00000E+00 2.53546E-02
      610  1.92758E-07 0.00000E+00-4.53893E-05 0.00000E+00 0.00000E+00 0.00000E+00 0.00000E+00 0.00000E+00 0.00000E+00 9.20769E-03 0.00000E+00 2.53546E-02
      611  2.26116E-07 0.00000E+00-4.53893E-05 0.00000E+00 0.00000E+00 0.00000E+00 0.00000E+00 0.00000E+00 0.00000E+00 7.46153E-03 0.00000E+00 2.53546E-02
      804  2.85033E-07 1.09593E-06-4.53893E-05 0.00000E+00 0.00000E+00 0.00000E+00 0.00000E+00 0.00000E+00 0.00000E+00 6.90229E-03 2.83510E-03 2.53546E-02
      806  4.54856E-07 1.02110E-06-4.53893E-05 0.00000E+00 0.00000E+00 0.00000E+00 0.00000E+00 0.00000E+00 0.00000E+00 5.27845E-03 5.27482E-03 2.53546E-02
      808  2.72201E-07 8.72001E-07-4.53893E-05 0.00000E+00 0.00000E+00 0.00000E+00 0.00000E+00 0.00000E+00 0.00000E+00 2.83797E-03 6.90137E-03 2.53546E-02
      810  0.00000E+00 1.16736E-06-4.53893E-05 0.00000E+00 0.00000E+00 0.00000E+00 0.00000E+00 0.00000E+00 0.00000E+00 4.56900E-19 7.46247E-03 2.53546E-02
      852  3.87304E-07 1.22548E-06-4.53893E-05 0.00000E+00 0.00000E+00 0.00000E+00 0.00000E+00 0.00000E+00 0.00000E+00 8.52439E-03 3.48233E-03 2.53546E-02
      854  6.04571E-07 1.09066E-06-4.53893E-05 0.00000E+00 0.00000E+00 0.00000E+00 0.00000E+00 0.00000E+00 0.00000E+00 6.51560E-03 6.50749E-03 2.53546E-02
      856  4.45864E-07 1.07960E-06-4.53893E-05 0.00000E+00 0.00000E+00 0.00000E+00 0.00000E+00 0.00000E+00 0.00000E+00 3.48915E-03 8.52208E-03 2.53546E-02
      858  0.00000E+00 1.51485E-06-4.53893E-05 0.00000E+00 0.00000E+00 0.00000E+00 0.00000E+00 0.00000E+00 0.00000E+00 5.63800E-19 9.20901E-03 2.53546E-02
      864  4.74683E-07 1.31829E-06-4.53893E-05 0.00000E+00 0.00000E+00 0.00000E+00 0.00000E+00 0.00000E+00 0.00000E+00 1.01466E-02 4.12942E-03 2.53546E-02
      866  8.11589E-07 1.17732E-06-4.53893E-05 0.00000E+00 0.00000E+00 0.00000E+00 0.00000E+00 0.00000E+00 0.00000E+00 7.75271E-03 7.74018E-03 2.53546E-02
      868  4.82714E-07 1.21870E-06-4.53893E-05 0.00000E+00 0.00000E+00 0.00000E+00 0.00000E+00 0.00000E+00 0.00000E+00 4.14018E-03 1.01426E-02 2.53546E-02
      870  0.00000E+00 1.99200E-06-4.53893E-05 0.00000E+00 0.00000E+00 0.00000E+00 0.00000E+00 0.00000E+00 0.00000E+00 6.70700E-19 1.09558E-02 2.53546E-02
      880  2.63027E-07 1.13970E-06-4.53893E-05 0.00000E+00 0.00000E+00 0.00000E+00 0.00000E+00 0.00000E+00 0.00000E+00 1.17684E-02 4.77634E-03 2.53546E-02
      882  6.92846E-07 1.17192E-06-4.53893E-05 0.00000E+00 0.00000E+00 0.00000E+00 0.00000E+00 0.00000E+00 0.00000E+00 8.98959E-03 8.97277E-03 2.53546E-02
      884  6.56811E-07 2.02995E-06-4.53893E-05 0.00000E+00 0.00000E+00 0.00000E+00 0.00000E+00 0.00000E+00 0.00000E+00 4.79136E-03 1.17638E-02 2.53546E-02
      886  0.00000E+00 2.81032E-06-4.53893E-05 0.00000E+00 0.00000E+00 0.00000E+00 0.00000E+00 0.00000E+00 0.00000E+00 7.77700E-19 1.27028E-02 2.53546E-02



 n o d a l   p r i n t   o u t   f o r   t i m e  s t e p     181                              ( at time 6.5294615E+00 )

 nodal point  x-disp     y-disp      z-disp      x-vel       y-vel       z-vel      x-accl      y-accl      z-accl      x-coor      y-coor      z-coor
        1  2.53177E-05 0.00000E+00 0.00000E+00 0.00000E+00 0.00000E+00 0.00000E+00 0.00000E+00 0.00000E+00 0.00000E+00 3.20032E-03 0.00000E+00-1.78000E-18
        2  1.55199E-05 0.00000E+00 0.00000E+00 0.00000E+00 0.00000E+00 0.00000E+00 0.00000E+00 0.00000E+00 0.00000E+00 2.39682E-03 0.00000E+00 0.00000E+00
        3  8.98966E-06 0.00000E+00 0.00000E+00 0.00000E+00 0.00000E+00 0.00000E+00 0.00000E+00 0.00000E+00 0.00000E+00 1.59649E-03 0.00000E+00 0.00000E+00
        4  4.44536E-06 0.00000E+00 0.00000E+00 0.00000E+00 0.00000E+00 0.00000E+00 0.00000E+00 0.00000E+00 0.00000E+00 7.98195E-04 0.00000E+00 0.00000E+00
        5  0.00000E+00 0.00000E+00 0.00000E+00 0.00000E+00 0.00000E+00 0.00000E+00 0.00000E+00 0.00000E+00 0.00000E+00 0.00000E+00 0.00000E+00 0.00000E+00
        6  0.00000E+00 4.61747E-06 0.00000E+00 0.00000E+00 0.00000E+00 0.00000E+00 0.00000E+00 0.00000E+00 0.00000E+00 4.86000E-20 7.98367E-04 0.00000E+00
        7  0.00000E+00 1.05356E-05 0.00000E+00 0.00000E+00 0.00000E+00 0.00000E+00 0.00000E+00 0.00000E+00 0.00000E+00 9.72100E-20 1.59804E-03 0.00000E+00
        8  0.00000E+00 1.89929E-05 0.00000E+00 0.00000E+00 0.00000E+00 0.00000E+00 0.00000E+00 0.00000E+00 0.00000E+00 1.45800E-19 2.40029E-03 0.00000E+00
        9  0.00000E+00 2.90236E-05 0.00000E+00 0.00000E+00 0.00000E+00 0.00000E+00 0.00000E+00 0.00000E+00 0.00000E+00 1.94400E-19 3.20402E-03 0.00000E+00
       10  1.27277E-05 2.94881E-05 0.00000E+00 0.00000E+00 0.00000E+00 0.00000E+00 0.00000E+00 0.00000E+00 0.00000E+00 1.22773E-03 2.96279E-03 0.00000E+00
       11  2.41315E-05 2.65056E-05 0.00000E+00 0.00000E+00 0.00000E+00 0.00000E+00 0.00000E+00 0.00000E+00 0.00000E+00 2.26923E-03 2.27161E-03 0.00000E+00
       12  3.07738E-05 1.63410E-05 0.00000E+00 0.00000E+00 0.00000E+00 0.00000E+00 0.00000E+00 0.00000E+00 0.00000E+00 2.96407E-03 1.23134E-03 0.00000E+00
       13  1.50184E-05 1.53387E-05 0.00000E+00 0.00000E+00 0.00000E+00 0.00000E+00 0.00000E+00 0.00000E+00 0.00000E+00 1.32332E-03 1.36724E-03 0.00000E+00
       14  1.58316E-05 8.81224E-06 0.00000E+00 0.00000E+00 0.00000E+00 0.00000E+00 0.00000E+00 0.00000E+00 0.00000E+00 1.50413E-03 7.15789E-04 0.00000E+00
       15  7.47427E-06 1.30504E-05 0.00000E+00 0.00000E+00 0.00000E+00 0.00000E+00 0.00000E+00 0.00000E+00 0.00000E+00 6.76985E-04 1.52005E-03 0.00000E+00
       16  7.59976E-06 6.50889E-06 0.00000E+00 0.00000E+00 0.00000E+00 0.00000E+00 0.00000E+00 0.00000E+00 0.00000E+00 7.61237E-04 7.88846E-04 0.00000E+00
       17  2.04569E-05 1.96674E-05 0.00000E+00 0.00000E+00 0.00000E+00 0.00000E+00 0.00000E+00 0.00000E+00 0.00000E+00 1.75676E-03 1.78717E-03 0.00000E+00
       18  1.04890E-05 2.03894E-05 0.00000E+00 0.00000E+00 0.00000E+00 0.00000E+00 0.00000E+00 0.00000E+00 0.00000E+00 9.30620E-04 2.21149E-03 0.00000E+00
       19  2.34401E-05 1.11728E-05 0.00000E+00 0.00000E+00 0.00000E+00 0.00000E+00 0.00000E+00 0.00000E+00 0.00000E+00 2.18674E-03 9.62031E-04 0.00000E+00
      167  1.07607E-07 9.32592E-07-6.52946E-05 0.00000E+00 0.00000E+00 0.00000E+00 0.00000E+00 0.00000E+00 0.00000E+00 3.12481E-03 3.18163E-03 2.53347E-02
      168  1.43781E-07 6.16759E-07-6.52946E-05 0.00000E+00 0.00000E+00 0.00000E+00 0.00000E+00 0.00000E+00 0.00000E+00 2.35444E-03 2.43332E-03 2.53347E-02
      169 -8.51997E-08 1.12395E-06-6.52946E-05 0.00000E+00 0.00000E+00 0.00000E+00 0.00000E+00 0.00000E+00 0.00000E+00 2.67791E-03 1.27312E-03 2.53347E-02
      170 -1.42467E-07 1.16448E-06-6.52946E-05 0.00000E+00 0.00000E+00 0.00000E+00 0.00000E+00 0.00000E+00 0.00000E+00 3.89266E-03 1.71206E-03 2.53347E-02
      197  2.37432E-08 5.63393E-07-6.52946E-05 0.00000E+00 0.00000E+00 0.00000E+00 0.00000E+00 0.00000E+00 0.00000E+00 1.20462E-03 2.71216E-03 2.53347E-02
      198 -2.61211E-08 4.14551E-07-6.52946E-05 0.00000E+00 0.00000E+00 0.00000E+00 0.00000E+00 0.00000E+00 0.00000E+00 1.65557E-03 3.94321E-03 2.53347E-02
      225  1.76354E-06 0.00000E+00-6.52946E-05 0.00000E+00 0.00000E+00 0.00000E+00 0.00000E+00 0.00000E+00 0.00000E+00 2.85926E-03 0.00000E+00 2.53347E-02
      226  1.00520E-06 0.00000E+00-6.52946E-05 0.00000E+00 0.00000E+00 0.00000E+00 0.00000E+00 0.00000E+00 0.00000E+00 4.28731E-03 0.00000E+00 2.53347E-02
      279  2.05480E-06 0.00000E+00-6.52946E-05 0.00000E+00 0.00000E+00 0.00000E+00 0.00000E+00 0.00000E+00 0.00000E+00 1.43085E-03 0.00000E+00 2.53347E-02
      280 -2.69086E-08 9.47769E-07-6.52946E-05 0.00000E+00 0.00000E+00 0.00000E+00 0.00000E+00 0.00000E+00 0.00000E+00 1.35617E-03 1.40875E-03 2.53347E-02
      281  0.00000E+00 1.14427E-06-6.52946E-05 0.00000E+00 0.00000E+00 0.00000E+00 0.00000E+00 0.00000E+00 0.00000E+00 8.74900E-20 1.42994E-03 2.53347E-02
      282  0.00000E+00 0.00000E+00-6.52946E-05 0.00000E+00 0.00000E+00 0.00000E+00 0.00000E+00 0.00000E+00 0.00000E+00 0.00000E+00 0.00000E+00 2.53347E-02
      296  0.00000E+00 9.83503E-07-6.52946E-05 0.00000E+00 0.00000E+00 0.00000E+00 0.00000E+00 0.00000E+00 0.00000E+00 1.75000E-19 2.85848E-03 2.53347E-02
      323  2.20653E-07 8.93359E-07-6.52946E-05 0.00000E+00 0.00000E+00 0.00000E+00 0.00000E+00 0.00000E+00 0.00000E+00 4.04132E-03 4.04209E-03 2.53347E-02
      324  7.88808E-08 6.15140E-07-6.52946E-05 0.00000E+00 0.00000E+00 0.00000E+00 0.00000E+00 0.00000E+00 0.00000E+00 2.18678E-03 5.28072E-03 2.53347E-02
      338  2.08368E-07 1.09547E-06-6.52946E-05 0.00000E+00 0.00000E+00 0.00000E+00 0.00000E+00 0.00000E+00 0.00000E+00 5.28021E-03 2.18800E-03 2.53347E-02
      352  0.00000E+00 1.36487E-06-6.52946E-05 0.00000E+00 0.00000E+00 0.00000E+00 0.00000E+00 0.00000E+00 0.00000E+00 2.62500E-19 4.28766E-03 2.53347E-02
      366  4.29155E-07 0.00000E+00-6.52946E-05 0.00000E+00 0.00000E+00 0.00000E+00 0.00000E+00 0.00000E+00 0.00000E+00 5.71543E-03 0.00000E+00 2.53347E-02
      380  0.00000E+00 1.06736E-06-6.52946E-05 0.00000E+00 0.00000E+00 0.00000E+00 0.00000E+00 0.00000E+00 0.00000E+00 3.49900E-19 5.71607E-03 2.53347E-02
      608 -1.34536E-07 0.00000E+00-6.52946E-05 0.00000E+00 0.00000E+00 0.00000E+00 0.00000E+00 0.00000E+00 0.00000E+00 1.26999E-02 0.00000E+00 2.53347E-02
      609  1.22501E-07 0.00000E+00-6.52946E-05 0.00000E+00 0.00000E+00 0.00000E+00 0.00000E+00 0.00000E+00 0.00000E+00 1.09539E-02 0.00000E+00 2.53347E-02
      610  1.81998E-07 0.00000E+00-6.52946E-05 0.00000E+00 0.00000E+00 0.00000E+00 0.00000E+00 0.00000E+00 0.00000E+00 9.20768E-03 0.00000E+00 2.53347E-02
      611  2.26364E-07 0.00000E+00-6.52946E-05 0.00000E+00 0.00000E+00 0.00000E+00 0.00000E+00 0.00000E+00 0.00000E+00 7.46153E-03 0.00000E+00 2.53347E-02
      804  2.91736E-07 1.10594E-06-6.52946E-05 0.00000E+00 0.00000E+00 0.00000E+00 0.00000E+00 0.00000E+00 0.00000E+00 6.90229E-03 2.83511E-03 2.53347E-02
      806  4.49368E-07 1.04502E-06-6.52946E-05 0.00000E+00 0.00000E+00 0.00000E+00 0.00000E+00 0.00000E+00 0.00000E+00 5.27845E-03 5.27485E-03 2.53347E-02
      808  2.67529E-07 9.12251E-07-6.52946E-05 0.00000E+00 0.00000E+00 0.00000E+00 0.00000E+00 0.00000E+00 0.00000E+00 2.83797E-03 6.90141E-03 2.53347E-02
      810  0.00000E+00 1.29987E-06-6.52946E-05 0.00000E+00 0.00000E+00 0.00000E+00 0.00000E+00 0.00000E+00 0.00000E+00 4.56900E-19 7.46260E-03 2.53347E-02
      852  3.89043E-07 1.23942E-06-6.52946E-05 0.00000E+00 0.00000E+00 0.00000E+00 0.00000E+00 0.00000E+00 0.00000E+00 8.52439E-03 3.48234E-03 2.53347E-02
      854  6.04183E-07 1.13038E-06-6.52946E-05 0.00000E+00 0.00000E+00 0.00000E+00 0.00000E+00 0.00000E+00 0.00000E+00 6.51560E-03 6.50753E-03 2.53347E-02
      856  4.43567E-07 1.11092E-06-6.52946E-05 0.00000E+00 0.00000E+00 0.00000E+00 0.00000E+00 0.00000E+00 0.00000E+00 3.48914E-03 8.52211E-03 2.53347E-02
      858  0.00000E+00 1.65784E-06-6.52946E-05 0.00000E+00 0.00000E+00 0.00000E+00 0.00000E+00 0.00000E+00 0.00000E+00 5.63800E-19 9.20916E-03 2.53347E-02
      864  4.70271E-07 1.33196E-06-6.52946E-05 0.00000E+00 0.00000E+00 0.00000E+00 0.00000E+00 0.00000E+00 0.00000E+00 1.01466E-02 4.12943E-03 2.53347E-02
      866  8.16659E-07 1.23685E-06-6.52946E-05 0.00000E+00 0.00000E+00 0.00000E+00 0.00000E+00 0.00000E+00 0.00000E+00 7.75272E-03 7.74024E-03 2.53347E-02
      868  4.79203E-07 1.28104E-06-6.52946E-05 0.00000E+00 0.00000E+00 0.00000E+00 0.00000E+00 0.00000E+00 0.00000E+00 4.14018E-03 1.01427E-02 2.53347E-02
      870  0.00000E+00 2.14425E-06-6.52946E-05 0.00000E+00 0.00000E+00 0.00000E+00 0.00000E+00 0.00000E+00 0.00000E+00 6.70700E-19 1.09559E-02 2.53347E-02
      880  2.36264E-07 1.14750E-06-6.52946E-05 0.00000E+00 0.00000E+00 0.00000E+00 0.00000E+00 0.00000E+00 0.00000E+00 1.17683E-02 4.77635E-03 2.53347E-02
      882  6.92207E-07 1.22484E-06-6.52946E-05 0.00000E+00 0.00000E+00 0.00000E+00 0.00000E+00 0.00000E+00 0.00000E+00 8.98959E-03 8.97282E-03 2.53347E-02
      884  6.85705E-07 2.14265E-06-6.52946E-05 0.00000E+00 0.00000E+00 0.00000E+00 0.00000E+00 0.00000E+00 0.00000E+00 4.79139E-03 1.17639E-02 2.53347E-02
      886  0.00000E+00 2.94723E-06-6.52946E-05 0.00000E+00 0.00000E+00 0.00000E+00 0.00000E+00 0.00000E+00 0.00000E+00 7.77700E-19 1.27029E-02 2.53347E-02



 n o d a l   p r i n t   o u t   f o r   t i m e  s t e p     187                              ( at time 9.6842482E+00 )

 nodal point  x-disp     y-disp      z-disp      x-vel       y-vel       z-vel      x-accl      y-accl      z-accl      x-coor      y-coor      z-coor
        1  4.70415E-05 0.00000E+00 0.00000E+00 0.00000E+00 0.00000E+00 0.00000E+00 0.00000E+00 0.00000E+00 0.00000E+00 3.22204E-03 0.00000E+00-1.78000E-18
        2  3.05775E-05 0.00000E+00 0.00000E+00 0.00000E+00 0.00000E+00 0.00000E+00 0.00000E+00 0.00000E+00 0.00000E+00 2.41188E-03 0.00000E+00 0.00000E+00
        3  1.85055E-05 0.00000E+00 0.00000E+00 0.00000E+00 0.00000E+00 0.00000E+00 0.00000E+00 0.00000E+00 0.00000E+00 1.60601E-03 0.00000E+00 0.00000E+00
        4  9.19402E-06 0.00000E+00 0.00000E+00 0.00000E+00 0.00000E+00 0.00000E+00 0.00000E+00 0.00000E+00 0.00000E+00 8.02944E-04 0.00000E+00 0.00000E+00
        5  0.00000E+00 0.00000E+00 0.00000E+00 0.00000E+00 0.00000E+00 0.00000E+00 0.00000E+00 0.00000E+00 0.00000E+00 0.00000E+00 0.00000E+00 0.00000E+00
        6  0.00000E+00 9.70112E-06 0.00000E+00 0.00000E+00 0.00000E+00 0.00000E+00 0.00000E+00 0.00000E+00 0.00000E+00 4.86000E-20 8.03451E-04 0.00000E+00
        7  0.00000E+00 2.09255E-05 0.00000E+00 0.00000E+00 0.00000E+00 0.00000E+00 0.00000E+00 0.00000E+00 0.00000E+00 9.72100E-20 1.60843E-03 0.00000E+00
        8  0.00000E+00 3.52290E-05 0.00000E+00 0.00000E+00 0.00000E+00 0.00000E+00 0.00000E+00 0.00000E+00 0.00000E+00 1.45800E-19 2.41653E-03 0.00000E+00
        9  0.00000E+00 5.14630E-05 0.00000E+00 0.00000E+00 0.00000E+00 0.00000E+00 0.00000E+00 0.00000E+00 0.00000E+00 1.94400E-19 3.22646E-03 0.00000E+00
       10  2.20638E-05 5.11908E-05 0.00000E+00 0.00000E+00 0.00000E+00 0.00000E+00 0.00000E+00 0.00000E+00 0.00000E+00 1.23706E-03 2.98449E-03 0.00000E+00
       11  4.07061E-05 4.37986E-05 0.00000E+00 0.00000E+00 0.00000E+00 0.00000E+00 0.00000E+00 0.00000E+00 0.00000E+00 2.28581E-03 2.28890E-03 0.00000E+00
       12  5.20714E-05 2.63379E-05 0.00000E+00 0.00000E+00 0.00000E+00 0.00000E+00 0.00000E+00 0.00000E+00 0.00000E+00 2.98537E-03 1.24134E-03 0.00000E+00
       13  2.58159E-05 2.59866E-05 0.00000E+00 0.00000E+00 0.00000E+00 0.00000E+00 0.00000E+00 0.00000E+00 0.00000E+00 1.33412E-03 1.37789E-03 0.00000E+00
       14  2.73450E-05 1.48179E-05 0.00000E+00 0.00000E+00 0.00000E+00 0.00000E+00 0.00000E+00 0.00000E+00 0.00000E+00 1.51565E-03 7.21795E-04 0.00000E+00
       15  1.32068E-05 2.42577E-05 0.00000E+00 0.00000E+00 0.00000E+00 0.00000E+00 0.00000E+00 0.00000E+00 0.00000E+00 6.82717E-04 1.53126E-03 0.00000E+00
       16  1.34526E-05 1.24401E-05 0.00000E+00 0.00000E+00 0.00000E+00 0.00000E+00 0.00000E+00 0.00000E+00 0.00000E+00 7.67090E-04 7.94777E-04 0.00000E+00
       17  3.44194E-05 3.33973E-05 0.00000E+00 0.00000E+00 0.00000E+00 0.00000E+00 0.00000E+00 0.00000E+00 0.00000E+00 1.77072E-03 1.80090E-03 0.00000E+00
       18  1.81933E-05 3.66561E-05 0.00000E+00 0.00000E+00 0.00000E+00 0.00000E+00 0.00000E+00 0.00000E+00 0.00000E+00 9.38324E-04 2.22776E-03 0.00000E+00
       19  3.97968E-05 1.87245E-05 0.00000E+00 0.00000E+00 0.00000E+00 0.00000E+00 0.00000E+00 0.00000E+00 0.00000E+00 2.20310E-03 9.69583E-04 0.00000E+00
      167  1.46966E-07 1.03657E-06-9.68425E-05 0.00000E+00 0.00000E+00 0.00000E+00 0.00000E+00 0.00000E+00 0.00000E+00 3.12485E-03 3.18174E-03 2.53032E-02
      168  1.75396E-07 6.63541E-07-9.68425E-05 0.00000E+00 0.00000E+00 0.00000E+00 0.00000E+00 0.00000E+00 0.00000E+00 2.35448E-03 2.43336E-03 2.53032E-02
      169 -1.22085E-07 1.21419E-06-9.68425E-05 0.00000E+00 0.00000E+00 0.00000E+00 0.00000E+00 0.00000E+00 0.00000E+00 2.67788E-03 1.27321E-03 2.53032E-02
      170 -1.65575E-07 1.24001E-06-9.68425E-05 0.00000E+00 0.00000E+00 0.00000E+00 0.00000E+00 0.00000E+00 0.00000E+00 3.89263E-03 1.71214E-03 2.53032E-02
      197  5.85856E-08 6.71749E-07-9.68425E-05 0.00000E+00 0.00000E+00 0.00000E+00 0.00000E+00 0.00000E+00 0.00000E+00 1.20466E-03 2.71227E-03 2.53032E-02
      198 -4.99812E-09 4.96976E-07-9.68425E-05 0.00000E+00 0.00000E+00 0.00000E+00 0.00000E+00 0.00000E+00 0.00000E+00 1.65560E-03 3.94330E-03 2.53032E-02
      225  2.11033E-06 0.00000E+00-9.68425E-05 0.00000E+00 0.00000E+00 0.00000E+00 0.00000E+00 0.00000E+00 0.00000E+00 2.85961E-03 0.00000E+00 2.53032E-02
      226  1.15975E-06 0.00000E+00-9.68425E-05 0.00000E+00 0.00000E+00 0.00000E+00 0.00000E+00 0.00000E+00 0.00000E+00 4.28746E-03 0.00000E+00 2.53032E-02
      279  2.42091E-06 0.00000E+00-9.68425E-05 0.00000E+00 0.00000E+00 0.00000E+00 0.00000E+00 0.00000E+00 0.00000E+00 1.43122E-03 0.00000E+00 2.53032E-02
      280 -1.93210E-08 9.89120E-07-9.68425E-05 0.00000E+00 0.00000E+00 0.00000E+00 0.00000E+00 0.00000E+00 0.00000E+00 1.35618E-03 1.40879E-03 2.53032E-02
      281  0.00000E+00 1.41766E-06-9.68425E-05 0.00000E+00 0.00000E+00 0.00000E+00 0.00000E+00 0.00000E+00 0.00000E+00 8.74900E-20 1.43022E-03 2.53032E-02
      282  0.00000E+00 0.00000E+00-9.68425E-05 0.00000E+00 0.00000E+00 0.00000E+00 0.00000E+00 0.00000E+00 0.00000E+00 0.00000E+00 0.00000E+00 2.53032E-02
      296  0.00000E+00 1.19597E-06-9.68425E-05 0.00000E+00 0.00000E+00 0.00000E+00 0.00000E+00 0.00000E+00 0.00000E+00 1.75000E-19 2.85870E-03 2.53032E-02
      323  2.52110E-07 9.99711E-07-9.68425E-05 0.00000E+00 0.00000E+00 0.00000E+00 0.00000E+00 0.00000E+00 0.00000E+00 4.04135E-03 4.04220E-03 2.53032E-02
      324  9.18476E-08 6.97692E-07-9.68425E-05 0.00000E+00 0.00000E+00 0.00000E+00 0.00000E+00 0.00000E+00 0.00000E+00 2.18679E-03 5.28080E-03 2.53032E-02
      338  2.34213E-07 1.19061E-06-9.68425E-05 0.00000E+00 0.00000E+00 0.00000E+00 0.00000E+00 0.00000E+00 0.00000E+00 5.28023E-03 2.18809E-03 2.53032E-02
      352  0.00000E+00 1.56208E-06-9.68425E-05 0.00000E+00 0.00000E+00 0.00000E+00 0.00000E+00 0.00000E+00 0.00000E+00 2.62500E-19 4.28786E-03 2.53032E-02
      366  5.11351E-07 0.00000E+00-9.68425E-05 0.00000E+00 0.00000E+00 0.00000E+00 0.00000E+00 0.00000E+00 0.00000E+00 5.71551E-03 0.00000E+00 2.53032E-02
      380  0.00000E+00 1.24638E-06-9.68425E-05 0.00000E+00 0.00000E+00 0.00000E+00 0.00000E+00 0.00000E+00 0.00000E+00 3.49900E-19 5.71625E-03 2.53032E-02
      608 -1.30555E-07 0.00000E+00-9.68425E-05 0.00000E+00 0.00000E+00 0.00000E+00 0.00000E+00 0.00000E+00 0.00000E+00 1.26999E-02 0.00000E+00 2.53032E-02
      609  1.43504E-07 0.00000E+00-9.68425E-05 0.00000E+00 0.00000E+00 0.00000E+00 0.00000E+00 0.00000E+00 0.00000E+00 1.09539E-02 0.00000E+00 2.53032E-02
      610  2.07006E-07 0.00000E+00-9.68425E-05 0.00000E+00 0.00000E+00 0.00000E+00 0.00000E+00 0.00000E+00 0.00000E+00 9.20771E-03 0.00000E+00 2.53032E-02
      611  2.67166E-07 0.00000E+00-9.68425E-05 0.00000E+00 0.00000E+00 0.00000E+00 0.00000E+00 0.00000E+00 0.00000E+00 7.46157E-03 0.00000E+00 2.53032E-02
      804  3.27509E-07 1.20123E-06-9.68425E-05 0.00000E+00 0.00000E+00 0.00000E+00 0.00000E+00 0.00000E+00 0.00000E+00 6.90233E-03 2.83520E-03 2.53032E-02
      806  4.96304E-07 1.15712E-06-9.68425E-05 0.00000E+00 0.00000E+00 0.00000E+00 0.00000E+00 0.00000E+00 0.00000E+00 5.27850E-03 5.27496E-03 2.53032E-02
      808  2.96690E-07 1.00750E-06-9.68425E-05 0.00000E+00 0.00000E+00 0.00000E+00 0.00000E+00 0.00000E+00 0.00000E+00 2.83800E-03 6.90151E-03 2.53032E-02
      810  0.00000E+00 1.51099E-06-9.68425E-05 0.00000E+00 0.00000E+00 0.00000E+00 0.00000E+00 0.00000E+00 0.00000E+00 4.56900E-19 7.46281E-03 2.53032E-02
      852  4.31201E-07 1.33811E-06-9.68425E-05 0.00000E+00 0.00000E+00 0.00000E+00 0.00000E+00 0.00000E+00 0.00000E+00 8.52443E-03 3.48244E-03 2.53032E-02
      854  6.69946E-07 1.25758E-06-9.68425E-05 0.00000E+00 0.00000E+00 0.00000E+00 0.00000E+00 0.00000E+00 0.00000E+00 6.51567E-03 6.50766E-03 2.53032E-02
      856  4.78339E-07 1.21899E-06-9.68425E-05 0.00000E+00 0.00000E+00 0.00000E+00 0.00000E+00 0.00000E+00 0.00000E+00 3.48918E-03 8.52222E-03 2.53032E-02
      858  0.00000E+00 1.90461E-06-9.68425E-05 0.00000E+00 0.00000E+00 0.00000E+00 0.00000E+00 0.00000E+00 0.00000E+00 5.63800E-19 9.20940E-03 2.53032E-02
      864  5.20418E-07 1.43588E-06-9.68425E-05 0.00000E+00 0.00000E+00 0.00000E+00 0.00000E+00 0.00000E+00 0.00000E+00 1.01466E-02 4.12954E-03 2.53032E-02
      866  9.06731E-07 1.37165E-06-9.68425E-05 0.00000E+00 0.00000E+00 0.00000E+00 0.00000E+00 0.00000E+00 0.00000E+00 7.75281E-03 7.74037E-03 2.53032E-02
      868  5.13411E-07 1.44167E-06-9.68425E-05 0.00000E+00 0.00000E+00 0.00000E+00 0.00000E+00 0.00000E+00 0.00000E+00 4.14021E-03 1.01428E-02 2.53032E-02
      870  0.00000E+00 2.38331E-06-9.68425E-05 0.00000E+00 0.00000E+00 0.00000E+00 0.00000E+00 0.00000E+00 0.00000E+00 6.70700E-19 1.09562E-02 2.53032E-02
      880  2.77683E-07 1.23847E-06-9.68425E-05 0.00000E+00 0.00000E+00 0.00000E+00 0.00000E+00 0.00000E+00 0.00000E+00 1.17684E-02 4.77644E-03 2.53032E-02
      882  7.72085E-07 1.37001E-06-9.68425E-05 0.00000E+00 0.00000E+00 0.00000E+00 0.00000E+00 0.00000E+00 0.00000E+00 8.98967E-03 8.97297E-03 2.53032E-02
      884  7.73722E-07 2.32993E-06-9.68425E-05 0.00000E+00 0.00000E+00 0.00000E+00 0.00000E+00 0.00000E+00 0.00000E+00 4.79147E-03 1.17641E-02 2.53032E-02
      886  0.00000E+00 3.13321E-06-9.68425E-05 0.00000E+00 0.00000E+00 0.00000E+00 0.00000E+00 0.00000E+00 0.00000E+00 7.77700E-19 1.27031E-02 2.53032E-02



 n o d a l   p r i n t   o u t   f o r   t i m e  s t e p     195                              ( at time 1.4684248E+01 )

 nodal point  x-disp     y-disp      z-disp      x-vel       y-vel       z-vel      x-accl      y-accl      z-accl      x-coor      y-coor      z-coor
        1  7.99314E-05 0.00000E+00 0.00000E+00 0.00000E+00 0.00000E+00 0.00000E+00 0.00000E+00 0.00000E+00 0.00000E+00 3.25493E-03 0.00000E+00-1.78000E-18
        2  5.35064E-05 0.00000E+00 0.00000E+00 0.00000E+00 0.00000E+00 0.00000E+00 0.00000E+00 0.00000E+00 0.00000E+00 2.43481E-03 0.00000E+00 0.00000E+00
        3  3.33685E-05 0.00000E+00 0.00000E+00 0.00000E+00 0.00000E+00 0.00000E+00 0.00000E+00 0.00000E+00 0.00000E+00 1.62087E-03 0.00000E+00 0.00000E+00
        4  1.64798E-05 0.00000E+00 0.00000E+00 0.00000E+00 0.00000E+00 0.00000E+00 0.00000E+00 0.00000E+00 0.00000E+00 8.10230E-04 0.00000E+00 0.00000E+00
        5  0.00000E+00 0.00000E+00 0.00000E+00 0.00000E+00 0.00000E+00 0.00000E+00 0.00000E+00 0.00000E+00 0.00000E+00 0.00000E+00 0.00000E+00 0.00000E+00
        6  0.00000E+00 1.77062E-05 0.00000E+00 0.00000E+00 0.00000E+00 0.00000E+00 0.00000E+00 0.00000E+00 0.00000E+00 4.86000E-20 8.11456E-04 0.00000E+00
        7  0.00000E+00 3.68454E-05 0.00000E+00 0.00000E+00 0.00000E+00 0.00000E+00 0.00000E+00 0.00000E+00 0.00000E+00 9.72100E-20 1.62435E-03 0.00000E+00
        8  0.00000E+00 5.92406E-05 0.00000E+00 0.00000E+00 0.00000E+00 0.00000E+00 0.00000E+00 0.00000E+00 0.00000E+00 1.45800E-19 2.44054E-03 0.00000E+00
        9  0.00000E+00 8.46450E-05 0.00000E+00 0.00000E+00 0.00000E+00 0.00000E+00 0.00000E+00 0.00000E+00 0.00000E+00 1.94400E-19 3.25965E-03 0.00000E+00
       10  3.54469E-05 8.35850E-05 0.00000E+00 0.00000E+00 0.00000E+00 0.00000E+00 0.00000E+00 0.00000E+00 0.00000E+00 1.25045E-03 3.01688E-03 0.00000E+00
       11  6.48697E-05 6.89931E-05 0.00000E+00 0.00000E+00 0.00000E+00 0.00000E+00 0.00000E+00 0.00000E+00 0.00000E+00 2.30997E-03 2.31409E-03 0.00000E+00
       12  8.32909E-05 4.07539E-05 0.00000E+00 0.00000E+00 0.00000E+00 0.00000E+00 0.00000E+00 0.00000E+00 0.00000E+00 3.01659E-03 1.25575E-03 0.00000E+00
       13  4.18695E-05 4.15652E-05 0.00000E+00 0.00000E+00 0.00000E+00 0.00000E+00 0.00000E+00 0.00000E+00 0.00000E+00 1.35017E-03 1.39347E-03 0.00000E+00
       14  4.44165E-05 2.38532E-05 0.00000E+00 0.00000E+00 0.00000E+00 0.00000E+00 0.00000E+00 0.00000E+00 0.00000E+00 1.53272E-03 7.30830E-04 0.00000E+00
       15  2.21008E-05 4.14192E-05 0.00000E+00 0.00000E+00 0.00000E+00 0.00000E+00 0.00000E+00 0.00000E+00 0.00000E+00 6.91611E-04 1.54842E-03 0.00000E+00
       16  2.23615E-05 2.17740E-05 0.00000E+00 0.00000E+00 0.00000E+00 0.00000E+00 0.00000E+00 0.00000E+00 0.00000E+00 7.75999E-04 8.04111E-04 0.00000E+00
       17  5.49487E-05 5.37934E-05 0.00000E+00 0.00000E+00 0.00000E+00 0.00000E+00 0.00000E+00 0.00000E+00 0.00000E+00 1.79125E-03 1.82129E-03 0.00000E+00
       18  2.97210E-05 6.11499E-05 0.00000E+00 0.00000E+00 0.00000E+00 0.00000E+00 0.00000E+00 0.00000E+00 0.00000E+00 9.49852E-04 2.25225E-03 0.00000E+00
       19  6.41135E-05 3.03726E-05 0.00000E+00 0.00000E+00 0.00000E+00 0.00000E+00 0.00000E+00 0.00000E+00 0.00000E+00 2.22741E-03 9.81231E-04 0.00000E+00
      167  2.49914E-07 1.23019E-06-1.46842E-04 0.00000E+00 0.00000E+00 0.00000E+00 0.00000E+00 0.00000E+00 0.00000E+00 3.12495E-03 3.18193E-03 2.52532E-02
      168  2.89235E-07 7.64035E-07-1.46842E-04 0.00000E+00 0.00000E+00 0.00000E+00 0.00000E+00 0.00000E+00 0.00000E+00 2.35459E-03 2.43346E-03 2.52532E-02
      169 -4.36988E-07 1.58706E-06-1.46842E-04 0.00000E+00 0.00000E+00 0.00000E+00 0.00000E+00 0.00000E+00 0.00000E+00 2.67756E-03 1.27359E-03 2.52532E-02
      170 -1.18643E-07 1.39927E-06-1.46842E-04 0.00000E+00 0.00000E+00 0.00000E+00 0.00000E+00 0.00000E+00 0.00000E+00 3.89268E-03 1.71230E-03 2.52532E-02
      197  1.24953E-07 9.77730E-07-1.46842E-04 0.00000E+00 0.00000E+00 0.00000E+00 0.00000E+00 0.00000E+00 0.00000E+00 1.20472E-03 2.71258E-03 2.52532E-02
      198  5.95412E-08 6.90951E-07-1.46842E-04 0.00000E+00 0.00000E+00 0.00000E+00 0.00000E+00 0.00000E+00 0.00000E+00 1.65566E-03 3.94349E-03 2.52532E-02
      225  3.24188E-06 0.00000E+00-1.46842E-04 0.00000E+00 0.00000E+00 0.00000E+00 0.00000E+00 0.00000E+00 0.00000E+00 2.86074E-03 0.00000E+00 2.52532E-02
      226  1.50793E-06 0.00000E+00-1.46842E-04 0.00000E+00 0.00000E+00 0.00000E+00 0.00000E+00 0.00000E+00 0.00000E+00 4.28781E-03 0.00000E+00 2.52532E-02
      279  3.40682E-06 0.00000E+00-1.46842E-04 0.00000E+00 0.00000E+00 0.00000E+00 0.00000E+00 0.00000E+00 0.00000E+00 1.43221E-03 0.00000E+00 2.52532E-02
      280  5.99050E-08 1.21460E-06-1.46842E-04 0.00000E+00 0.00000E+00 0.00000E+00 0.00000E+00 0.00000E+00 0.00000E+00 1.35626E-03 1.40901E-03 2.52532E-02
      281  0.00000E+00 2.03660E-06-1.46842E-04 0.00000E+00 0.00000E+00 0.00000E+00 0.00000E+00 0.00000E+00 0.00000E+00 8.74900E-20 1.43084E-03 2.52532E-02
      282  0.00000E+00 0.00000E+00-1.46842E-04 0.00000E+00 0.00000E+00 0.00000E+00 0.00000E+00 0.00000E+00 0.00000E+00 0.00000E+00 0.00000E+00 2.52532E-02
      296  0.00000E+00 1.65022E-06-1.46842E-04 0.00000E+00 0.00000E+00 0.00000E+00 0.00000E+00 0.00000E+00 0.00000E+00 1.75000E-19 2.85915E-03 2.52532E-02
      323  3.37502E-07 1.18592E-06-1.46842E-04 0.00000E+00 0.00000E+00 0.00000E+00 0.00000E+00 0.00000E+00 0.00000E+00 4.04144E-03 4.04239E-03 2.52532E-02
      324  1.39655E-07 8.66780E-07-1.46842E-04 0.00000E+00 0.00000E+00 0.00000E+00 0.00000E+00 0.00000E+00 0.00000E+00 2.18684E-03 5.28097E-03 2.52532E-02
      338  3.33673E-07 1.39823E-06-1.46842E-04 0.00000E+00 0.00000E+00 0.00000E+00 0.00000E+00 0.00000E+00 0.00000E+00 5.28033E-03 2.18830E-03 2.52532E-02
      352  0.00000E+00 1.91537E-06-1.46842E-04 0.00000E+00 0.00000E+00 0.00000E+00 0.00000E+00 0.00000E+00 0.00000E+00 2.62500E-19 4.28822E-03 2.52532E-02
      366  6.51011E-07 0.00000E+00-1.46842E-04 0.00000E+00 0.00000E+00 0.00000E+00 0.00000E+00 0.00000E+00 0.00000E+00 5.71565E-03 0.00000E+00 2.52532E-02
      380  0.00000E+00 1.56820E-06-1.46842E-04 0.00000E+00 0.00000E+00 0.00000E+00 0.00000E+00 0.00000E+00 0.00000E+00 3.49900E-19 5.71657E-03 2.52532E-02
      608 -7.20226E-08 0.00000E+00-1.46842E-04 0.00000E+00 0.00000E+00 0.00000E+00 0.00000E+00 0.00000E+00 0.00000E+00 1.26999E-02 0.00000E+00 2.52532E-02
      609  2.26984E-07 0.00000E+00-1.46842E-04 0.00000E+00 0.00000E+00 0.00000E+00 0.00000E+00 0.00000E+00 0.00000E+00 1.09540E-02 0.00000E+00 2.52532E-02
      610  2.88607E-07 0.00000E+00-1.46842E-04 0.00000E+00 0.00000E+00 0.00000E+00 0.00000E+00 0.00000E+00 0.00000E+00 9.20779E-03 0.00000E+00 2.52532E-02
      611  3.54387E-07 0.00000E+00-1.46842E-04 0.00000E+00 0.00000E+00 0.00000E+00 0.00000E+00 0.00000E+00 0.00000E+00 7.46165E-03 0.00000E+00 2.52532E-02
      804  4.28980E-07 1.39163E-06-1.46842E-04 0.00000E+00 0.00000E+00 0.00000E+00 0.00000E+00 0.00000E+00 0.00000E+00 6.90243E-03 2.83539E-03 2.52532E-02
      806  6.10605E-07 1.34132E-06-1.46842E-04 0.00000E+00 0.00000E+00 0.00000E+00 0.00000E+00 0.00000E+00 0.00000E+00 5.27861E-03 5.27514E-03 2.52532E-02
      808  3.65500E-07 1.15708E-06-1.46842E-04 0.00000E+00 0.00000E+00 0.00000E+00 0.00000E+00 0.00000E+00 0.00000E+00 2.83807E-03 6.90166E-03 2.52532E-02
      810  0.00000E+00 1.91213E-06-1.46842E-04 0.00000E+00 0.00000E+00 0.00000E+00 0.00000E+00 0.00000E+00 0.00000E+00 4.56900E-19 7.46321E-03 2.52532E-02
      852  5.41877E-07 1.53025E-06-1.46842E-04 0.00000E+00 0.00000E+00 0.00000E+00 0.00000E+00 0.00000E+00 0.00000E+00 8.52454E-03 3.48263E-03 2.52532E-02
      854  8.04554E-07 1.43053E-06-1.46842E-04 0.00000E+00 0.00000E+00 0.00000E+00 0.00000E+00 0.00000E+00 0.00000E+00 6.51580E-03 6.50783E-03 2.52532E-02
      856  5.36530E-07 1.40677E-06-1.46842E-04 0.00000E+00 0.00000E+00 0.00000E+00 0.00000E+00 0.00000E+00 0.00000E+00 3.48924E-03 8.52241E-03 2.52532E-02
      858  0.00000E+00 2.27499E-06-1.46842E-04 0.00000E+00 0.00000E+00 0.00000E+00 0.00000E+00 0.00000E+00 0.00000E+00 5.63800E-19 9.20977E-03 2.52532E-02
      864  6.56965E-07 1.62736E-06-1.46842E-04 0.00000E+00 0.00000E+00 0.00000E+00 0.00000E+00 0.00000E+00 0.00000E+00 1.01468E-02 4.12973E-03 2.52532E-02
      866  1.07987E-06 1.51099E-06-1.46842E-04 0.00000E+00 0.00000E+00 0.00000E+00 0.00000E+00 0.00000E+00 0.00000E+00 7.75298E-03 7.74051E-03 2.52532E-02
      868  5.88914E-07 1.66199E-06-1.46842E-04 0.00000E+00 0.00000E+00 0.00000E+00 0.00000E+00 0.00000E+00 0.00000E+00 4.14029E-03 1.01431E-02 2.52532E-02
      870  0.00000E+00 2.68225E-06-1.46842E-04 0.00000E+00 0.00000E+00 0.00000E+00 0.00000E+00 0.00000E+00 0.00000E+00 6.70700E-19 1.09565E-02 2.52532E-02
      880  4.18558E-07 1.40903E-06-1.46842E-04 0.00000E+00 0.00000E+00 0.00000E+00 0.00000E+00 0.00000E+00 0.00000E+00 1.17685E-02 4.77661E-03 2.52532E-02
      882  9.19627E-07 1.53014E-06-1.46842E-04 0.00000E+00 0.00000E+00 0.00000E+00 0.00000E+00 0.00000E+00 0.00000E+00 8.98982E-03 8.97313E-03 2.52532E-02
      884  9.06181E-07 2.52341E-06-1.46842E-04 0.00000E+00 0.00000E+00 0.00000E+00 0.00000E+00 0.00000E+00 0.00000E+00 4.79161E-03 1.17643E-02 2.52532E-02
      886  0.00000E+00 3.37591E-06-1.46842E-04 0.00000E+00 0.00000E+00 0.00000E+00 0.00000E+00 0.00000E+00 0.00000E+00 7.77700E-19 1.27034E-02 2.52532E-02



 n o d a l   p r i n t   o u t   f o r   t i m e  s t e p     203                              ( at time 1.9684248E+01 )

 nodal point  x-disp     y-disp      z-disp      x-vel       y-vel       z-vel      x-accl      y-accl      z-accl      x-coor      y-coor      z-coor
        1  1.14647E-04 0.00000E+00 0.00000E+00 0.00000E+00 0.00000E+00 0.00000E+00 0.00000E+00 0.00000E+00 0.00000E+00 3.28965E-03 0.00000E+00-1.78000E-18
        2  7.78577E-05 0.00000E+00 0.00000E+00 0.00000E+00 0.00000E+00 0.00000E+00 0.00000E+00 0.00000E+00 0.00000E+00 2.45916E-03 0.00000E+00 0.00000E+00
        3  4.74430E-05 0.00000E+00 0.00000E+00 0.00000E+00 0.00000E+00 0.00000E+00 0.00000E+00 0.00000E+00 0.00000E+00 1.63494E-03 0.00000E+00 0.00000E+00
        4  2.23090E-05 0.00000E+00 0.00000E+00 0.00000E+00 0.00000E+00 0.00000E+00 0.00000E+00 0.00000E+00 0.00000E+00 8.16059E-04 0.00000E+00 0.00000E+00
        5  0.00000E+00 0.00000E+00 0.00000E+00 0.00000E+00 0.00000E+00 0.00000E+00 0.00000E+00 0.00000E+00 0.00000E+00 0.00000E+00 0.00000E+00 0.00000E+00
        6  0.00000E+00 2.39593E-05 0.00000E+00 0.00000E+00 0.00000E+00 0.00000E+00 0.00000E+00 0.00000E+00 0.00000E+00 4.86000E-20 8.17709E-04 0.00000E+00
        7  0.00000E+00 5.23618E-05 0.00000E+00 0.00000E+00 0.00000E+00 0.00000E+00 0.00000E+00 0.00000E+00 0.00000E+00 9.72100E-20 1.63986E-03 0.00000E+00
        8  0.00000E+00 8.37823E-05 0.00000E+00 0.00000E+00 0.00000E+00 0.00000E+00 0.00000E+00 0.00000E+00 0.00000E+00 1.45800E-19 2.46508E-03 0.00000E+00
        9  0.00000E+00 1.16560E-04 0.00000E+00 0.00000E+00 0.00000E+00 0.00000E+00 0.00000E+00 0.00000E+00 0.00000E+00 1.94400E-19 3.29156E-03 0.00000E+00
       10  4.80508E-05 1.14351E-04 0.00000E+00 0.00000E+00 0.00000E+00 0.00000E+00 0.00000E+00 0.00000E+00 0.00000E+00 1.26305E-03 3.04765E-03 0.00000E+00
       11  8.76394E-05 9.41268E-05 0.00000E+00 0.00000E+00 0.00000E+00 0.00000E+00 0.00000E+00 0.00000E+00 0.00000E+00 2.33274E-03 2.33923E-03 0.00000E+00
       12  1.14957E-04 5.71971E-05 0.00000E+00 0.00000E+00 0.00000E+00 0.00000E+00 0.00000E+00 0.00000E+00 0.00000E+00 3.04826E-03 1.27220E-03 0.00000E+00
       13  5.68665E-05 5.80317E-05 0.00000E+00 0.00000E+00 0.00000E+00 0.00000E+00 0.00000E+00 0.00000E+00 0.00000E+00 1.36517E-03 1.40993E-03 0.00000E+00
       14  6.02265E-05 3.22430E-05 0.00000E+00 0.00000E+00 0.00000E+00 0.00000E+00 0.00000E+00 0.00000E+00 0.00000E+00 1.54853E-03 7.39220E-04 0.00000E+00
       15  3.05759E-05 5.76676E-05 0.00000E+00 0.00000E+00 0.00000E+00 0.00000E+00 0.00000E+00 0.00000E+00 0.00000E+00 7.00086E-04 1.56467E-03 0.00000E+00
       16  2.96367E-05 2.99558E-05 0.00000E+00 0.00000E+00 0.00000E+00 0.00000E+00 0.00000E+00 0.00000E+00 0.00000E+00 7.83274E-04 8.12293E-04 0.00000E+00
       17  7.38388E-05 7.38744E-05 0.00000E+00 0.00000E+00 0.00000E+00 0.00000E+00 0.00000E+00 0.00000E+00 0.00000E+00 1.81014E-03 1.84137E-03 0.00000E+00
       18  4.06386E-05 8.50991E-05 0.00000E+00 0.00000E+00 0.00000E+00 0.00000E+00 0.00000E+00 0.00000E+00 0.00000E+00 9.60769E-04 2.27620E-03 0.00000E+00
       19  8.75741E-05 4.21824E-05 0.00000E+00 0.00000E+00 0.00000E+00 0.00000E+00 0.00000E+00 0.00000E+00 0.00000E+00 2.25087E-03 9.93041E-04 0.00000E+00
      167  2.85404E-07 1.32131E-06-1.96842E-04 0.00000E+00 0.00000E+00 0.00000E+00 0.00000E+00 0.00000E+00 0.00000E+00 3.12499E-03 3.18202E-03 2.52032E-02
      168  3.39053E-07 6.84871E-07-1.96842E-04 0.00000E+00 0.00000E+00 0.00000E+00 0.00000E+00 0.00000E+00 0.00000E+00 2.35464E-03 2.43338E-03 2.52032E-02
      169 -3.31330E-07 1.57777E-06-1.96842E-04 0.00000E+00 0.00000E+00 0.00000E+00 0.00000E+00 0.00000E+00 0.00000E+00 2.67767E-03 1.27358E-03 2.52032E-02
      170 -2.29329E-07 1.46685E-06-1.96842E-04 0.00000E+00 0.00000E+00 0.00000E+00 0.00000E+00 0.00000E+00 0.00000E+00 3.89257E-03 1.71237E-03 2.52032E-02
      197  2.14523E-07 1.15161E-06-1.96842E-04 0.00000E+00 0.00000E+00 0.00000E+00 0.00000E+00 0.00000E+00 0.00000E+00 1.20481E-03 2.71275E-03 2.52032E-02
      198  9.75107E-08 7.76200E-07-1.96842E-04 0.00000E+00 0.00000E+00 0.00000E+00 0.00000E+00 0.00000E+00 0.00000E+00 1.65570E-03 3.94358E-03 2.52032E-02
      225  3.80779E-06 0.00000E+00-1.96842E-04 0.00000E+00 0.00000E+00 0.00000E+00 0.00000E+00 0.00000E+00 0.00000E+00 2.86131E-03 0.00000E+00 2.52032E-02
      226  1.87881E-06 0.00000E+00-1.96842E-04 0.00000E+00 0.00000E+00 0.00000E+00 0.00000E+00 0.00000E+00 0.00000E+00 4.28818E-03 0.00000E+00 2.52032E-02
      279  3.71123E-06 0.00000E+00-1.96842E-04 0.00000E+00 0.00000E+00 0.00000E+00 0.00000E+00 0.00000E+00 0.00000E+00 1.43251E-03 0.00000E+00 2.52032E-02
      280  3.19912E-08 1.30681E-06-1.96842E-04 0.00000E+00 0.00000E+00 0.00000E+00 0.00000E+00 0.00000E+00 0.00000E+00 1.35623E-03 1.40911E-03 2.52032E-02
      281  0.00000E+00 2.38975E-06-1.96842E-04 0.00000E+00 0.00000E+00 0.00000E+00 0.00000E+00 0.00000E+00 0.00000E+00 8.74900E-20 1.43119E-03 2.52032E-02
      282  0.00000E+00 0.00000E+00-1.96842E-04 0.00000E+00 0.00000E+00 0.00000E+00 0.00000E+00 0.00000E+00 0.00000E+00 0.00000E+00 0.00000E+00 2.52032E-02
      296  0.00000E+00 2.03912E-06-1.96842E-04 0.00000E+00 0.00000E+00 0.00000E+00 0.00000E+00 0.00000E+00 0.00000E+00 1.75000E-19 2.85954E-03 2.52032E-02
      323  3.53528E-07 1.35398E-06-1.96842E-04 0.00000E+00 0.00000E+00 0.00000E+00 0.00000E+00 0.00000E+00 0.00000E+00 4.04145E-03 4.04255E-03 2.52032E-02
      324  1.54362E-07 9.46461E-07-1.96842E-04 0.00000E+00 0.00000E+00 0.00000E+00 0.00000E+00 0.00000E+00 0.00000E+00 2.18685E-03 5.28105E-03 2.52032E-02
      338  3.28119E-07 1.58441E-06-1.96842E-04 0.00000E+00 0.00000E+00 0.00000E+00 0.00000E+00 0.00000E+00 0.00000E+00 5.28033E-03 2.18848E-03 2.52032E-02
      352  0.00000E+00 2.21644E-06-1.96842E-04 0.00000E+00 0.00000E+00 0.00000E+00 0.00000E+00 0.00000E+00 0.00000E+00 2.62500E-19 4.28852E-03 2.52032E-02
      366  7.12685E-07 0.00000E+00-1.96842E-04 0.00000E+00 0.00000E+00 0.00000E+00 0.00000E+00 0.00000E+00 0.00000E+00 5.71571E-03 0.00000E+00 2.52032E-02
      380  0.00000E+00 1.92221E-06-1.96842E-04 0.00000E+00 0.00000E+00 0.00000E+00 0.00000E+00 0.00000E+00 0.00000E+00 3.49900E-19 5.71692E-03 2.52032E-02
      608 -3.17045E-07 0.00000E+00-1.96842E-04 0.00000E+00 0.00000E+00 0.00000E+00 0.00000E+00 0.00000E+00 0.00000E+00 1.26997E-02 0.00000E+00 2.52032E-02
      609  7.39953E-08 0.00000E+00-1.96842E-04 0.00000E+00 0.00000E+00 0.00000E+00 0.00000E+00 0.00000E+00 0.00000E+00 1.09539E-02 0.00000E+00 2.52032E-02
      610  1.84392E-07 0.00000E+00-1.96842E-04 0.00000E+00 0.00000E+00 0.00000E+00 0.00000E+00 0.00000E+00 0.00000E+00 9.20768E-03 0.00000E+00 2.52032E-02
      611  3.00892E-07 0.00000E+00-1.96842E-04 0.00000E+00 0.00000E+00 0.00000E+00 0.00000E+00 0.00000E+00 0.00000E+00 7.46160E-03 0.00000E+00 2.52032E-02
      804  4.10453E-07 1.59931E-06-1.96842E-04 0.00000E+00 0.00000E+00 0.00000E+00 0.00000E+00 0.00000E+00 0.00000E+00 6.90241E-03 2.83560E-03 2.52032E-02
      806  6.53541E-07 1.51616E-06-1.96842E-04 0.00000E+00 0.00000E+00 0.00000E+00 0.00000E+00 0.00000E+00 0.00000E+00 5.27865E-03 5.27532E-03 2.52032E-02
      808  3.77450E-07 1.28801E-06-1.96842E-04 0.00000E+00 0.00000E+00 0.00000E+00 0.00000E+00 0.00000E+00 0.00000E+00 2.83808E-03 6.90179E-03 2.52032E-02
      810  0.00000E+00 2.28074E-06-1.96842E-04 0.00000E+00 0.00000E+00 0.00000E+00 0.00000E+00 0.00000E+00 0.00000E+00 4.56900E-19 7.46358E-03 2.52032E-02
      852  5.16991E-07 1.74225E-06-1.96842E-04 0.00000E+00 0.00000E+00 0.00000E+00 0.00000E+00 0.00000E+00 0.00000E+00 8.52452E-03 3.48284E-03 2.52032E-02
      854  8.62406E-07 1.59802E-06-1.96842E-04 0.00000E+00 0.00000E+00 0.00000E+00 0.00000E+00 0.00000E+00 0.00000E+00 6.51586E-03 6.50800E-03 2.52032E-02
      856  5.68851E-07 1.57885E-06-1.96842E-04 0.00000E+00 0.00000E+00 0.00000E+00 0.00000E+00 0.00000E+00 0.00000E+00 3.48927E-03 8.52258E-03 2.52032E-02
      858  0.00000E+00 2.63873E-06-1.96842E-04 0.00000E+00 0.00000E+00 0.00000E+00 0.00000E+00 0.00000E+00 0.00000E+00 5.63800E-19 9.21014E-03 2.52032E-02
      864  6.35536E-07 1.84012E-06-1.96842E-04 0.00000E+00 0.00000E+00 0.00000E+00 0.00000E+00 0.00000E+00 0.00000E+00 1.01467E-02 4.12994E-03 2.52032E-02
      866  1.15079E-06 1.63828E-06-1.96842E-04 0.00000E+00 0.00000E+00 0.00000E+00 0.00000E+00 0.00000E+00 0.00000E+00 7.75305E-03 7.74064E-03 2.52032E-02
      868  6.18692E-07 1.85719E-06-1.96842E-04 0.00000E+00 0.00000E+00 0.00000E+00 0.00000E+00 0.00000E+00 0.00000E+00 4.14032E-03 1.01433E-02 2.52032E-02
      870  0.00000E+00 3.04570E-06-1.96842E-04 0.00000E+00 0.00000E+00 0.00000E+00 0.00000E+00 0.00000E+00 0.00000E+00 6.70700E-19 1.09568E-02 2.52032E-02
      880  3.52117E-07 1.53490E-06-1.96842E-04 0.00000E+00 0.00000E+00 0.00000E+00 0.00000E+00 0.00000E+00 0.00000E+00 1.17685E-02 4.77673E-03 2.52032E-02
      882  8.94589E-07 1.76111E-06-1.96842E-04 0.00000E+00 0.00000E+00 0.00000E+00 0.00000E+00 0.00000E+00 0.00000E+00 8.98979E-03 8.97336E-03 2.52032E-02
      884  1.00509E-06 2.66110E-06-1.96842E-04 0.00000E+00 0.00000E+00 0.00000E+00 0.00000E+00 0.00000E+00 0.00000E+00 4.79171E-03 1.17645E-02 2.52032E-02
      886  0.00000E+00 3.64868E-06-1.96842E-04 0.00000E+00 0.00000E+00 0.00000E+00 0.00000E+00 0.00000E+00 0.00000E+00 7.77700E-19 1.27036E-02 2.52032E-02



 n o d a l   p r i n t   o u t   f o r   t i m e  s t e p     213                              ( at time 2.4684248E+01 )

[...]
      858  0.00000E+00 2.19000E-06-8.96842E-04 0.00000E+00 0.00000E+00 0.00000E+00 0.00000E+00 0.00000E+00 0.00000E+00 5.63800E-19 9.20969E-03 2.45032E-02
      864  5.73447E-07 1.16833E-06-8.96842E-04 0.00000E+00 0.00000E+00 0.00000E+00 0.00000E+00 0.00000E+00 0.00000E+00 1.01467E-02 4.12927E-03 2.45032E-02
      866  9.38373E-07 1.16785E-06-8.96842E-04 0.00000E+00 0.00000E+00 0.00000E+00 0.00000E+00 0.00000E+00 0.00000E+00 7.75284E-03 7.74017E-03 2.45032E-02
      868  5.11256E-07 1.47203E-06-8.96842E-04 0.00000E+00 0.00000E+00 0.00000E+00 0.00000E+00 0.00000E+00 0.00000E+00 4.14021E-03 1.01429E-02 2.45032E-02
      870  0.00000E+00 2.51162E-06-8.96842E-04 0.00000E+00 0.00000E+00 0.00000E+00 0.00000E+00 0.00000E+00 0.00000E+00 6.70700E-19 1.09563E-02 2.45032E-02
      880  3.95118E-07 9.77831E-07-8.96842E-04 0.00000E+00 0.00000E+00 0.00000E+00 0.00000E+00 0.00000E+00 0.00000E+00 1.17685E-02 4.77618E-03 2.45032E-02
      882  7.01742E-07 1.35749E-06-8.96842E-04 0.00000E+00 0.00000E+00 0.00000E+00 0.00000E+00 0.00000E+00 0.00000E+00 8.98960E-03 8.97296E-03 2.45032E-02
      884  9.14138E-07 2.04052E-06-8.96842E-04 0.00000E+00 0.00000E+00 0.00000E+00 0.00000E+00 0.00000E+00 0.00000E+00 4.79161E-03 1.17638E-02 2.45032E-02
      886  0.00000E+00 2.58027E-06-8.96842E-04 0.00000E+00 0.00000E+00 0.00000E+00 0.00000E+00 0.00000E+00 0.00000E+00 7.77700E-19 1.27026E-02 2.45032E-02



 n o d a l   p r i n t   o u t   f o r   t i m e  s t e p     380                              ( at time 9.4684248E+01 )

 nodal point  x-disp     y-disp      z-disp      x-vel       y-vel       z-vel      x-accl      y-accl      z-accl      x-coor      y-coor      z-coor
        1  1.04641E-03 0.00000E+00 0.00000E+00 0.00000E+00 0.00000E+00 0.00000E+00 0.00000E+00 0.00000E+00 0.00000E+00 4.22141E-03 0.00000E+00-1.78000E-18
        2  7.89452E-04 0.00000E+00 0.00000E+00 0.00000E+00 0.00000E+00 0.00000E+00 0.00000E+00 0.00000E+00 0.00000E+00 3.17075E-03 0.00000E+00 0.00000E+00
        3  5.41926E-04 0.00000E+00 0.00000E+00 0.00000E+00 0.00000E+00 0.00000E+00 0.00000E+00 0.00000E+00 0.00000E+00 2.12943E-03 0.00000E+00 0.00000E+00
        4  2.76139E-04 0.00000E+00 0.00000E+00 0.00000E+00 0.00000E+00 0.00000E+00 0.00000E+00 0.00000E+00 0.00000E+00 1.06989E-03 0.00000E+00 0.00000E+00
        5  0.00000E+00 0.00000E+00 0.00000E+00 0.00000E+00 0.00000E+00 0.00000E+00 0.00000E+00 0.00000E+00 0.00000E+00 0.00000E+00 0.00000E+00 0.00000E+00
        6  0.00000E+00 2.30789E-04 0.00000E+00 0.00000E+00 0.00000E+00 0.00000E+00 0.00000E+00 0.00000E+00 0.00000E+00 4.86000E-20 1.02454E-03 0.00000E+00
        7  0.00000E+00 4.82619E-04 0.00000E+00 0.00000E+00 0.00000E+00 0.00000E+00 0.00000E+00 0.00000E+00 0.00000E+00 9.72100E-20 2.07012E-03 0.00000E+00
        8  0.00000E+00 6.68772E-04 0.00000E+00 0.00000E+00 0.00000E+00 0.00000E+00 0.00000E+00 0.00000E+00 0.00000E+00 1.45800E-19 3.05007E-03 0.00000E+00
        9  0.00000E+00 8.43186E-04 0.00000E+00 0.00000E+00 0.00000E+00 0.00000E+00 0.00000E+00 0.00000E+00 0.00000E+00 1.94400E-19 4.01819E-03 0.00000E+00
       10  3.96097E-04 8.22304E-04 0.00000E+00 0.00000E+00 0.00000E+00 0.00000E+00 0.00000E+00 0.00000E+00 0.00000E+00 1.61110E-03 3.75560E-03 0.00000E+00
       11  6.44302E-04 7.11887E-04 0.00000E+00 0.00000E+00 0.00000E+00 0.00000E+00 0.00000E+00 0.00000E+00 0.00000E+00 2.88940E-03 2.95699E-03 0.00000E+00
       12  9.33063E-04 3.95150E-04 0.00000E+00 0.00000E+00 0.00000E+00 0.00000E+00 0.00000E+00 0.00000E+00 0.00000E+00 3.86636E-03 1.61015E-03 0.00000E+00
       13  5.03303E-04 4.08146E-04 0.00000E+00 0.00000E+00 0.00000E+00 0.00000E+00 0.00000E+00 0.00000E+00 0.00000E+00 1.81160E-03 1.76005E-03 0.00000E+00
       14  5.49919E-04 2.14469E-04 0.00000E+00 0.00000E+00 0.00000E+00 0.00000E+00 0.00000E+00 0.00000E+00 0.00000E+00 2.03822E-03 9.21446E-04 0.00000E+00
       15  2.72730E-04 5.15396E-04 0.00000E+00 0.00000E+00 0.00000E+00 0.00000E+00 0.00000E+00 0.00000E+00 0.00000E+00 9.42240E-04 2.02240E-03 0.00000E+00
       16  3.00215E-04 2.89752E-04 0.00000E+00 0.00000E+00 0.00000E+00 0.00000E+00 0.00000E+00 0.00000E+00 0.00000E+00 1.05385E-03 1.07209E-03 0.00000E+00
       17  5.81890E-04 5.35170E-04 0.00000E+00 0.00000E+00 0.00000E+00 0.00000E+00 0.00000E+00 0.00000E+00 0.00000E+00 2.31819E-03 2.30267E-03 0.00000E+00
       18  3.18095E-04 6.96817E-04 0.00000E+00 0.00000E+00 0.00000E+00 0.00000E+00 0.00000E+00 0.00000E+00 0.00000E+00 1.23823E-03 2.88792E-03 0.00000E+00
       19  7.36622E-04 3.09670E-04 0.00000E+00 0.00000E+00 0.00000E+00 0.00000E+00 0.00000E+00 0.00000E+00 0.00000E+00 2.89992E-03 1.26053E-03 0.00000E+00
      167  6.05116E-07 5.51411E-07-9.46842E-04 0.00000E+00 0.00000E+00 0.00000E+00 0.00000E+00 0.00000E+00 0.00000E+00 3.12531E-03 3.18125E-03 2.44532E-02
      168  5.61655E-07 4.54903E-07-9.46842E-04 0.00000E+00 0.00000E+00 0.00000E+00 0.00000E+00 0.00000E+00 0.00000E+00 2.35486E-03 2.43315E-03 2.44532E-02
      169  2.44810E-07 5.04112E-07-9.46842E-04 0.00000E+00 0.00000E+00 0.00000E+00 0.00000E+00 0.00000E+00 0.00000E+00 2.67824E-03 1.27250E-03 2.44532E-02
      170 -7.36710E-09 4.40354E-08-9.46842E-04 0.00000E+00 0.00000E+00 0.00000E+00 0.00000E+00 0.00000E+00 0.00000E+00 3.89279E-03 1.71094E-03 2.44532E-02
      197  3.81005E-07 8.07723E-07-9.46842E-04 0.00000E+00 0.00000E+00 0.00000E+00 0.00000E+00 0.00000E+00 0.00000E+00 1.20498E-03 2.71241E-03 2.44532E-02
      198  3.42769E-07 7.55151E-07-9.46842E-04 0.00000E+00 0.00000E+00 0.00000E+00 0.00000E+00 0.00000E+00 0.00000E+00 1.65594E-03 3.94356E-03 2.44532E-02
      225  3.15782E-06 0.00000E+00-9.46842E-04 0.00000E+00 0.00000E+00 0.00000E+00 0.00000E+00 0.00000E+00 0.00000E+00 2.86066E-03 0.00000E+00 2.44532E-02
      226  1.44861E-06 0.00000E+00-9.46842E-04 0.00000E+00 0.00000E+00 0.00000E+00 0.00000E+00 0.00000E+00 0.00000E+00 4.28775E-03 0.00000E+00 2.44532E-02
      279  3.36982E-06 0.00000E+00-9.46842E-04 0.00000E+00 0.00000E+00 0.00000E+00 0.00000E+00 0.00000E+00 0.00000E+00 1.43217E-03 0.00000E+00 2.44532E-02
      280  7.00639E-07-4.12352E-08-9.46842E-04 0.00000E+00 0.00000E+00 0.00000E+00 0.00000E+00 0.00000E+00 0.00000E+00 1.35690E-03 1.40776E-03 2.44532E-02
      281  0.00000E+00 1.73320E-06-9.46842E-04 0.00000E+00 0.00000E+00 0.00000E+00 0.00000E+00 0.00000E+00 0.00000E+00 8.74900E-20 1.43053E-03 2.44532E-02
      282  0.00000E+00 0.00000E+00-9.46842E-04 0.00000E+00 0.00000E+00 0.00000E+00 0.00000E+00 0.00000E+00 0.00000E+00 0.00000E+00 0.00000E+00 2.44532E-02
      296  0.00000E+00 1.98826E-06-9.46842E-04 0.00000E+00 0.00000E+00 0.00000E+00 0.00000E+00 0.00000E+00 0.00000E+00 1.75000E-19 2.85949E-03 2.44532E-02
      323  5.03467E-07 5.75020E-07-9.46842E-04 0.00000E+00 0.00000E+00 0.00000E+00 0.00000E+00 0.00000E+00 0.00000E+00 4.04160E-03 4.04178E-03 2.44532E-02
      324  3.14310E-07 7.80030E-07-9.46842E-04 0.00000E+00 0.00000E+00 0.00000E+00 0.00000E+00 0.00000E+00 0.00000E+00 2.18701E-03 5.28088E-03 2.44532E-02
      338  4.72620E-07 3.34338E-07-9.46842E-04 0.00000E+00 0.00000E+00 0.00000E+00 0.00000E+00 0.00000E+00 0.00000E+00 5.28047E-03 2.18723E-03 2.44532E-02
      352  0.00000E+00 1.80166E-06-9.46842E-04 0.00000E+00 0.00000E+00 0.00000E+00 0.00000E+00 0.00000E+00 0.00000E+00 2.62500E-19 4.28810E-03 2.44532E-02
      366  9.14043E-07 0.00000E+00-9.46842E-04 0.00000E+00 0.00000E+00 0.00000E+00 0.00000E+00 0.00000E+00 0.00000E+00 5.71591E-03 0.00000E+00 2.44532E-02
      380  0.00000E+00 1.84412E-06-9.46842E-04 0.00000E+00 0.00000E+00 0.00000E+00 0.00000E+00 0.00000E+00 0.00000E+00 3.49900E-19 5.71684E-03 2.44532E-02
      608  5.81234E-07 0.00000E+00-9.46842E-04 0.00000E+00 0.00000E+00 0.00000E+00 0.00000E+00 0.00000E+00 0.00000E+00 1.27006E-02 0.00000E+00 2.44532E-02
      609  6.51316E-07 0.00000E+00-9.46842E-04 0.00000E+00 0.00000E+00 0.00000E+00 0.00000E+00 0.00000E+00 0.00000E+00 1.09545E-02 0.00000E+00 2.44532E-02
      610  6.08389E-07 0.00000E+00-9.46842E-04 0.00000E+00 0.00000E+00 0.00000E+00 0.00000E+00 0.00000E+00 0.00000E+00 9.20811E-03 0.00000E+00 2.44532E-02
      611  6.20305E-07 0.00000E+00-9.46842E-04 0.00000E+00 0.00000E+00 0.00000E+00 0.00000E+00 0.00000E+00 0.00000E+00 7.46192E-03 0.00000E+00 2.44532E-02
      804  6.58318E-07 4.15748E-07-9.46842E-04 0.00000E+00 0.00000E+00 0.00000E+00 0.00000E+00 0.00000E+00 0.00000E+00 6.90266E-03 2.83442E-03 2.44532E-02
      806  5.66285E-07 6.84709E-07-9.46842E-04 0.00000E+00 0.00000E+00 0.00000E+00 0.00000E+00 0.00000E+00 0.00000E+00 5.27857E-03 5.27448E-03 2.44532E-02
      808  3.13155E-07 9.58794E-07-9.46842E-04 0.00000E+00 0.00000E+00 0.00000E+00 0.00000E+00 0.00000E+00 0.00000E+00 2.83801E-03 6.90146E-03 2.44532E-02
      810  0.00000E+00 1.99420E-06-9.46842E-04 0.00000E+00 0.00000E+00 0.00000E+00 0.00000E+00 0.00000E+00 0.00000E+00 4.56900E-19 7.46329E-03 2.44532E-02
      852  7.47256E-07 4.54956E-07-9.46842E-04 0.00000E+00 0.00000E+00 0.00000E+00 0.00000E+00 0.00000E+00 0.00000E+00 8.52475E-03 3.48155E-03 2.44532E-02
      854  6.53758E-07 7.41838E-07-9.46842E-04 0.00000E+00 0.00000E+00 0.00000E+00 0.00000E+00 0.00000E+00 0.00000E+00 6.51565E-03 6.50714E-03 2.44532E-02
      856  3.21942E-07 1.02777E-06-9.46842E-04 0.00000E+00 0.00000E+00 0.00000E+00 0.00000E+00 0.00000E+00 0.00000E+00 3.48902E-03 8.52203E-03 2.44532E-02
      858  0.00000E+00 2.19583E-06-9.46842E-04 0.00000E+00 0.00000E+00 0.00000E+00 0.00000E+00 0.00000E+00 0.00000E+00 5.63800E-19 9.20970E-03 2.44532E-02
      864  8.36099E-07 4.71331E-07-9.46842E-04 0.00000E+00 0.00000E+00 0.00000E+00 0.00000E+00 0.00000E+00 0.00000E+00 1.01469E-02 4.12857E-03 2.44532E-02
      866  8.02213E-07 8.45452E-07-9.46842E-04 0.00000E+00 0.00000E+00 0.00000E+00 0.00000E+00 0.00000E+00 0.00000E+00 7.75270E-03 7.73985E-03 2.44532E-02
      868  3.58286E-07 1.24880E-06-9.46842E-04 0.00000E+00 0.00000E+00 0.00000E+00 0.00000E+00 0.00000E+00 0.00000E+00 4.14006E-03 1.01426E-02 2.44532E-02
      870  0.00000E+00 2.24847E-06-9.46842E-04 0.00000E+00 0.00000E+00 0.00000E+00 0.00000E+00 0.00000E+00 0.00000E+00 6.70700E-19 1.09560E-02 2.44532E-02
      880  8.31041E-07 4.60441E-07-9.46842E-04 0.00000E+00 0.00000E+00 0.00000E+00 0.00000E+00 0.00000E+00 0.00000E+00 1.17689E-02 4.77566E-03 2.44532E-02
      882  7.78171E-07 1.19319E-06-9.46842E-04 0.00000E+00 0.00000E+00 0.00000E+00 0.00000E+00 0.00000E+00 0.00000E+00 8.98968E-03 8.97279E-03 2.44532E-02
      884  7.47560E-07 1.59549E-06-9.46842E-04 0.00000E+00 0.00000E+00 0.00000E+00 0.00000E+00 0.00000E+00 0.00000E+00 4.79145E-03 1.17634E-02 2.44532E-02
      886  0.00000E+00 1.38466E-06-9.46842E-04 0.00000E+00 0.00000E+00 0.00000E+00 0.00000E+00 0.00000E+00 0.00000E+00 7.77700E-19 1.27014E-02 2.44532E-02



 n o d a l   p r i n t   o u t   f o r   t i m e  s t e p     388                              ( at time 9.9684248E+01 )

 nodal point  x-disp     y-disp      z-disp      x-vel       y-vel       z-vel      x-accl      y-accl      z-accl      x-coor      y-coor      z-coor
        1  1.09502E-03 0.00000E+00 0.00000E+00 0.00000E+00 0.00000E+00 0.00000E+00 0.00000E+00 0.00000E+00 0.00000E+00 4.27002E-03 0.00000E+00-1.78000E-18
        2  8.23284E-04 0.00000E+00 0.00000E+00 0.00000E+00 0.00000E+00 0.00000E+00 0.00000E+00 0.00000E+00 0.00000E+00 3.20458E-03 0.00000E+00 0.00000E+00
        3  5.68070E-04 0.00000E+00 0.00000E+00 0.00000E+00 0.00000E+00 0.00000E+00 0.00000E+00 0.00000E+00 0.00000E+00 2.15557E-03 0.00000E+00 0.00000E+00
        4  2.86813E-04 0.00000E+00 0.00000E+00 0.00000E+00 0.00000E+00 0.00000E+00 0.00000E+00 0.00000E+00 0.00000E+00 1.08056E-03 0.00000E+00 0.00000E+00
        5  0.00000E+00 0.00000E+00 0.00000E+00 0.00000E+00 0.00000E+00 0.00000E+00 0.00000E+00 0.00000E+00 0.00000E+00 0.00000E+00 0.00000E+00 0.00000E+00
        6  0.00000E+00 2.40884E-04 0.00000E+00 0.00000E+00 0.00000E+00 0.00000E+00 0.00000E+00 0.00000E+00 0.00000E+00 4.86000E-20 1.03463E-03 0.00000E+00
        7  0.00000E+00 5.03833E-04 0.00000E+00 0.00000E+00 0.00000E+00 0.00000E+00 0.00000E+00 0.00000E+00 0.00000E+00 9.72100E-20 2.09133E-03 0.00000E+00
        8  0.00000E+00 7.00972E-04 0.00000E+00 0.00000E+00 0.00000E+00 0.00000E+00 0.00000E+00 0.00000E+00 0.00000E+00 1.45800E-19 3.08227E-03 0.00000E+00
        9  0.00000E+00 8.85420E-04 0.00000E+00 0.00000E+00 0.00000E+00 0.00000E+00 0.00000E+00 0.00000E+00 0.00000E+00 1.94400E-19 4.06042E-03 0.00000E+00
       10  4.20870E-04 8.64927E-04 0.00000E+00 0.00000E+00 0.00000E+00 0.00000E+00 0.00000E+00 0.00000E+00 0.00000E+00 1.63587E-03 3.79823E-03 0.00000E+00
       11  6.82454E-04 7.41709E-04 0.00000E+00 0.00000E+00 0.00000E+00 0.00000E+00 0.00000E+00 0.00000E+00 0.00000E+00 2.92755E-03 2.98681E-03 0.00000E+00
       12  9.79500E-04 4.12206E-04 0.00000E+00 0.00000E+00 0.00000E+00 0.00000E+00 0.00000E+00 0.00000E+00 0.00000E+00 3.91280E-03 1.62721E-03 0.00000E+00
       13  5.24476E-04 4.27223E-04 0.00000E+00 0.00000E+00 0.00000E+00 0.00000E+00 0.00000E+00 0.00000E+00 0.00000E+00 1.83278E-03 1.77912E-03 0.00000E+00
       14  5.73188E-04 2.25432E-04 0.00000E+00 0.00000E+00 0.00000E+00 0.00000E+00 0.00000E+00 0.00000E+00 0.00000E+00 2.06149E-03 9.32408E-04 0.00000E+00
       15  2.84842E-04 5.36966E-04 0.00000E+00 0.00000E+00 0.00000E+00 0.00000E+00 0.00000E+00 0.00000E+00 0.00000E+00 9.54353E-04 2.04397E-03 0.00000E+00
       16  3.11605E-04 3.01575E-04 0.00000E+00 0.00000E+00 0.00000E+00 0.00000E+00 0.00000E+00 0.00000E+00 0.00000E+00 1.06524E-03 1.08391E-03 0.00000E+00
       17  6.10843E-04 5.58888E-04 0.00000E+00 0.00000E+00 0.00000E+00 0.00000E+00 0.00000E+00 0.00000E+00 0.00000E+00 2.34714E-03 2.32639E-03 0.00000E+00
       18  3.34619E-04 7.28057E-04 0.00000E+00 0.00000E+00 0.00000E+00 0.00000E+00 0.00000E+00 0.00000E+00 0.00000E+00 1.25475E-03 2.91916E-03 0.00000E+00
       19  7.70647E-04 3.21834E-04 0.00000E+00 0.00000E+00 0.00000E+00 0.00000E+00 0.00000E+00 0.00000E+00 0.00000E+00 2.93395E-03 1.27269E-03 0.00000E+00
      167  6.13079E-07 9.89516E-07-9.96842E-04 0.00000E+00 0.00000E+00 0.00000E+00 0.00000E+00 0.00000E+00 0.00000E+00 3.12531E-03 3.18169E-03 2.44032E-02
      168  1.31245E-07 8.31515E-07-9.96842E-04 0.00000E+00 0.00000E+00 0.00000E+00 0.00000E+00 0.00000E+00 0.00000E+00 2.35443E-03 2.43353E-03 2.44032E-02
      169  5.20051E-09 1.24869E-06-9.96842E-04 0.00000E+00 0.00000E+00 0.00000E+00 0.00000E+00 0.00000E+00 0.00000E+00 2.67801E-03 1.27325E-03 2.44032E-02
      170 -1.76005E-07 3.27187E-07-9.96842E-04 0.00000E+00 0.00000E+00 0.00000E+00 0.00000E+00 0.00000E+00 0.00000E+00 3.89262E-03 1.71123E-03 2.44032E-02
      197  6.49623E-08 2.81394E-07-9.96842E-04 0.00000E+00 0.00000E+00 0.00000E+00 0.00000E+00 0.00000E+00 0.00000E+00 1.20466E-03 2.71188E-03 2.44032E-02
      198  2.36103E-07 2.10595E-07-9.96842E-04 0.00000E+00 0.00000E+00 0.00000E+00 0.00000E+00 0.00000E+00 0.00000E+00 1.65584E-03 3.94301E-03 2.44032E-02
      225  2.83123E-06 0.00000E+00-9.96842E-04 0.00000E+00 0.00000E+00 0.00000E+00 0.00000E+00 0.00000E+00 0.00000E+00 2.86033E-03 0.00000E+00 2.44032E-02
      226  1.16840E-06 0.00000E+00-9.96842E-04 0.00000E+00 0.00000E+00 0.00000E+00 0.00000E+00 0.00000E+00 0.00000E+00 4.28747E-03 0.00000E+00 2.44032E-02
      279  3.04759E-06 0.00000E+00-9.96842E-04 0.00000E+00 0.00000E+00 0.00000E+00 0.00000E+00 0.00000E+00 0.00000E+00 1.43185E-03 0.00000E+00 2.44032E-02
      280  5.44786E-07 3.35644E-07-9.96842E-04 0.00000E+00 0.00000E+00 0.00000E+00 0.00000E+00 0.00000E+00 0.00000E+00 1.35674E-03 1.40814E-03 2.44032E-02
      281  0.00000E+00 2.42202E-06-9.96842E-04 0.00000E+00 0.00000E+00 0.00000E+00 0.00000E+00 0.00000E+00 0.00000E+00 8.74900E-20 1.43122E-03 2.44032E-02
      282  0.00000E+00 0.00000E+00-9.96842E-04 0.00000E+00 0.00000E+00 0.00000E+00 0.00000E+00 0.00000E+00 0.00000E+00 0.00000E+00 0.00000E+00 2.44032E-02
      296  0.00000E+00 1.76367E-06-9.96842E-04 0.00000E+00 0.00000E+00 0.00000E+00 0.00000E+00 0.00000E+00 0.00000E+00 1.75000E-19 2.85926E-03 2.44032E-02
      323  4.67465E-07 8.93506E-07-9.96842E-04 0.00000E+00 0.00000E+00 0.00000E+00 0.00000E+00 0.00000E+00 0.00000E+00 4.04157E-03 4.04209E-03 2.44032E-02
      324  2.98522E-07 6.85941E-07-9.96842E-04 0.00000E+00 0.00000E+00 0.00000E+00 0.00000E+00 0.00000E+00 0.00000E+00 2.18700E-03 5.28079E-03 2.44032E-02
      338  2.75481E-07 8.54796E-07-9.96842E-04 0.00000E+00 0.00000E+00 0.00000E+00 0.00000E+00 0.00000E+00 0.00000E+00 5.28028E-03 2.18775E-03 2.44032E-02
      352  0.00000E+00 1.41806E-06-9.96842E-04 0.00000E+00 0.00000E+00 0.00000E+00 0.00000E+00 0.00000E+00 0.00000E+00 2.62500E-19 4.28772E-03 2.44032E-02
      366  5.07467E-07 0.00000E+00-9.96842E-04 0.00000E+00 0.00000E+00 0.00000E+00 0.00000E+00 0.00000E+00 0.00000E+00 5.71551E-03 0.00000E+00 2.44032E-02
      380  0.00000E+00 1.74000E-06-9.96842E-04 0.00000E+00 0.00000E+00 0.00000E+00 0.00000E+00 0.00000E+00 0.00000E+00 3.49900E-19 5.71674E-03 2.44032E-02
      608 -2.55518E-07 0.00000E+00-9.96842E-04 0.00000E+00 0.00000E+00 0.00000E+00 0.00000E+00 0.00000E+00 0.00000E+00 1.26997E-02 0.00000E+00 2.44032E-02
      609  8.22241E-08 0.00000E+00-9.96842E-04 0.00000E+00 0.00000E+00 0.00000E+00 0.00000E+00 0.00000E+00 0.00000E+00 1.09539E-02 0.00000E+00 2.44032E-02
      610  1.26909E-07 0.00000E+00-9.96842E-04 0.00000E+00 0.00000E+00 0.00000E+00 0.00000E+00 0.00000E+00 0.00000E+00 9.20763E-03 0.00000E+00 2.44032E-02
      611  1.98720E-07 0.00000E+00-9.96842E-04 0.00000E+00 0.00000E+00 0.00000E+00 0.00000E+00 0.00000E+00 0.00000E+00 7.46150E-03 0.00000E+00 2.44032E-02
      804  3.94510E-07 1.01220E-06-9.96842E-04 0.00000E+00 0.00000E+00 0.00000E+00 0.00000E+00 0.00000E+00 0.00000E+00 6.90239E-03 2.83501E-03 2.44032E-02
      806  6.25835E-07 1.09580E-06-9.96842E-04 0.00000E+00 0.00000E+00 0.00000E+00 0.00000E+00 0.00000E+00 0.00000E+00 5.27863E-03 5.27490E-03 2.44032E-02
      808  4.06236E-07 1.07333E-06-9.96842E-04 0.00000E+00 0.00000E+00 0.00000E+00 0.00000E+00 0.00000E+00 0.00000E+00 2.83811E-03 6.90157E-03 2.44032E-02
      810  0.00000E+00 1.91324E-06-9.96842E-04 0.00000E+00 0.00000E+00 0.00000E+00 0.00000E+00 0.00000E+00 0.00000E+00 4.56900E-19 7.46321E-03 2.44032E-02
      852  4.69430E-07 1.13964E-06-9.96842E-04 0.00000E+00 0.00000E+00 0.00000E+00 0.00000E+00 0.00000E+00 0.00000E+00 8.52447E-03 3.48224E-03 2.44032E-02
      854  7.61170E-07 1.21860E-06-9.96842E-04 0.00000E+00 0.00000E+00 0.00000E+00 0.00000E+00 0.00000E+00 0.00000E+00 6.51576E-03 6.50762E-03 2.44032E-02
      856  5.29677E-07 1.28474E-06-9.96842E-04 0.00000E+00 0.00000E+00 0.00000E+00 0.00000E+00 0.00000E+00 0.00000E+00 3.48923E-03 8.52228E-03 2.44032E-02
      858  0.00000E+00 2.28437E-06-9.96842E-04 0.00000E+00 0.00000E+00 0.00000E+00 0.00000E+00 0.00000E+00 0.00000E+00 5.63800E-19 9.20978E-03 2.44032E-02
      864  5.55741E-07 1.22080E-06-9.96842E-04 0.00000E+00 0.00000E+00 0.00000E+00 0.00000E+00 0.00000E+00 0.00000E+00 1.01467E-02 4.12932E-03 2.44032E-02
      866  9.70964E-07 1.22984E-06-9.96842E-04 0.00000E+00 0.00000E+00 0.00000E+00 0.00000E+00 0.00000E+00 0.00000E+00 7.75287E-03 7.74023E-03 2.44032E-02
      868  5.45396E-07 1.55569E-06-9.96842E-04 0.00000E+00 0.00000E+00 0.00000E+00 0.00000E+00 0.00000E+00 0.00000E+00 4.14025E-03 1.01430E-02 2.44032E-02
      870  0.00000E+00 2.62757E-06-9.96842E-04 0.00000E+00 0.00000E+00 0.00000E+00 0.00000E+00 0.00000E+00 0.00000E+00 6.70700E-19 1.09564E-02 2.44032E-02
      880  3.41754E-07 1.00964E-06-9.96842E-04 0.00000E+00 0.00000E+00 0.00000E+00 0.00000E+00 0.00000E+00 0.00000E+00 1.17684E-02 4.77621E-03 2.44032E-02
      882  7.03113E-07 1.40183E-06-9.96842E-04 0.00000E+00 0.00000E+00 0.00000E+00 0.00000E+00 0.00000E+00 0.00000E+00 8.98960E-03 8.97300E-03 2.44032E-02
      884  9.61735E-07 2.19093E-06-9.96842E-04 0.00000E+00 0.00000E+00 0.00000E+00 0.00000E+00 0.00000E+00 0.00000E+00 4.79166E-03 1.17640E-02 2.44032E-02
      886  0.00000E+00 2.85318E-06-9.96842E-04 0.00000E+00 0.00000E+00 0.00000E+00 0.00000E+00 0.00000E+00 0.00000E+00 7.77700E-19 1.27029E-02 2.44032E-02
