 LS-DYNA keyword deck by LS-PrePost                                      
                    ls-dyna smp d R14 R14.1.1s_1_ef50e1 date 06/16/2024



 n o d a l  s t r e s s  c a l c u l a t i o n s   f o r   t i m e  s t e p        1   ( at time 0.00000E+00 )

 node (global)
          stress       sig-xx      sig-yy      sig-zz      sig-xy      sig-yz      sig-zx       plastic
                                                                                                 strain 
       4-
 mid.  surface     4.3884E-06  4.3884E-06  4.3884E-06  0.0000E+00  0.0000E+00  0.0000E+00  0.0000E+00
       5-
 mid.  surface    -2.2719E-05 -2.2719E-05 -2.2719E-05  0.0000E+00  0.0000E+00  0.0000E+00  0.0000E+00
       6-
 mid.  surface    -1.0466E-04 -1.0466E-04 -1.0466E-04  0.0000E+00  0.0000E+00  0.0000E+00  0.0000E+00
       7-
 mid.  surface    -9.3825E-05 -9.3825E-05 -9.3825E-05  0.0000E+00  0.0000E+00  0.0000E+00  0.0000E+00
       8-
 mid.  surface    -6.4921E-05 -6.4921E-05 -6.4921E-05  0.0000E+00  0.0000E+00  0.0000E+00  0.0000E+00
       9-
 mid.  surface    -5.9035E-05 -5.9035E-05 -5.9035E-05  0.0000E+00  0.0000E+00  0.0000E+00  0.0000E+00
      10-
 mid.  surface    -2.1669E-05 -2.1669E-05 -2.1669E-05  0.0000E+00  0.0000E+00  0.0000E+00  0.0000E+00
      15-
 mid.  surface     2.9827E-05  2.9827E-05  2.9827E-05  0.0000E+00  0.0000E+00  0.0000E+00  0.0000E+00
      16-
 mid.  surface    -3.2415E-05 -3.2415E-05 -3.2415E-05  0.0000E+00  0.0000E+00  0.0000E+00  0.0000E+00
      18-
 mid.  surface     2.3031E-05  2.3031E-05  2.3031E-05  0.0000E+00  0.0000E+00  0.0000E+00  0.0000E+00
      40-
 mid.  surface     7.9568E-05  7.9568E-05  7.9568E-05  0.0000E+00  0.0000E+00  0.0000E+00  0.0000E+00
      41-
 mid.  surface     2.0005E-05  2.0005E-05  2.0005E-05  0.0000E+00  0.0000E+00  0.0000E+00  0.0000E+00
      50-
 mid.  surface     2.6276E-05  2.6276E-05  2.6276E-05  0.0000E+00  0.0000E+00  0.0000E+00  0.0000E+00
      51-
 mid.  surface     1.4888E-04  1.4888E-04  1.4888E-04  0.0000E+00  0.0000E+00  0.0000E+00  0.0000E+00
      52-
 mid.  surface     1.4888E-04  1.4888E-04  1.4888E-04  0.0000E+00  0.0000E+00  0.0000E+00  0.0000E+00
      53-
 mid.  surface    -3.2415E-05 -3.2415E-05 -3.2415E-05  0.0000E+00  0.0000E+00  0.0000E+00  0.0000E+00
      72-
 mid.  surface     8.3389E-05  8.3389E-05  8.3389E-05  0.0000E+00  0.0000E+00  0.0000E+00  0.0000E+00
      95-
 mid.  surface    -4.2418E-05 -4.2418E-05 -4.2418E-05  0.0000E+00  0.0000E+00  0.0000E+00  0.0000E+00
     100-
 mid.  surface     2.3031E-05  2.3031E-05  2.3031E-05  0.0000E+00  0.0000E+00  0.0000E+00  0.0000E+00
     110-
 mid.  surface    -2.1669E-05 -2.1669E-05 -2.1669E-05  0.0000E+00  0.0000E+00  0.0000E+00  0.0000E+00



 n o d a l  s t r a i n  c a l c u l a t i o n s   f o r   t i m e  s t e p        1   ( at time 0.00000E+00 )

 node (global)
          strain       eps-xx      eps-yy      eps-zz      eps-xy      eps-yz      eps-zx       
       4-
 mid.  surface     0.0000E+00  0.0000E+00  0.0000E+00  0.0000E+00  0.0000E+00  0.0000E+00
       5-
 mid.  surface     0.0000E+00  0.0000E+00  0.0000E+00  0.0000E+00  0.0000E+00  0.0000E+00
       6-
 mid.  surface     0.0000E+00  0.0000E+00  0.0000E+00  0.0000E+00  0.0000E+00  0.0000E+00
       7-
 mid.  surface     0.0000E+00  0.0000E+00  0.0000E+00  0.0000E+00  0.0000E+00  0.0000E+00
       8-
 mid.  surface     0.0000E+00  0.0000E+00  0.0000E+00  0.0000E+00  0.0000E+00  0.0000E+00
       9-
 mid.  surface     0.0000E+00  0.0000E+00  0.0000E+00  0.0000E+00  0.0000E+00  0.0000E+00
      10-
 mid.  surface     0.0000E+00  0.0000E+00  0.0000E+00  0.0000E+00  0.0000E+00  0.0000E+00
      15-
 mid.  surface     0.0000E+00  0.0000E+00  0.0000E+00  0.0000E+00  0.0000E+00  0.0000E+00
      16-
 mid.  surface     0.0000E+00  0.0000E+00  0.0000E+00  0.0000E+00  0.0000E+00  0.0000E+00
      18-
 mid.  surface     0.0000E+00  0.0000E+00  0.0000E+00  0.0000E+00  0.0000E+00  0.0000E+00
      40-
 mid.  surface     0.0000E+00  0.0000E+00  0.0000E+00  0.0000E+00  0.0000E+00  0.0000E+00
      41-
 mid.  surface     0.0000E+00  0.0000E+00  0.0000E+00  0.0000E+00  0.0000E+00  0.0000E+00
      50-
 mid.  surface     0.0000E+00  0.0000E+00  0.0000E+00  0.0000E+00  0.0000E+00  0.0000E+00
      51-
 mid.  surface     0.0000E+00  0.0000E+00  0.0000E+00  0.0000E+00  0.0000E+00  0.0000E+00
      52-
 mid.  surface     0.0000E+00  0.0000E+00  0.0000E+00  0.0000E+00  0.0000E+00  0.0000E+00
      53-
 mid.  surface     0.0000E+00  0.0000E+00  0.0000E+00  0.0000E+00  0.0000E+00  0.0000E+00
      72-
 mid.  surface     0.0000E+00  0.0000E+00  0.0000E+00  0.0000E+00  0.0000E+00  0.0000E+00
      95-
 mid.  surface     0.0000E+00  0.0000E+00  0.0000E+00  0.0000E+00  0.0000E+00  0.0000E+00
     100-
 mid.  surface     0.0000E+00  0.0000E+00  0.0000E+00  0.0000E+00  0.0000E+00  0.0000E+00
     110-
 mid.  surface     0.0000E+00  0.0000E+00  0.0000E+00  0.0000E+00  0.0000E+00  0.0000E+00



 n o d a l  s t r e s s  c a l c u l a t i o n s   f o r   t i m e  s t e p       10   ( at time 1.29245E+00 )

 node (global)
          stress       sig-xx      sig-yy      sig-zz      sig-xy      sig-yz      sig-zx       plastic
                                                                                                 strain 
       4-
 mid.  surface    -3.9730E+07 -3.0768E+07 -2.6580E+08  2.7913E+07 -7.1266E+06 -1.0436E+07  0.0000E+00
       5-
 mid.  surface     8.3150E+06 -2.8587E+07 -1.2104E+08  4.9471E+07 -1.3693E+07 -7.8433E+07  0.0000E+00
       6-
 mid.  surface    -8.3725E+06 -2.0875E+07 -1.3349E+08  2.1210E+07 -7.8733E+07 -5.5048E+07  0.0000E+00
       7-
 mid.  surface    -1.6461E+07 -1.2972E+07 -1.9863E+08  2.2951E+07 -9.8305E+07 -1.5439E+07  0.0000E+00
       8-
 mid.  surface    -2.9477E+07  4.3574E+06 -2.3164E+08  9.4085E+06 -6.5272E+07  1.1254E+07  0.0000E+00
       9-
 mid.  surface    -6.2866E+07 -4.0096E+07 -2.9363E+08 -2.4223E+07 -2.0886E+07  1.3065E+07  0.0000E+00
      10-
 mid.  surface    -2.8335E+07  2.9993E+07 -9.2395E+07 -1.3952E+07  4.3386E+06  8.3775E+06  0.0000E+00
      15-
 mid.  surface     1.6945E+07 -1.0275E+07 -1.5539E+08  1.9493E+07 -2.4480E+07 -3.2968E+07  0.0000E+00
      16-
 mid.  surface    -1.5249E+07 -2.3226E+07 -2.1449E+08 -3.6201E+06 -1.0482E+07 -1.7583E+07  0.0000E+00
      18-
 mid.  surface     7.1226E+06  4.5107E+07 -7.5390E+07  2.4866E+07 -2.1168E+07 -1.7971E+07  0.0000E+00
      40-
 mid.  surface    -5.3361E+07 -1.5703E+07 -1.3390E+08  1.7600E+07 -7.6199E+05  8.6773E+06  0.0000E+00
      41-
 mid.  surface    -6.4363E+07 -1.7413E+07 -1.1253E+08  1.0279E+06 -3.4358E+07  8.5443E+06  0.0000E+00
      50-
 mid.  surface    -9.1845E+07 -7.5957E+07 -2.9211E+08 -1.7355E+07  1.1927E+07  3.3232E+07  0.0000E+00
      51-
 mid.  surface    -1.2861E+08 -8.1872E+07 -3.4702E+08  7.6741E+06  1.1267E+07  2.9069E+07  0.0000E+00
      52-
 mid.  surface    -9.1797E+07 -1.1421E+08 -2.1682E+08  2.2733E+07  5.4744E+07 -4.1504E+07  0.0000E+00
      53-
 mid.  surface    -9.2454E+07 -1.1498E+08 -2.3723E+08  3.2235E+06  1.6879E+07 -3.6212E+07  0.0000E+00
      72-
 mid.  surface    -5.7196E+07 -7.8186E+07 -2.3693E+08  7.2952E+06  1.6397E+07  2.4582E+07  0.0000E+00
      95-
 mid.  surface    -7.0795E+07 -1.0638E+08 -2.8505E+08  1.4715E+07  1.8639E+07 -3.9184E+07  0.0000E+00
     100-
 mid.  surface    -6.4473E+07 -5.3008E+07 -2.7707E+08  1.4048E+07 -1.8028E+07 -3.2758E+07  0.0000E+00
     110-
 mid.  surface    -8.4015E+07 -7.4225E+07 -3.0376E+08  2.8905E+06 -5.6880E+07 -3.0366E+07  0.0000E+00



 n o d a l  s t r a i n  c a l c u l a t i o n s   f o r   t i m e  s t e p       10   ( at time 1.29245E+00 )

 node (global)
          strain       eps-xx      eps-yy      eps-zz      eps-xy      eps-yz      eps-zx       
       4-
 mid.  surface     8.5034E-04  1.0213E-03 -3.4641E-03  5.3262E-04 -1.3587E-04 -1.9888E-04
       5-
 mid.  surface     8.3459E-04  1.3043E-04 -1.6339E-03  9.4411E-04 -2.6133E-04 -1.4970E-03
       6-
 mid.  surface     6.1788E-04  3.7951E-04 -1.7698E-03  4.0466E-04 -1.5026E-03 -1.0507E-03
       7-
 mid.  surface     7.7493E-04  8.4208E-04 -2.7024E-03  4.3811E-04 -1.8756E-03 -2.9410E-04
       8-
 mid.  surface     6.6351E-04  1.3096E-03 -3.1946E-03  1.7941E-04 -1.2457E-03  2.1469E-04
       9-
 mid.  surface     6.9552E-04  1.1299E-03 -3.7080E-03 -4.6250E-04 -3.9898E-04  2.4905E-04
      10-
 mid.  surface    -1.0581E-04  1.0072E-03 -1.3284E-03 -2.6621E-04  8.3179E-05  1.6004E-04
      15-
 mid.  surface     1.0350E-03  5.1501E-04 -2.2544E-03  3.7225E-04 -4.6653E-04 -6.2841E-04
      16-
 mid.  surface     9.1903E-04  7.6635E-04 -2.8836E-03 -6.9141E-05 -1.9972E-04 -3.3510E-04
      18-
 mid.  surface     2.4750E-04  9.7216E-04 -1.3275E-03  4.7469E-04 -4.0345E-04 -3.4257E-04
      40-
 mid.  surface    -4.7870E-05  6.7035E-04 -1.5843E-03  3.3588E-04 -1.4647E-05  1.6547E-04
      41-
 mid.  surface    -2.9877E-04  5.9667E-04 -1.2172E-03  1.9523E-05 -6.5604E-04  1.6274E-04
      50-
 mid.  surface     4.4549E-04  7.4821E-04 -3.3757E-03 -3.3128E-04  2.2739E-04  6.3390E-04
      51-
 mid.  surface     2.1050E-04  1.1022E-03 -3.9570E-03  1.4641E-04  2.1493E-04  5.5447E-04
      52-
 mid.  surface     2.6906E-04 -1.5873E-04 -2.1163E-03  4.3375E-04  1.0445E-03 -7.9258E-04
      53-
 mid.  surface     3.6066E-04 -6.9051E-05 -2.4016E-03  6.1367E-05  3.2151E-04 -6.9189E-04
      72-
 mid.  surface     6.8844E-04  2.8719E-04 -2.7417E-03  1.3943E-04  3.1325E-04  4.6954E-04
      95-
 mid.  surface     8.5768E-04  1.7914E-04 -3.2310E-03  2.8074E-04  3.5521E-04 -7.4822E-04
     100-
 mid.  surface     6.5468E-04  8.7374E-04 -3.4019E-03  2.6779E-04 -3.4486E-04 -6.2584E-04
     110-
 mid.  surface     6.0444E-04  7.9101E-04 -3.5884E-03  5.4937E-05 -1.0864E-03 -5.8023E-04



 n o d a l  s t r e s s  c a l c u l a t i o n s   f o r   t i m e  s t e p       14   ( at time 2.54839E+00 )

 node (global)
          stress       sig-xx      sig-yy      sig-zz      sig-xy      sig-yz      sig-zx       plastic
                                                                                                 strain 
       4-
 mid.  surface    -1.3266E+08 -1.3507E+08 -3.7709E+08  4.0243E+07 -4.1832E+06  3.4817E+07  1.2589E-03
       5-
 mid.  surface     1.7094E+07 -2.3479E+07 -2.4092E+08  8.2278E+07 -2.9400E+07 -1.1652E+08  1.3166E-04
       6-
 mid.  surface    -2.6055E+07 -1.5527E+07 -2.0694E+08  3.9329E+07 -1.5022E+08 -7.2938E+07  4.8766E-04
       7-
 mid.  surface    -8.6371E+07 -4.1366E+07 -2.4528E+08  3.3782E+07 -1.6871E+08  8.4693E+06  1.0591E-03
       8-
 mid.  surface    -1.1645E+08 -5.1875E+07 -2.7758E+08  1.1605E+07 -1.0275E+08  4.2337E+07  1.2853E-03
       9-
 mid.  surface    -1.9045E+08 -1.5677E+08 -3.9910E+08 -3.4544E+07 -2.0980E+07  2.9802E+07  1.2569E-03
      10-
 mid.  surface    -2.7566E+07  8.1651E+07 -1.9931E+08 -3.3575E+07  2.2156E+07  1.8873E+07  3.2843E-05
      15-
 mid.  surface     2.3996E+07 -2.8819E+07 -1.9767E+08  3.8733E+07 -7.4009E+07 -2.4133E+07  8.0052E-04
      16-
 mid.  surface    -6.0519E+07 -9.8243E+07 -2.7646E+08 -4.2259E+06 -5.2594E+07  4.8642E+06  1.1704E-03
      18-
 mid.  surface     4.8464E+07  1.1542E+08 -1.3590E+08  4.3755E+07 -5.4562E+07 -1.1204E+07  1.4366E-04
      40-
 mid.  surface    -6.4771E+07 -2.0574E+07 -3.0281E+08  3.4597E+07  3.7298E+07 -6.5925E+06  2.2445E-05
      41-
 mid.  surface    -8.5592E+07 -1.4823E+07 -2.7636E+08 -2.0393E+06 -3.7360E+07 -1.1554E+07 -1.0869E-04
      50-
 mid.  surface    -2.0363E+08 -2.3055E+08 -4.7241E+08 -3.5262E+07  7.3064E+07  4.3254E+07  9.5965E-04
      51-
 mid.  surface    -3.0622E+08 -2.6006E+08 -5.5074E+08 -5.7397E+06  9.2504E+07  3.3488E+07  1.0816E-03
      52-
 mid.  surface    -1.9201E+08 -2.1643E+08 -4.3723E+08  3.8773E+07  1.2004E+08 -9.2194E+07  1.5706E-04
      53-
 mid.  surface    -2.0086E+08 -2.2478E+08 -4.5730E+08  9.1698E+06  4.0215E+07 -7.8872E+07  2.3754E-04
      72-
 mid.  surface    -1.0928E+08 -1.8435E+08 -4.2530E+08  2.1172E+07  8.2524E+07  1.5752E+07  5.3731E-04
      95-
 mid.  surface    -1.9460E+08 -2.2452E+08 -4.9967E+08  2.9222E+07  3.0542E+07 -7.1897E+07  4.6680E-04
     100-
 mid.  surface    -1.9105E+08 -1.6245E+08 -4.4052E+08  2.6630E+07 -2.6050E+07 -5.4351E+07  8.6357E-04
     110-
 mid.  surface    -2.4182E+08 -2.2878E+08 -4.4093E+08  3.6037E+06 -7.1730E+07 -5.5654E+07  1.2734E-03



 n o d a l  s t r a i n  c a l c u l a t i o n s   f o r   t i m e  s t e p       14   ( at time 2.54839E+00 )

 node (global)
          strain       eps-xx      eps-yy      eps-zz      eps-xy      eps-yz      eps-zx       
       4-
 mid.  surface     2.1086E-03  2.0083E-03 -7.1655E-03  1.0746E-03 -2.5999E-04 -2.3157E-04
       5-
 mid.  surface     2.1022E-03  5.2481E-04 -3.7953E-03  1.8253E-03 -4.9516E-04 -2.8285E-03
       6-
 mid.  surface     1.7149E-03  1.0291E-03 -3.9258E-03  8.9135E-04 -3.1757E-03 -2.2084E-03
       7-
 mid.  surface     1.9391E-03  2.0101E-03 -5.7307E-03  1.0688E-03 -3.9854E-03 -7.8261E-04
       8-
 mid.  surface     1.5303E-03  2.9495E-03 -6.6059E-03  5.2905E-04 -2.7398E-03  2.6060E-04
       9-
 mid.  surface     1.5160E-03  2.5138E-03 -7.5717E-03 -7.3304E-04 -8.2541E-04  4.4237E-04
      10-
 mid.  surface    -9.5804E-05  2.3783E-03 -2.9631E-03 -4.5169E-04  1.7404E-04  2.8554E-04
      15-
 mid.  surface     2.2801E-03  1.3792E-03 -4.6178E-03  1.0070E-03 -1.2939E-03 -1.3402E-03
      16-
 mid.  surface     2.2239E-03  1.5864E-03 -5.8698E-03  6.9435E-05 -6.3234E-04 -7.4925E-04
      18-
 mid.  surface     5.9210E-04  2.4121E-03 -2.8683E-03  1.0347E-03 -1.1212E-03 -7.0347E-04
      40-
 mid.  surface    -2.8717E-05  1.6331E-03 -3.4448E-03  6.8430E-04 -1.6183E-07  2.8404E-04
      41-
 mid.  surface    -4.5591E-04  1.3377E-03 -2.6630E-03  8.9081E-05 -1.5189E-03  2.0288E-04
      50-
 mid.  surface     1.1606E-03  1.4399E-03 -6.9033E-03 -4.9861E-04  5.3881E-04  1.1314E-03
      51-
 mid.  surface     6.7298E-04  2.0778E-03 -8.0486E-03  2.5751E-04  5.7877E-04  7.0961E-04
      52-
 mid.  surface     8.1425E-04 -1.9762E-04 -4.6294E-03  7.9300E-04  2.1838E-03 -1.9809E-03
      53-
 mid.  surface     1.0634E-03 -3.0775E-06 -5.2520E-03  1.8796E-04  6.1371E-04 -1.4767E-03
      72-
 mid.  surface     1.4702E-03  7.9267E-04 -5.6743E-03  4.7611E-04  7.2010E-04  8.3744E-04
      95-
 mid.  surface     1.9212E-03  5.9409E-04 -6.8793E-03  6.8759E-04  6.8872E-04 -1.4710E-03
     100-
 mid.  surface     1.4027E-03  1.9222E-03 -7.0969E-03  5.9902E-04 -7.0336E-04 -1.2136E-03
     110-
 mid.  surface     1.2855E-03  1.6061E-03 -7.2181E-03  2.3683E-04 -2.4382E-03 -1.1353E-03



 n o d a l  s t r e s s  c a l c u l a t i o n s   f o r   t i m e  s t e p      450   ( at time 3.65692E+00 )

 node (global)
          stress       sig-xx      sig-yy      sig-zz      sig-xy      sig-yz      sig-zx       plastic
                                                                                                 strain 
       4-
 mid.  surface     1.9177E+09  1.6850E+09  1.8886E+09 -1.9349E+08 -8.3858E+07 -1.2519E+09 -3.5953E-02
       5-
 mid.  surface     2.8281E+09  2.5408E+09  2.9697E+09 -1.2062E+08 -2.1129E+08 -1.2753E+09 -4.5203E-02
       6-
 mid.  surface    -1.2445E+09 -1.0671E+09 -1.0396E+09 -2.0623E+06  1.2836E+08 -1.2541E+08  5.9851E-02
       7-
 mid.  surface    -3.9517E+08 -2.1321E+08 -7.8545E+08 -1.7811E+07  6.4806E+07  1.4077E+08  5.9548E-03
       8-
 mid.  surface     2.8035E+08  4.1698E+08  3.8120E+08 -3.7802E+07 -2.5830E+07  1.6691E+08  4.0312E-02
       9-
 mid.  surface     6.0523E+07  1.4277E+08 -1.3308E+08 -5.5679E+07 -2.7096E+08  6.2627E+07  7.6001E-04
      10-
 mid.  surface     3.4133E+08  4.2821E+08  1.3014E+08 -3.9315E+07 -2.5438E+08  2.2067E+07 -9.4750E-04
      15-
 mid.  surface    -3.0983E+08 -4.0992E+08 -9.0249E+08  6.5792E+07  3.7559E+08  2.4307E+08  1.0965E-03
      16-
 mid.  surface    -1.1135E+09 -1.1161E+09 -1.1476E+09 -3.3700E+07  3.8163E+08 -2.1854E+06  5.9633E-02
      18-
 mid.  surface     2.9759E+08  3.3992E+08  3.4456E+08  4.2425E+07  8.9710E+07  1.2514E+08  3.7757E-02
      40-
 mid.  surface    -9.1822E+07 -7.4510E+07  2.1376E+08  3.9935E+07  5.2988E+07 -1.0030E+08  4.9818E-02
      41-
 mid.  surface    -1.2610E+08  1.6319E+07 -3.8443E+08  1.4565E+07  1.1611E+08  2.1135E+07  1.2237E-03
      50-
 mid.  surface    -9.9196E+08 -9.6069E+08 -1.1364E+09 -4.5019E+06  8.7794E+07  4.4513E+08  7.6791E-02
      51-
 mid.  surface     6.3762E+08  4.1051E+08  1.1514E+07 -5.6728E+07 -1.2716E+08  6.0783E+08 -2.0016E-02
      52-
 mid.  surface     6.5594E+08  3.6211E+08  1.5374E+08 -8.3997E+06 -2.1391E+08  6.0183E+08 -2.0073E-02
      53-
 mid.  surface    -1.0468E+09 -8.6803E+08 -8.7259E+08  1.0330E+07 -1.1091E+08  2.8453E+08  8.7552E-02
      72-
 mid.  surface    -3.0105E+08 -4.9330E+08 -4.7250E+08  2.6397E+07 -1.9485E+08 -1.4411E+08  1.4557E-02
      95-
 mid.  surface    -3.1829E+08 -2.4766E+08 -2.2463E+08 -5.5288E+07 -4.2735E+08 -3.1237E+08  2.8604E-02
     100-
 mid.  surface    -4.2578E+06  7.3237E+07  2.8721E+08 -3.0799E+07 -7.0302E+07 -1.0173E+08  4.9746E-02
     110-
 mid.  surface    -3.2258E+08 -2.1009E+08 -6.1997E+08  1.0544E+07  9.9624E+07  3.9252E+07  2.2741E-03



 n o d a l  s t r a i n  c a l c u l a t i o n s   f o r   t i m e  s t e p      450   ( at time 3.65692E+00 )

 node (global)
          strain       eps-xx      eps-yy      eps-zz      eps-xy      eps-yz      eps-zx       
       4-
 mid.  surface     2.5115E-02  1.0105E-02 -8.1347E-03  4.1532E-04  5.2374E-04 -6.5549E-02
       5-
 mid.  surface     2.7836E-02 -4.0583E-03  1.6504E-02 -1.9809E-03 -4.4111E-04 -6.5856E-02
       6-
 mid.  surface    -1.7750E-03  3.3216E-03 -1.7339E-02 -4.3290E-03  1.0740E-02  1.0754E-02
       7-
 mid.  surface     7.5128E-03  1.1009E-02 -2.5314E-02  8.6185E-04  9.0699E-03  1.3749E-02
       8-
 mid.  surface     3.8761E-03  1.4876E-02 -1.3636E-02 -1.8458E-04 -1.1365E-02  2.0937E-03
       9-
 mid.  surface     3.1617E-03  6.1646E-03 -9.0421E-03 -3.0706E-03 -1.4649E-02  2.4631E-03
      10-
 mid.  surface     2.1676E-03  6.0552E-03 -3.9174E-03 -2.0112E-03 -1.6844E-02  1.7497E-03
      15-
 mid.  surface     9.5725E-03  1.9228E-03 -1.9358E-02  4.0684E-03  2.1401E-02  1.2070E-02
      16-
 mid.  surface     8.1470E-04  5.9614E-03 -2.2582E-02 -3.5458E-03  2.2970E-02  1.6040E-02
      18-
 mid.  surface     3.3462E-03  9.0929E-03 -7.7753E-03  4.0295E-03 -1.0882E-02 -1.0699E-03
      40-
 mid.  surface     2.2166E-04  1.1336E-02 -1.1474E-02  4.8079E-03  2.0726E-03 -1.7344E-03
      41-
 mid.  surface    -1.2661E-04  8.6017E-03 -1.0862E-02  1.3211E-03  6.3809E-03  1.4939E-03
      50-
 mid.  surface    -7.3457E-03  2.9094E-03 -1.0396E-02 -7.6211E-03 -1.6196E-02 -1.2446E-02
      51-
 mid.  surface     2.6772E-02  1.3225E-02 -3.5539E-02  9.3728E-03 -5.1993E-03  4.7192E-02
      52-
 mid.  surface     2.9150E-02 -4.6089E-03 -1.9366E-02 -1.2132E-05  2.2480E-03  4.5379E-02
      53-
 mid.  surface    -7.2933E-03 -3.9051E-03 -2.4580E-03 -9.9227E-03 -1.6385E-02 -2.2609E-02
      72-
 mid.  surface     4.2369E-03 -3.8551E-03 -6.5532E-03  1.2260E-03 -1.7058E-02 -1.2839E-02
      95-
 mid.  surface     3.7126E-03  3.1329E-03 -1.0770E-02 -7.6913E-04 -1.8169E-02 -2.2111E-02
     100-
 mid.  surface     2.9657E-03  1.6163E-02 -1.7601E-02  1.2834E-03  2.8781E-03 -2.4953E-03
     110-
 mid.  surface     3.5289E-03  8.5345E-03 -1.7596E-02  1.6239E-03  8.4572E-03 -3.6098E-04



 n o d a l  s t r e s s  c a l c u l a t i o n s   f o r   t i m e  s t e p      460   ( at time 4.53745E+00 )

 node (global)
          stress       sig-xx      sig-yy      sig-zz      sig-xy      sig-yz      sig-zx       plastic
                                                                                                 strain 
       4-
 mid.  surface     2.3318E+09  2.3253E+09  1.8345E+09 -7.1442E+07 -2.2781E+07 -8.0625E+08 -2.4718E-02
       5-
 mid.  surface     3.8520E+09  3.7957E+09  3.3747E+09  3.7938E+07 -1.3049E+08 -9.3547E+08 -3.4946E-02
       6-
 mid.  surface    -9.1136E+08 -8.3571E+08 -1.2508E+09  1.4302E+07 -3.3179E+06 -8.1391E+07  6.5918E-02
       7-
 mid.  surface    -4.6365E+08 -3.2244E+08 -6.6014E+08 -2.1376E+07 -3.7845E+07  1.5464E+08  1.6269E-02
       8-
 mid.  surface     3.8796E+08  4.9670E+08  1.2601E+08 -1.6516E+06 -9.1655E+07  9.1535E+07  4.0849E-02
       9-
 mid.  surface    -7.9187E+07 -6.4906E+07 -2.4464E+08 -4.3409E+07 -6.3600E+07  3.0763E+07  9.3569E-03
      10-
 mid.  surface     3.3363E+08  4.2686E+08  2.3433E+08 -1.0665E+07 -1.2837E+08  3.0530E+06  5.1348E-03
      15-
 mid.  surface    -2.9386E+08 -3.9820E+08 -5.9823E+08  3.5940E+07  1.4813E+08  1.0010E+08  8.9787E-03
      16-
 mid.  surface    -1.3076E+09 -1.4100E+09 -1.5652E+09 -4.3901E+07  2.4123E+08  1.3186E+08  5.9023E-02
      18-
 mid.  surface     5.2288E+08  5.8477E+08  3.0392E+08  7.3794E+07 -1.0129E+08  2.0431E+07  3.6405E-02
      40-
 mid.  surface     1.8775E+08  2.8118E+08 -9.0899E+06  8.6509E+07 -2.4500E+06 -5.0480E+07  4.7025E-02
      41-
 mid.  surface    -4.7871E+07  7.8028E+07 -1.6699E+08  9.8578E+06  4.7106E+07  7.8264E+06  7.8714E-03
      50-
 mid.  surface    -1.9300E+09 -1.9773E+09 -1.8233E+09 -4.9924E+07  1.5414E+07  3.6497E+08  7.1905E-02
      51-
 mid.  surface     1.2526E+08  5.1227E+07 -1.1927E+08  4.4348E+06 -8.8461E+07  5.3835E+08 -2.0436E-02
      52-
 mid.  surface     1.0358E+09  9.2412E+08  5.2235E+08  9.9430E+06 -7.2446E+07  1.4198E+08 -4.3739E-03
      53-
 mid.  surface    -1.4501E+09 -1.3941E+09 -1.3486E+09 -3.6516E+07 -8.1544E+07  1.3393E+08  9.1506E-02
      72-
 mid.  surface    -2.7753E+08 -4.3819E+08 -3.7891E+08  3.8734E+07 -1.0748E+08 -1.3556E+08  2.3853E-02
      95-
 mid.  surface    -3.0392E+08 -2.5232E+08 -3.5533E+08 -1.9268E+07 -1.3650E+08 -2.1593E+08  3.8727E-02
     100-
 mid.  surface     1.8255E+08  2.9078E+08 -8.8784E+07  1.3729E+07  4.8514E+06 -5.6132E+07  4.8928E-02
     110-
 mid.  surface    -3.7735E+08 -3.5959E+08 -5.6240E+08 -1.6519E+07  1.0370E+08 -1.1964E+07  1.2620E-02



 n o d a l  s t r a i n  c a l c u l a t i o n s   f o r   t i m e  s t e p      460   ( at time 4.53745E+00 )

 node (global)
          strain       eps-xx      eps-yy      eps-zz      eps-xy      eps-yz      eps-zx       
       4-
 mid.  surface     2.7498E-02  1.4608E-02 -1.4495E-02  5.9921E-04  4.2772E-04 -7.3864E-02
       5-
 mid.  surface     2.8115E-02 -2.3944E-03  2.0854E-02  1.8626E-03 -1.6149E-03 -7.5852E-02
       6-
 mid.  surface     2.3176E-03  5.0836E-03 -2.3656E-02 -4.6568E-03  9.2261E-03  1.1019E-02
       7-
 mid.  surface     9.7115E-03  1.5711E-02 -3.2465E-02  1.8973E-03  6.1912E-03  1.5773E-02
       8-
 mid.  surface     5.7708E-03  1.8265E-02 -1.9269E-02 -1.2432E-05 -1.3283E-02  3.1816E-03
       9-
 mid.  surface     5.0871E-03  8.9612E-03 -1.5943E-02 -3.6897E-03 -1.3590E-02  2.6542E-03
      10-
 mid.  surface     2.1581E-03  9.0018E-03 -6.3987E-03 -2.0183E-03 -1.7050E-02  1.7716E-03
      15-
 mid.  surface     1.2432E-02  3.4627E-03 -2.2179E-02  5.3218E-03  2.0519E-02  1.0998E-02
      16-
 mid.  surface     7.2095E-03  7.1335E-03 -3.2147E-02 -5.9307E-03  2.7071E-02  1.6796E-02
      18-
 mid.  surface     4.1998E-03  1.1481E-02 -8.9948E-03  5.2558E-03 -1.3195E-02 -1.7978E-03
      40-
 mid.  surface     7.9600E-04  1.4701E-02 -1.3477E-02  6.3111E-03  2.1135E-03 -1.1572E-03
      41-
 mid.  surface     1.5255E-04  1.2181E-02 -1.3022E-02  1.5353E-03  4.9089E-03  1.7675E-03
      50-
 mid.  surface    -5.3618E-03  3.7728E-03 -1.9512E-02 -1.0624E-02 -1.6895E-02 -1.3701E-02
      51-
 mid.  surface     3.0404E-02  1.9627E-02 -4.5754E-02  1.0796E-02 -6.5213E-03  5.4350E-02
      52-
 mid.  surface     3.2023E-02 -3.8562E-03 -2.1049E-02  3.3944E-04  4.6961E-03  5.0175E-02
      53-
 mid.  surface    -5.4427E-03 -3.9236E-03 -8.6818E-03 -1.2582E-02 -1.7818E-02 -2.6251E-02
      72-
 mid.  surface     6.8659E-03 -2.6143E-03 -9.6120E-03  3.1943E-03 -1.8668E-02 -1.3673E-02
      95-
 mid.  surface     6.4656E-03  7.1217E-03 -1.8095E-02  7.1964E-04 -1.8002E-02 -2.3999E-02
     100-
 mid.  surface     5.2824E-03  2.0338E-02 -2.3977E-02  1.7269E-03  4.1658E-03 -2.5732E-03
     110-
 mid.  surface     6.1019E-03  1.1947E-02 -2.4280E-02  1.3580E-03  8.3234E-03 -1.3936E-03



 n o d a l  s t r e s s  c a l c u l a t i o n s   f o r   t i m e  s t e p      466   ( at time 5.39311E+00 )

 node (global)
          stress       sig-xx      sig-yy      sig-zz      sig-xy      sig-yz      sig-zx       plastic
                                                                                                 strain 
       4-
 mid.  surface     1.8109E+09  1.9603E+09  1.2287E+09  1.1128E+07  7.8979E+06 -4.2930E+08 -2.0418E-02
       5-
 mid.  surface     3.5759E+09  3.6675E+09  2.8699E+09  2.0322E+08 -7.9705E+07 -5.9174E+08 -3.6031E-02
       6-
 mid.  surface    -8.9800E+08 -8.7739E+08 -1.2757E+09  4.2238E+07 -5.8755E+07 -1.2353E+08  7.2831E-02
       7-
 mid.  surface    -4.8298E+08 -3.6905E+08 -7.0686E+08 -1.8813E+07 -8.1439E+07  1.0738E+08  2.1147E-02
       8-
 mid.  surface     4.2608E+08  5.0716E+08  1.2593E+08  7.6177E+06 -9.8962E+07  5.1320E+07  4.4996E-02
       9-
 mid.  surface    -1.3760E+08 -1.4028E+08 -3.2862E+08 -2.9119E+07 -3.7182E+07  1.7744E+07  1.5565E-02
      10-
 mid.  surface     3.9616E+08  4.7832E+08  2.5945E+08 -1.1265E+07 -9.4266E+07  2.1223E+06  9.2718E-03
      15-
 mid.  surface    -2.8345E+08 -3.4112E+08 -5.3366E+08  2.5274E+07  1.6653E+07  3.1985E+07  1.3052E-02
      16-
 mid.  surface    -1.2365E+09 -1.4074E+09 -1.3834E+09 -7.1356E+07  1.3358E+08  3.7918E+07  6.6648E-02
      18-
 mid.  surface     6.4257E+08  7.1039E+08  3.8962E+08  5.7840E+07 -1.2196E+08 -8.5469E+06  3.9157E-02
      40-
 mid.  surface     2.6606E+08  3.5635E+08 -3.3990E+06  6.1785E+07  1.4488E+07 -2.1928E+07  4.9854E-02
      41-
 mid.  surface    -5.2209E+05  8.6391E+07 -1.2396E+08  9.3489E+06  2.0039E+07  2.3402E+06  1.3211E-02
      50-
 mid.  surface    -1.8653E+09 -1.9768E+09 -1.6317E+09 -9.7670E+07  1.8306E+07  2.1988E+08  7.6339E-02
      51-
 mid.  surface     2.0197E+08  1.2138E+08  3.6479E+07 -7.4784E+07 -4.9034E+07  4.8263E+08 -1.9422E-02
      52-
 mid.  surface     1.0477E+09  1.0109E+09  4.0263E+08  1.0829E+07 -1.9418E+07  9.6740E+07 -3.4642E-03
      53-
 mid.  surface    -1.3543E+09 -1.3831E+09 -1.3486E+09 -5.4141E+07 -2.1416E+07  3.5074E+07  9.5192E-02
      72-
 mid.  surface    -2.4591E+08 -3.6701E+08 -4.3749E+08  4.8939E+07 -4.7869E+07 -9.8125E+07  2.7860E-02
      95-
 mid.  surface    -2.9773E+08 -2.7432E+08 -5.2122E+08  3.3994E+06 -2.7629E+07 -1.3967E+08  4.2861E-02
     100-
 mid.  surface     1.7747E+08  2.6220E+08 -1.4672E+08  9.6077E+06  3.7139E+07 -3.1426E+07  5.3457E-02
     110-
 mid.  surface    -4.3302E+08 -4.5167E+08 -6.1559E+08 -5.0763E+06  6.6768E+07 -2.5415E+07  2.0141E-02



 n o d a l  s t r a i n  c a l c u l a t i o n s   f o r   t i m e  s t e p      466   ( at time 5.39311E+00 )

 node (global)
          strain       eps-xx      eps-yy      eps-zz      eps-xy      eps-yz      eps-zx       
       4-
 mid.  surface     2.5496E-02  1.6481E-02 -1.8572E-02 -2.7950E-04  1.3412E-03 -7.4430E-02
       5-
 mid.  surface     2.3163E-02 -2.1810E-03  2.5514E-02  6.1020E-03 -1.9814E-03 -7.8905E-02
       6-
 mid.  surface     6.9540E-03  6.1462E-03 -2.8239E-02 -3.7945E-03  7.6880E-03  8.8084E-03
       7-
 mid.  surface     1.1269E-02  1.9048E-02 -3.7905E-02  1.9032E-03  3.8325E-03  1.7026E-02
       8-
 mid.  surface     7.9098E-03  2.1337E-02 -2.4277E-02  3.7298E-04 -1.5404E-02  3.4880E-03
       9-
 mid.  surface     7.1759E-03  1.1194E-02 -2.1307E-02 -4.0895E-03 -1.3989E-02  2.8931E-03
      10-
 mid.  surface     3.0741E-03  1.1718E-02 -9.3698E-03 -2.4095E-03 -1.7994E-02  1.9733E-03
      15-
 mid.  surface     1.3912E-02  5.3577E-03 -2.4926E-02  5.7183E-03  1.9047E-02  1.0404E-02
      16-
 mid.  surface     1.3930E-02  7.9303E-03 -3.9946E-02 -7.5787E-03  2.8170E-02  1.4827E-02
      18-
 mid.  surface     5.5133E-03  1.4297E-02 -1.1568E-02  5.9431E-03 -1.5536E-02 -2.4680E-03
      40-
 mid.  surface     1.9710E-03  1.7748E-02 -1.6965E-02  6.9159E-03  2.6527E-03 -9.5716E-04
      41-
 mid.  surface     1.1722E-03  1.4764E-02 -1.6158E-02  1.7740E-03  4.2496E-03  1.8538E-03
      50-
 mid.  surface    -1.7064E-03  5.5623E-03 -2.7867E-02 -1.1042E-02 -1.6837E-02 -1.3089E-02
      51-
 mid.  surface     3.1014E-02  2.2562E-02 -5.0892E-02  9.0527E-03 -7.0614E-03  5.9515E-02
      52-
 mid.  surface     3.1688E-02 -3.4347E-03 -1.8503E-02 -2.6627E-04  5.6862E-03  5.1522E-02
      53-
 mid.  surface    -2.1318E-03 -2.8375E-03 -1.4135E-02 -1.2384E-02 -1.7656E-02 -2.6944E-02
      72-
 mid.  surface     8.7284E-03 -1.2345E-03 -1.2653E-02  4.3334E-03 -1.9295E-02 -1.4277E-02
      95-
 mid.  surface     8.8056E-03  9.5644E-03 -2.3754E-02  1.3298E-03 -1.7473E-02 -2.5163E-02
     100-
 mid.  surface     7.4877E-03  2.3621E-02 -2.9924E-02  1.9233E-03  5.3334E-03 -2.8878E-03
     110-
 mid.  surface     8.6348E-03  1.4105E-02 -2.9934E-02  1.6899E-03  8.1437E-03 -2.2576E-03



 n o d a l  s t r e s s  c a l c u l a t i o n s   f o r   t i m e  s t e p      474   ( at time 6.74925E+00 )

 node (global)
          stress       sig-xx      sig-yy      sig-zz      sig-xy      sig-yz      sig-zx       plastic
                                                                                                 strain 
       4-
 mid.  surface     1.1068E+09  1.3043E+09  6.2816E+08  5.5591E+07 -3.9489E+05 -1.2052E+08 -2.7830E-03
       5-
 mid.  surface     3.3555E+09  3.4897E+09  2.5796E+09  2.1131E+08 -5.4134E+07 -2.0950E+08 -2.5798E-02
       6-
 mid.  surface    -7.6042E+08 -7.6125E+08 -1.2022E+09  4.7107E+07 -1.1313E+08 -1.2519E+08  8.4919E-02
       7-
 mid.  surface    -4.9387E+08 -4.4100E+08 -7.2953E+08 -1.9959E+07 -1.0857E+08  4.7398E+07  3.0004E-02
       8-
 mid.  surface     4.8834E+08  5.1996E+08  1.6019E+08  9.8140E+06 -7.9104E+07  2.3682E+07  5.2186E-02
       9-
 mid.  surface    -1.9585E+08 -2.0792E+08 -4.1924E+08 -1.4399E+07 -2.1533E+07  2.9280E+06  2.6506E-02
      10-
 mid.  surface     4.9661E+08  5.4258E+08  3.1367E+08 -1.0308E+07 -9.2836E+07 -2.8450E+06  1.7906E-02
      15-
 mid.  surface    -3.2015E+08 -3.2050E+08 -5.0986E+08  5.9919E+06 -9.9642E+07 -1.8830E+07  2.2396E-02
      16-
 mid.  surface    -1.2939E+09 -1.4027E+09 -1.3211E+09 -5.6451E+07 -1.9614E+07 -8.2526E+07  7.7223E-02
      18-
 mid.  surface     7.7863E+08  8.2971E+08  5.0933E+08  2.5744E+07 -1.2946E+08 -2.0634E+07  4.5896E-02
      40-
 mid.  surface     3.4750E+08  4.1375E+08  6.2886E+07  2.6498E+07  2.3067E+07  8.4007E+05  5.7835E-02
      41-
 mid.  surface     5.0633E+07  7.8792E+07 -9.8929E+07  1.3906E+07 -1.1285E+07 -3.3736E+06  2.4288E-02
      50-
 mid.  surface    -1.9884E+09 -2.0864E+09 -1.7398E+09 -7.7020E+07  5.3058E+07  8.9675E+07  7.8344E-02
      51-
 mid.  surface     3.3470E+06 -1.1191E+08  1.4756E+07 -1.4109E+08  7.2287E+07  2.8347E+08 -1.6185E-02
      52-
 mid.  surface     1.1926E+09  1.1316E+09  4.3653E+08 -2.2665E+07  8.4425E+07  1.1449E+08  5.7011E-03
      53-
 mid.  surface    -1.2377E+09 -1.3065E+09 -1.4124E+09 -3.4713E+07  4.7137E+07  2.0561E+07  9.8279E-02
      72-
 mid.  surface    -2.8286E+08 -3.3325E+08 -5.0636E+08  4.2513E+07 -8.8683E+06 -4.0694E+07  3.7468E-02
      95-
 mid.  surface    -3.0112E+08 -2.9696E+08 -5.9236E+08  8.5247E+06  4.6664E+07 -4.8520E+07  5.1897E-02
     100-
 mid.  surface     1.6951E+08  2.1419E+08 -1.4221E+08 -4.2969E+05  8.3180E+07 -5.0619E+05  6.4020E-02
     110-
 mid.  surface    -5.1833E+08 -5.6714E+08 -7.0088E+08  9.0288E+06  5.6313E+07 -2.6845E+07  3.4716E-02



 n o d a l  s t r a i n  c a l c u l a t i o n s   f o r   t i m e  s t e p      474   ( at time 6.74925E+00 )

 node (global)
          strain       eps-xx      eps-yy      eps-zz      eps-xy      eps-yz      eps-zx       
       4-
 mid.  surface     2.4418E-02  1.9173E-02 -2.7890E-02 -7.6328E-04  2.2927E-03 -7.3157E-02
       5-
 mid.  surface     1.9673E-02 -7.3021E-05  2.5965E-02  1.0478E-02 -2.7828E-03 -7.9867E-02
       6-
 mid.  surface     1.3900E-02  8.9376E-03 -3.5724E-02 -3.5058E-03  4.0851E-03  5.0881E-03
       7-
 mid.  surface     1.4333E-02  2.3470E-02 -4.5936E-02  1.2737E-03 -5.5998E-04  1.8218E-02
       8-
 mid.  surface     1.2222E-02  2.5569E-02 -3.2365E-02  7.9387E-04 -1.8881E-02  3.8656E-03
       9-
 mid.  surface     1.1411E-02  1.5274E-02 -3.0705E-02 -4.7612E-03 -1.5028E-02  2.9900E-03
      10-
 mid.  surface     5.8906E-03  1.6690E-02 -1.6160E-02 -3.2425E-03 -2.0544E-02  2.1255E-03
      15-
 mid.  surface     1.6366E-02  9.3402E-03 -3.1359E-02  5.5628E-03  1.4645E-02  9.0491E-03
      16-
 mid.  surface     2.2318E-02  1.0321E-02 -5.1514E-02 -9.4428E-03  2.6907E-02  1.0924E-02
      18-
 mid.  surface     8.7204E-03  1.8839E-02 -1.7585E-02  6.3076E-03 -2.0410E-02 -3.6085E-03
      40-
 mid.  surface     5.3511E-03  2.3176E-02 -2.4856E-02  7.3358E-03  4.4066E-03 -6.9905E-04
      41-
 mid.  surface     4.5506E-03  1.9139E-02 -2.3614E-02  2.3740E-03  3.7635E-03  1.7766E-03
      50-
 mid.  surface     3.9271E-03  9.3914E-03 -4.1239E-02 -1.0211E-02 -1.5418E-02 -1.1691E-02
      51-
 mid.  surface     3.3803E-02  2.5608E-02 -6.0540E-02  5.9405E-03 -5.2943E-03  6.4250E-02
      52-
 mid.  surface     3.3978E-02 -1.8011E-03 -1.9585E-02 -2.6931E-03  8.5720E-03  5.2579E-02
      53-
 mid.  surface     3.8335E-03  7.1991E-04 -2.3961E-02 -1.1521E-02 -1.6128E-02 -2.6259E-02
      72-
 mid.  surface     1.2332E-02  2.6136E-03 -2.0504E-02  5.7312E-03 -1.8644E-02 -1.4686E-02
      95-
 mid.  surface     1.3028E-02  1.4237E-02 -3.3176E-02  1.7588E-03 -1.5077E-02 -2.5480E-02
     100-
 mid.  surface     1.2088E-02  2.9022E-02 -4.0244E-02  1.7919E-03  8.7999E-03 -2.7014E-03
     110-
 mid.  surface     1.4187E-02  1.7686E-02 -4.0478E-02  2.3933E-03  9.1139E-03 -3.5960E-03



 n o d a l  s t r e s s  c a l c u l a t i o n s   f o r   t i m e  s t e p      482   ( at time 8.10539E+00 )

 node (global)
          stress       sig-xx      sig-yy      sig-zz      sig-xy      sig-yz      sig-zx       plastic
                                                                                                 strain 
       4-
 mid.  surface     7.2848E+08  8.4412E+08  2.1328E+08  7.3655E+07 -1.5339E+07  1.4084E+07  1.6148E-02
       5-
 mid.  surface     3.2770E+09  3.3733E+09  2.5111E+09  1.7071E+08 -4.6528E+07 -9.2198E+06 -5.7882E-03
       6-
 mid.  surface    -5.8990E+08 -6.1816E+08 -1.0780E+09  4.6646E+07 -1.1983E+08 -8.9265E+07  9.7710E-02
       7-
 mid.  surface    -4.4218E+08 -4.3853E+08 -6.9666E+08 -1.1368E+07 -1.2379E+08  9.2912E+06  3.8150E-02
       8-
 mid.  surface     5.2359E+08  5.3507E+08  2.0986E+08  1.4951E+07 -7.2866E+07  1.5053E+07  6.0773E-02
       9-
 mid.  surface    -2.7453E+08 -2.7379E+08 -5.0701E+08 -1.0043E+07 -1.7483E+07 -5.2901E+06  3.8058E-02
      10-
 mid.  surface     5.8150E+08  6.3164E+08  3.8376E+08 -1.1196E+07 -5.8865E+07 -5.9053E+06  2.6820E-02
      15-
 mid.  surface    -3.0805E+08 -2.7746E+08 -4.9979E+08  5.9636E+06 -1.4087E+08 -4.6018E+07  3.1739E-02
      16-
 mid.  surface    -1.3439E+09 -1.3853E+09 -1.3697E+09 -2.8437E+07 -9.6426E+07 -1.3527E+08  8.3402E-02
      18-
 mid.  surface     9.0038E+08  9.5248E+08  6.4147E+08  1.4994E+07 -1.0572E+08 -2.1008E+07  5.3602E-02
      40-
 mid.  surface     3.8509E+08  4.2717E+08  1.0506E+08  1.2955E+07  3.4660E+07  1.0244E+07  6.6525E-02
      41-
 mid.  surface     7.3033E+07  8.1575E+07 -1.1457E+08  8.2198E+06 -2.1271E+07 -5.9662E+06  3.3765E-02
      50-
 mid.  surface    -2.1662E+09 -2.2119E+09 -1.9303E+09 -5.0027E+07  6.8895E+07  1.5604E+07  7.5654E-02
      51-
 mid.  surface    -3.1799E+08 -3.9823E+08 -1.8676E+08 -1.5178E+08  1.2751E+08  1.0206E+08 -1.5387E-02
      52-
 mid.  surface     1.2408E+09  1.1683E+09  5.4419E+08 -2.4570E+07  1.2396E+08  9.7657E+07  2.2988E-02
      53-
 mid.  surface    -1.2364E+09 -1.2926E+09 -1.4212E+09 -7.1701E+06  8.4125E+07  3.6258E+07  1.0254E-01
      72-
 mid.  surface    -3.6077E+08 -3.8241E+08 -6.0530E+08  3.2225E+07  1.6690E+07 -6.3312E+06  4.7854E-02
      95-
 mid.  surface    -3.5107E+08 -3.6404E+08 -6.4635E+08  6.3903E+06  7.1678E+07 -3.2432E+06  6.1464E-02
     100-
 mid.  surface     1.1573E+08  1.3243E+08 -1.8641E+08 -4.2186E+06  7.9166E+07  3.3564E+06  7.4693E-02
     110-
 mid.  surface    -6.2794E+08 -6.8261E+08 -8.5039E+08  4.4297E+06  1.8478E+07 -3.3739E+07  4.7237E-02



 n o d a l  s t r a i n  c a l c u l a t i o n s   f o r   t i m e  s t e p      482   ( at time 8.10539E+00 )

 node (global)
          strain       eps-xx      eps-yy      eps-zz      eps-xy      eps-yz      eps-zx       
       4-
 mid.  surface     2.5370E-02  2.0973E-02 -3.6495E-02 -6.2102E-04  3.1586E-03 -7.0150E-02
       5-
 mid.  surface     1.9950E-02  2.8974E-03  2.1574E-02  1.2509E-02 -3.0995E-03 -7.8436E-02
       6-
 mid.  surface     2.0152E-02  1.2289E-02 -4.3270E-02 -3.2047E-03  3.8117E-04  1.8215E-03
       7-
 mid.  surface     1.8181E-02  2.6964E-02 -5.2892E-02  1.0632E-03 -5.5492E-03  1.8126E-02
       8-
 mid.  surface     1.6581E-02  2.9604E-02 -4.0342E-02  1.4143E-03 -2.1984E-02  4.1726E-03
       9-
 mid.  surface     1.5586E-02  2.0261E-02 -4.1028E-02 -5.2670E-03 -1.5646E-02  2.8470E-03
      10-
 mid.  surface     8.5322E-03  2.2496E-02 -2.3486E-02 -3.9170E-03 -2.1506E-02  2.1268E-03
      15-
 mid.  surface     1.8979E-02  1.4364E-02 -3.8714E-02  5.5923E-03  9.8841E-03  7.1851E-03
      16-
 mid.  surface     2.8591E-02  1.3780E-02 -6.1668E-02 -9.7327E-03  2.3899E-02  6.9655E-03
      18-
 mid.  surface     1.1674E-02  2.3725E-02 -2.3674E-02  6.5437E-03 -2.3733E-02 -4.4833E-03
      40-
 mid.  surface     8.8887E-03  2.7631E-02 -3.2460E-02  7.5352E-03  6.1828E-03 -3.0968E-04
      41-
 mid.  surface     7.8807E-03  2.3240E-02 -3.1024E-02  2.5696E-03  2.7616E-03  1.5968E-03
      50-
 mid.  surface     9.3757E-03  1.3629E-02 -5.3393E-02 -8.4274E-03 -1.3818E-02 -1.0739E-02
      51-
 mid.  surface     3.6720E-02  2.7059E-02 -6.8808E-02  3.0867E-03 -2.7345E-03  6.5450E-02
      52-
 mid.  surface     3.6800E-02  3.7101E-04 -2.3702E-02 -4.8255E-03  1.1408E-02  5.1412E-02
      53-
 mid.  surface     9.5869E-03  4.9379E-03 -3.4022E-02 -9.7003E-03 -1.3993E-02 -2.5004E-02
      72-
 mid.  surface     1.6385E-02  6.8317E-03 -2.9927E-02  6.7097E-03 -1.6579E-02 -1.4095E-02
      95-
 mid.  surface     1.7384E-02  1.8043E-02 -4.2222E-02  2.0570E-03 -1.2222E-02 -2.5132E-02
     100-
 mid.  surface     1.6702E-02  3.3271E-02 -5.0030E-02  1.5474E-03  1.1103E-02 -2.8730E-03
     110-
 mid.  surface     1.9593E-02  2.1118E-02 -5.1147E-02  2.5158E-03  8.3903E-03 -5.3026E-03



 n o d a l  s t r e s s  c a l c u l a t i o n s   f o r   t i m e  s t e p      490   ( at time 9.46152E+00 )

 node (global)
          stress       sig-xx      sig-yy      sig-zz      sig-xy      sig-yz      sig-zx       plastic
                                                                                                 strain 
       4-
 mid.  surface     1.8963E+08  3.1345E+08  5.7466E+07  1.6871E+07 -1.3858E+07 -1.7764E+07  2.7932E-02
       5-
 mid.  surface     2.9259E+09  3.0747E+09  2.8104E+09  6.5135E+07 -2.8576E+07 -1.6194E+07  7.8139E-03
       6-
 mid.  surface    -5.8850E+08 -6.0162E+08 -8.8290E+08  1.8364E+07 -1.1484E+08 -9.8708E+07  1.0811E-01
       7-
 mid.  surface    -4.0746E+08 -4.3336E+08 -6.7201E+08 -1.4772E+07 -1.2013E+08 -1.0662E+07  4.5368E-02
       8-
 mid.  surface     5.6100E+08  5.6465E+08  2.5831E+08  1.7081E+07 -6.7640E+07  2.9492E+06  6.9356E-02
       9-
 mid.  surface    -3.3196E+08 -3.3021E+08 -5.7274E+08 -4.1894E+06 -2.5203E+07 -1.0116E+07  4.9207E-02
      10-
 mid.  surface     6.7061E+08  7.0871E+08  4.4949E+08 -1.0516E+07 -5.5308E+07 -7.7489E+06  3.5691E-02
      15-
 mid.  surface    -3.3373E+08 -2.8661E+08 -5.3782E+08 -2.4287E+06 -1.6556E+08 -5.8043E+07  4.0455E-02
      16-
 mid.  surface    -1.3650E+09 -1.3629E+09 -1.6004E+09  2.7762E+06 -1.4973E+08 -1.4269E+08  9.1034E-02
      18-
 mid.  surface     1.0045E+09  1.0499E+09  7.4498E+08  7.7298E+06 -9.8973E+07 -2.2793E+07  6.1733E-02
      40-
 mid.  surface     4.0036E+08  4.1899E+08  1.1502E+08  1.5170E+06  4.3581E+07  1.2721E+07  7.5828E-02
      41-
 mid.  surface     7.0075E+07  5.5206E+07 -1.5061E+08  9.0851E+06 -1.9415E+07 -7.4104E+06  4.3293E-02
      50-
 mid.  surface    -2.0616E+09 -2.1251E+09 -2.4321E+09  3.1849E+07  6.3094E+07  6.2284E+07  7.9345E-02
      51-
 mid.  surface    -3.7433E+08 -4.9945E+08 -6.4766E+08 -1.1971E+08  1.7168E+08  1.0368E+08 -1.0827E-02
      52-
 mid.  surface     1.2640E+09  1.1903E+09  9.9568E+08 -8.0048E+07  1.6009E+08  8.2770E+07  3.6745E-02
      53-
 mid.  surface    -1.1112E+09 -1.1688E+09 -1.4884E+09  3.6079E+07  1.0356E+08  9.6200E+07  1.1110E-01
      72-
 mid.  surface    -4.3404E+08 -4.4959E+08 -7.0226E+08  2.1918E+07  2.7213E+07  1.1535E+07  5.8188E-02
      95-
 mid.  surface    -3.8716E+08 -4.0368E+08 -6.6942E+08  1.1172E+06  9.1693E+07  2.7318E+07  7.1300E-02
     100-
 mid.  surface     4.0069E+07  4.6386E+07 -2.4393E+08 -1.0748E+07  8.2669E+07  5.9436E+06  8.5868E-02
     110-
 mid.  surface    -7.5319E+08 -8.1542E+08 -9.9389E+08  7.1610E+06  8.3371E+06 -3.1666E+07  5.9508E-02



 n o d a l  s t r a i n  c a l c u l a t i o n s   f o r   t i m e  s t e p      490   ( at time 9.46152E+00 )

 node (global)
          strain       eps-xx      eps-yy      eps-zz      eps-xy      eps-yz      eps-zx       
       4-
 mid.  surface     2.4699E-02  2.2530E-02 -4.3083E-02 -1.5352E-03  4.7963E-03 -6.7528E-02
       5-
 mid.  surface     1.8354E-02  6.0618E-03  1.8438E-02  1.2916E-02 -2.6146E-03 -7.6510E-02
       6-
 mid.  surface     2.5632E-02  1.5356E-02 -5.0825E-02 -3.4412E-03 -2.1942E-03 -1.0297E-03
       7-
 mid.  surface     2.1945E-02  2.9469E-02 -5.8875E-02  5.3149E-04 -9.8495E-03  1.7401E-02
       8-
 mid.  surface     2.0894E-02  3.3343E-02 -4.7898E-02  2.0781E-03 -2.4724E-02  3.9336E-03
       9-
 mid.  surface     1.9766E-02  2.5059E-02 -5.0919E-02 -5.5037E-03 -1.6638E-02  2.5973E-03
      10-
 mid.  surface     1.1653E-02  2.8143E-02 -3.1197E-02 -4.4990E-03 -2.2532E-02  2.0989E-03
      15-
 mid.  surface     2.1154E-02  1.9475E-02 -4.6365E-02  5.1809E-03  5.2870E-03  5.5054E-03
      16-
 mid.  surface     3.3784E-02  1.7544E-02 -7.1729E-02 -1.0155E-02  2.0731E-02  3.1204E-03
      18-
 mid.  surface     1.4831E-02  2.8652E-02 -3.0349E-02  6.5821E-03 -2.6598E-02 -5.3506E-03
      40-
 mid.  surface     1.2955E-02  3.1863E-02 -4.0734E-02  7.2865E-03  8.3352E-03  1.2852E-04
      41-
 mid.  surface     1.1835E-02  2.7021E-02 -3.9103E-02  2.9103E-03  2.1843E-03  1.4121E-03
      50-
 mid.  surface     1.5810E-02  1.8038E-02 -6.5821E-02 -6.1666E-03 -1.2549E-02 -9.8940E-03
      51-
 mid.  surface     4.0084E-02  2.7760E-02 -7.5846E-02 -2.3652E-04  5.2000E-04  6.7115E-02
      52-
 mid.  surface     4.0223E-02  3.1190E-03 -2.7567E-02 -7.2828E-03  1.3456E-02  5.0950E-02
      53-
 mid.  surface     1.5905E-02  9.6388E-03 -4.4308E-02 -7.4347E-03 -1.2174E-02 -2.3076E-02
      72-
 mid.  surface     2.0721E-02  1.1256E-02 -3.9899E-02  7.3205E-03 -1.3966E-02 -1.2848E-02
      95-
 mid.  surface     2.1541E-02  2.1677E-02 -5.0556E-02  2.0503E-03 -9.3413E-03 -2.4077E-02
     100-
 mid.  surface     2.1269E-02  3.7249E-02 -5.9681E-02  9.3018E-04  1.3353E-02 -2.9161E-03
     110-
 mid.  surface     2.5080E-02  2.4260E-02 -6.1734E-02  2.8470E-03  7.7042E-03 -6.6878E-03



 n o d a l  s t r e s s  c a l c u l a t i o n s   f o r   t i m e  s t e p      496   ( at time 1.08177E+01 )

 node (global)
          stress       sig-xx      sig-yy      sig-zz      sig-xy      sig-yz      sig-zx       plastic
                                                                                                 strain 
       4-
 mid.  surface     1.1810E+07  8.1198E+07 -2.0484E+08  1.4352E+07 -9.0092E+06 -2.1454E+07  3.5562E-02
       5-
 mid.  surface     2.9282E+09  3.0213E+09  2.7334E+09  2.7602E+07 -1.3411E+07  2.9636E+06  1.4940E-02
       6-
 mid.  surface    -5.0322E+08 -5.2990E+08 -8.1169E+08  3.2521E+06 -8.8953E+07 -7.5052E+07  1.1643E-01
       7-
 mid.  surface    -3.6578E+08 -3.9012E+08 -6.4120E+08  1.7062E+06 -1.0159E+08 -2.8775E+07  5.3850E-02
       8-
 mid.  surface     5.6367E+08  5.5716E+08  2.6168E+08  2.2561E+07 -6.4985E+07 -1.6766E+06  7.8022E-02
       9-
 mid.  surface    -3.6186E+08 -3.4629E+08 -6.1423E+08  1.4304E+06 -3.4415E+07 -8.1649E+06  5.8716E-02
      10-
 mid.  surface     7.4783E+08  8.1270E+08  5.2221E+08 -8.7041E+06 -3.8475E+07 -4.6731E+06  4.3116E-02
      15-
 mid.  surface    -2.8500E+08 -2.4992E+08 -5.1197E+08  1.2488E+07 -1.2767E+08 -5.9115E+07  4.9212E-02
      16-
 mid.  surface    -1.3599E+09 -1.3772E+09 -1.6296E+09  8.3601E+06 -1.1728E+08 -1.1197E+08  1.0007E-01
      18-
 mid.  surface     1.0674E+09  1.1098E+09  8.0579E+08  9.2721E+06 -8.4797E+07 -2.0088E+07  6.9522E-02
      40-
 mid.  surface     3.8319E+08  4.2244E+08  9.0233E+07  4.7584E+06  3.0737E+07  1.0524E+07  8.3530E-02
      41-
 mid.  surface     3.5478E+07  3.6407E+07 -2.0748E+08  2.5292E+05 -1.0795E+07 -5.5630E+06  5.0678E-02
      50-
 mid.  surface    -2.1764E+09 -2.2383E+09 -2.5358E+09  3.1263E+07  3.7605E+07  2.5257E+07  8.8482E-02
      51-
 mid.  surface    -5.4037E+08 -6.6444E+08 -8.4414E+08 -6.5332E+07  1.1595E+08  2.5677E+07 -1.6570E-03
      52-
 mid.  surface     1.3049E+09  1.2297E+09  1.0073E+09 -4.5125E+07  1.1081E+08  3.8965E+07  4.5676E-02
      53-
 mid.  surface    -1.1553E+09 -1.1994E+09 -1.5140E+09  2.5867E+07  6.3144E+07  5.5080E+07  1.2049E-01
      72-
 mid.  surface    -5.1772E+08 -5.2274E+08 -8.0879E+08  2.4390E+07  2.5972E+07  3.0651E+06  6.6731E-02
      95-
 mid.  surface    -4.7641E+08 -4.8304E+08 -7.7767E+08  7.9530E+06  6.1604E+07  1.0023E+07  8.0030E-02
     100-
 mid.  surface    -4.7936E+07 -3.3965E+07 -3.5360E+08 -2.1057E+05  5.2850E+07  3.9209E+06  9.4993E-02
     110-
 mid.  surface    -8.8692E+08 -9.3923E+08 -1.1606E+09  2.3745E+06 -1.1322E+07 -2.5380E+07  6.8963E-02



 n o d a l  s t r a i n  c a l c u l a t i o n s   f o r   t i m e  s t e p      496   ( at time 1.08177E+01 )

 node (global)
          strain       eps-xx      eps-yy      eps-zz      eps-xy      eps-yz      eps-zx       
       4-
 mid.  surface     2.6950E-02  2.5210E-02 -5.1171E-02 -1.4345E-03  5.4787E-03 -6.7158E-02
       5-
 mid.  surface     2.0860E-02  9.6586E-03  1.1754E-02  1.2894E-02 -2.4699E-03 -7.6063E-02
       6-
 mid.  surface     3.1252E-02  1.8511E-02 -5.8536E-02 -3.7257E-03 -4.5743E-03 -3.3197E-03
       7-
 mid.  surface     2.6326E-02  3.3239E-02 -6.6503E-02  1.1247E-03 -1.2943E-02  1.6259E-02
       8-
 mid.  surface     2.5088E-02  3.6967E-02 -5.5762E-02  2.9084E-03 -2.7028E-02  3.6452E-03
       9-
 mid.  surface     2.3289E-02  2.9884E-02 -5.9724E-02 -5.3165E-03 -1.7900E-02  2.4827E-03
      10-
 mid.  surface     1.3805E-02  3.3887E-02 -3.7914E-02 -4.7380E-03 -2.2949E-02  2.2278E-03
      15-
 mid.  surface     2.4409E-02  2.4466E-02 -5.4106E-02  6.0082E-03  2.2715E-03  3.9066E-03
      16-
 mid.  surface     3.8809E-02  2.0733E-02 -8.0131E-02 -9.8525E-03  1.8226E-02  4.9775E-04
      18-
 mid.  surface     1.7756E-02  3.3273E-02 -3.7055E-02  6.7834E-03 -2.8799E-02 -5.8345E-03
      40-
 mid.  surface     1.5786E-02  3.6394E-02 -4.8334E-02  7.3827E-03  8.9797E-03  2.4601E-04
      41-
 mid.  surface     1.4690E-02  3.0500E-02 -4.5990E-02  2.8384E-03  1.4392E-03  1.2487E-03
      50-
 mid.  surface     2.0695E-02  2.1287E-02 -7.5618E-02 -4.9031E-03 -1.2352E-02 -1.0136E-02
      51-
 mid.  surface     4.4621E-02  2.8811E-02 -8.4009E-02 -1.4779E-03  2.8396E-03  6.6248E-02
      52-
 mid.  surface     4.5108E-02  5.6158E-03 -3.4584E-02 -8.3236E-03  1.5512E-02  4.9796E-02
      53-
 mid.  surface     2.0981E-02  1.3392E-02 -5.3708E-02 -6.4724E-03 -1.1845E-02 -2.2950E-02
      72-
 mid.  surface     2.4356E-02  1.5383E-02 -4.8979E-02  8.2720E-03 -1.2802E-02 -1.2709E-02
      95-
 mid.  surface     2.5362E-02  2.5515E-02 -5.9596E-02  2.5779E-03 -8.2387E-03 -2.4327E-02
     100-
 mid.  surface     2.4957E-02  4.1308E-02 -6.8801E-02  1.0073E-03  1.3865E-02 -3.3001E-03
     110-
 mid.  surface     2.9399E-02  2.6995E-02 -7.0843E-02  2.9968E-03  5.8804E-03 -7.6950E-03



 n o d a l  s t r e s s  c a l c u l a t i o n s   f o r   t i m e  s t e p      504   ( at time 1.29670E+01 )

 node (global)
          stress       sig-xx      sig-yy      sig-zz      sig-xy      sig-yz      sig-zx       plastic
                                                                                                 strain 
       4-
 mid.  surface    -3.3623E+09 -3.2301E+09 -2.2498E+09  1.4576E+07  1.7690E+08  2.7962E+08 -3.5380E-03
       5-
 mid.  surface     2.1674E+07  2.1284E+08  1.1708E+09  3.7380E+07  1.6091E+08  2.1694E+08 -2.6579E-02
       6-
 mid.  surface    -1.8296E+09 -1.7893E+09 -1.4789E+09 -9.5733E+06  1.1053E+07  3.4491E+07  1.0035E-01
       7-
 mid.  surface    -4.5252E+08 -4.7068E+08 -7.3380E+08 -2.9880E+07 -9.5735E+07 -5.5072E+06  6.4108E-02
       8-
 mid.  surface     5.8858E+08  5.7215E+08  2.7450E+08  7.9984E+06 -6.0124E+07  4.1661E+06  9.1141E-02
       9-
 mid.  surface    -3.7219E+08 -3.5599E+08 -6.1677E+08  2.8011E+06 -4.3014E+07 -1.7195E+07  7.7380E-02
      10-
 mid.  surface     8.8191E+08  9.2571E+08  6.5247E+08 -4.2178E+06 -6.1726E+07 -1.1929E+07  5.9285E-02
      15-
 mid.  surface    -5.0202E+08 -4.6993E+08 -7.3625E+08 -3.3190E+07 -1.7589E+08 -7.6781E+07  6.2570E-02
      16-
 mid.  surface    -3.0458E+09 -3.0123E+09 -2.6682E+09 -2.2142E+07 -2.5944E+07 -1.0775E+05  8.7989E-02
      18-
 mid.  surface     1.0949E+09  1.1133E+09  8.2411E+08 -4.4595E+06 -1.1640E+08 -1.9231E+07  8.3368E-02
      40-
 mid.  surface     4.4578E+08  4.6515E+08  1.4088E+08  1.0794E+07  3.2885E+07  1.8390E+07  9.9400E-02
      41-
 mid.  surface    -5.6301E+07 -9.6554E+07 -3.0833E+08  2.4498E+06  1.3872E+06 -8.8755E+06  6.8231E-02
      50-
 mid.  surface    -7.1448E+08 -8.1142E+08 -1.7904E+09  4.8138E+07 -5.9284E+07 -1.0659E+08  1.3830E-01
      51-
 mid.  surface     2.3785E+09  2.1979E+09  6.8560E+08 -5.6152E+07 -1.0368E+08 -1.9900E+08  8.0844E-02
      52-
 mid.  surface     4.6405E+09  4.5078E+09  2.9604E+09 -5.9301E+07 -1.1567E+08 -2.7170E+08  1.2621E-01
      53-
 mid.  surface     6.9011E+08  5.7950E+08 -4.0211E+08  3.3360E+07 -1.3979E+07 -7.7290E+07  1.6890E-01
      72-
 mid.  surface    -5.2420E+08 -5.3616E+08 -8.1053E+08  4.2063E+07  1.4469E+07  8.1180E+06  8.4993E-02
      95-
 mid.  surface    -2.5028E+08 -2.7496E+08 -5.5119E+08  2.7076E+07  1.1256E+08  5.9412E+07  9.7427E-02
     100-
 mid.  surface    -5.6929E+07 -3.6828E+07 -3.4683E+08 -1.0037E+06  9.4273E+07  2.3972E+07  1.1367E-01
     110-
 mid.  surface    -1.1424E+09 -1.2118E+09 -1.4018E+09 -1.7472E+06  1.7053E+07 -2.5803E+07  9.0250E-02



 n o d a l  s t r a i n  c a l c u l a t i o n s   f o r   t i m e  s t e p      504   ( at time 1.29670E+01 )

 node (global)
          strain       eps-xx      eps-yy      eps-zz      eps-xy      eps-yz      eps-zx       
       4-
 mid.  surface     3.6196E-02  2.8426E-02 -6.5885E-02 -5.1756E-04  6.1424E-03 -6.3770E-02
       5-
 mid.  surface     2.8702E-02  1.6623E-02  1.6461E-03  1.5694E-02 -4.8841E-03 -7.9037E-02
       6-
 mid.  surface     4.1425E-02  2.4396E-02 -7.0501E-02 -3.9401E-03 -8.5172E-03 -8.5174E-03
       7-
 mid.  surface     3.0640E-02  3.7537E-02 -7.6405E-02 -1.1015E-03 -1.7765E-02  1.6703E-02
       8-
 mid.  surface     3.2314E-02  4.1864E-02 -6.7775E-02  3.1742E-03 -3.0611E-02  3.7232E-03
       9-
 mid.  surface     3.0159E-02  3.8728E-02 -7.5738E-02 -5.1427E-03 -2.0894E-02  1.4854E-03
      10-
 mid.  surface     1.9186E-02  4.4187E-02 -5.1964E-02 -5.1458E-03 -2.4856E-02  1.8227E-03
      15-
 mid.  surface     2.7592E-02  3.1452E-02 -6.7441E-02  3.0883E-03 -5.0668E-03  9.1175E-04
      16-
 mid.  surface     4.9581E-02  2.5687E-02 -9.7066E-02 -1.1509E-02  1.4855E-02 -5.1707E-03
      18-
 mid.  surface     2.3361E-02  4.0123E-02 -4.9380E-02  6.1139E-03 -3.3889E-02 -6.6216E-03
      40-
 mid.  surface     2.3053E-02  4.4611E-02 -6.3252E-02  8.0594E-03  1.1791E-02  1.5333E-03
      41-
 mid.  surface     2.2371E-02  3.6336E-02 -6.1189E-02  2.9529E-03  2.0021E-03  9.0400E-04
      50-
 mid.  surface     2.8737E-02  2.9759E-02 -9.6493E-02 -1.5751E-03 -9.7640E-03 -8.5728E-03
      51-
 mid.  surface     4.7216E-02  3.4111E-02 -1.0002E-01 -6.0331E-03  7.0249E-03  7.0490E-02
      52-
 mid.  surface     4.7429E-02  1.2995E-02 -4.6342E-02 -1.3898E-02  1.8112E-02  4.6211E-02
      53-
 mid.  surface     3.0320E-02  2.1708E-02 -7.0498E-02 -4.2548E-03 -9.1338E-03 -2.1161E-02
      72-
 mid.  surface     3.2471E-02  2.3966E-02 -6.5989E-02  1.1258E-02 -1.0630E-02 -1.1572E-02
      95-
 mid.  surface     3.4428E-02  3.2986E-02 -7.3230E-02  4.4693E-03 -4.1237E-03 -2.1798E-02
     100-
 mid.  surface     3.2808E-02  4.9311E-02 -8.4899E-02  8.3336E-04  1.7659E-02 -2.1482E-03
     110-
 mid.  surface     3.8856E-02  3.1830E-02 -8.8972E-02  2.8475E-03  5.3136E-03 -9.5515E-03



 n o d a l  s t r e s s  c a l c u l a t i o n s   f o r   t i m e  s t e p      512   ( at time 1.51163E+01 )

 node (global)
          stress       sig-xx      sig-yy      sig-zz      sig-xy      sig-yz      sig-zx       plastic
                                                                                                 strain 
       4-
 mid.  surface    -3.6735E+09 -3.5772E+09 -2.9252E+09 -2.2283E+07  8.6037E+07  1.3203E+08 -2.5634E-02
       5-
 mid.  surface    -1.5060E+09 -1.2844E+09  2.5196E+07  7.6046E+06  2.2187E+08  3.1682E+08 -9.0841E-02
       6-
 mid.  surface    -2.7102E+09 -2.7183E+09 -1.9486E+09 -2.8296E+07  1.1405E+08  9.1843E+07  6.3101E-02
       7-
 mid.  surface    -1.4252E+09 -1.4236E+09 -1.2675E+09 -2.9550E+07  7.8169E+05  7.0327E+07  5.5441E-02
       8-
 mid.  surface     1.5228E+08  1.0428E+08  1.4352E+07  4.0700E+06 -3.1114E+06  4.4051E+07  9.4298E-02
       9-
 mid.  surface    -4.7626E+08 -4.7542E+08 -7.3453E+08  4.6121E+06 -3.9617E+07 -1.5768E+07  9.4415E-02
      10-
 mid.  surface     9.0065E+08  9.4447E+08  6.6907E+08 -8.5562E+06 -3.7169E+07 -7.3841E+06  7.3498E-02
      15-
 mid.  surface    -1.2668E+09 -1.2106E+09 -1.1577E+09 -1.8544E+07 -3.9997E+07  7.4054E+06  5.9506E-02
      16-
 mid.  surface    -3.9810E+09 -4.0072E+09 -3.2922E+09 -2.8129E+07  9.5715E+07  6.0162E+07  5.8439E-02
      18-
 mid.  surface     1.3748E+09  1.4107E+09  9.3371E+08 -1.2674E+07 -1.3197E+08 -5.1984E+07  1.0614E-01
      40-
 mid.  surface     1.3295E+08  1.6217E+08  1.2561E+07  1.4657E+07  8.3460E+07  6.7983E+07  1.0332E-01
      41-
 mid.  surface    -1.0923E+08 -1.1837E+08 -3.8650E+08 -1.2309E+07  5.4224E+05  2.0957E+06  8.1459E-02
      50-
 mid.  surface     1.3631E+09  1.2304E+09 -5.7180E+08  6.5183E+07 -2.5682E+08 -2.8941E+08  2.3001E-01
      51-
 mid.  surface     2.0273E+09  1.9401E+09  7.2401E+08 -1.0916E+07 -2.2690E+07 -1.0247E+08  1.3908E-01
      52-
 mid.  surface     3.2257E+09  3.2533E+09  2.6137E+09 -5.6282E+06  1.1687E+08  4.9862E+07  1.4685E-01
      53-
 mid.  surface     2.0456E+09  1.9567E+09  4.7436E+08  5.0183E+07 -1.6624E+08 -2.0022E+08  2.3937E-01
      72-
 mid.  surface     1.1491E+09  1.1546E+09  2.4293E+07  6.8109E+07 -1.9470E+08 -1.7477E+08  1.4623E-01
      95-
 mid.  surface     7.2615E+08  6.9098E+08 -7.5606E+07  4.3374E+07 -6.2518E+07 -9.2851E+07  1.3777E-01
     100-
 mid.  surface    -1.0025E+09 -1.0202E+09 -8.1579E+08  1.1578E+06  2.1372E+08  1.2695E+08  1.0192E-01
     110-
 mid.  surface    -1.2995E+09 -1.3525E+09 -1.6038E+09 -1.6046E+07 -5.1882E+06 -2.4257E+07  1.0650E-01



 n o d a l  s t r a i n  c a l c u l a t i o n s   f o r   t i m e  s t e p      512   ( at time 1.51163E+01 )

 node (global)
          strain       eps-xx      eps-yy      eps-zz      eps-xy      eps-yz      eps-zx       
       4-
 mid.  surface     4.0457E-02  3.3772E-02 -7.9165E-02 -5.2907E-04  7.2183E-03 -6.3760E-02
       5-
 mid.  surface     3.2578E-02  2.2417E-02 -6.1612E-03  1.7632E-02 -5.4494E-03 -8.0712E-02
       6-
 mid.  surface     5.3566E-02  3.0884E-02 -8.2439E-02 -2.9195E-03 -1.2895E-02 -1.5303E-02
       7-
 mid.  surface     3.8504E-02  4.4463E-02 -8.9000E-02 -5.8808E-04 -2.2880E-02  1.5207E-02
       8-
 mid.  surface     3.9216E-02  4.6180E-02 -8.0364E-02  3.3512E-03 -3.2651E-02  4.1620E-03
       9-
 mid.  surface     3.6715E-02  4.5865E-02 -9.1195E-02 -4.5539E-03 -2.2559E-02  8.2861E-04
      10-
 mid.  surface     2.3562E-02  5.3225E-02 -6.5195E-02 -5.4901E-03 -2.4831E-02  1.7512E-03
      15-
 mid.  surface     3.3562E-02  4.0101E-02 -8.0807E-02  4.1093E-03 -9.2221E-03 -2.3097E-03
      16-
 mid.  surface     6.1560E-02  3.1882E-02 -1.1253E-01 -1.0327E-02  1.2288E-02 -1.0928E-02
      18-
 mid.  surface     2.8092E-02  4.6831E-02 -6.1521E-02  4.8281E-03 -3.6512E-02 -6.8625E-03
      40-
 mid.  surface     2.8537E-02  5.3076E-02 -7.6644E-02  9.1480E-03  1.2661E-02  2.7087E-03
      41-
 mid.  surface     2.8100E-02  4.2811E-02 -7.4224E-02  2.0316E-03  1.2993E-03  1.1826E-03
      50-
 mid.  surface     3.6198E-02  3.6109E-02 -1.1545E-01 -8.0126E-04 -9.0105E-03 -6.9741E-03
      51-
 mid.  surface     5.1102E-02  3.9096E-02 -1.1456E-01 -7.6240E-03  8.8542E-03  7.1069E-02
      52-
 mid.  surface     5.1756E-02  1.8121E-02 -5.6007E-02 -1.5271E-02  2.0744E-02  4.3555E-02
      53-
 mid.  surface     3.8607E-02  2.7317E-02 -8.6774E-02 -4.2627E-03 -8.7735E-03 -2.1366E-02
      72-
 mid.  surface     3.8686E-02  3.1877E-02 -8.2094E-02  1.3611E-02 -9.3377E-03 -1.0591E-02
      95-
 mid.  surface     4.1636E-02  4.0119E-02 -8.8545E-02  5.7096E-03 -3.3215E-03 -2.2152E-02
     100-
 mid.  surface     3.9966E-02  5.7159E-02 -9.9926E-02  1.4098E-03  1.8924E-02 -2.1838E-03
     110-
 mid.  surface     4.7004E-02  3.6908E-02 -1.0475E-01  1.7335E-03  2.2482E-03 -1.1468E-02



 n o d a l  s t r e s s  c a l c u l a t i o n s   f o r   t i m e  s t e p      520   ( at time 1.72657E+01 )

 node (global)
          stress       sig-xx      sig-yy      sig-zz      sig-xy      sig-yz      sig-zx       plastic
                                                                                                 strain 
       4-
 mid.  surface    -4.6167E+09 -4.5666E+09 -3.8756E+09 -1.5846E+06  9.8512E+07  9.1179E+07 -4.5625E-02
       5-
 mid.  surface    -2.0944E+09 -1.9865E+09 -6.0853E+08 -1.5761E+07  2.5153E+08  3.6577E+08 -1.5362E-01
       6-
 mid.  surface    -2.6121E+09 -2.6600E+09 -2.0413E+09  5.7150E+06  9.3281E+07  6.4237E+07  3.5292E-02
       7-
 mid.  surface    -3.2690E+09 -3.3233E+09 -2.3175E+09 -3.4806E+07  2.3351E+08  2.2050E+08  2.9982E-03
       8-
 mid.  surface    -1.2834E+09 -1.3581E+09 -8.1931E+08  5.4107E+06  1.6500E+08  8.5471E+07  6.0739E-02
       9-
 mid.  surface    -6.2250E+08 -6.6116E+08 -9.0380E+08 -1.7504E+07 -2.2247E+07  9.5265E+06  1.1298E-01
      10-
 mid.  surface     9.1653E+08  8.8804E+08  6.6014E+08 -6.8583E+06 -9.6297E+07 -2.3350E+06  9.0221E-02
      15-
 mid.  surface    -2.3546E+09 -2.2062E+09 -1.7253E+09 -7.1568E+06  1.2893E+08  6.6063E+07  3.7583E-02
      16-
 mid.  surface    -4.0698E+09 -4.0340E+09 -3.5964E+09  2.6450E+07  3.6236E+07 -3.9515E+07  4.5596E-02
      18-
 mid.  surface     2.9202E+08  3.2040E+08  4.5472E+08 -4.5820E+06  3.8363E+07  1.4272E+07  9.6765E-02
      40-
 mid.  surface     1.4675E+09  1.4702E+09  6.4503E+08  9.8655E+06 -1.2313E+08 -3.6713E+07  1.4533E-01
      41-
 mid.  surface    -9.2551E+07 -5.7000E+07 -3.2390E+08  7.7232E+05 -2.7132E+07  1.3577E+07  1.0028E-01
      50-
 mid.  surface     2.2499E+09  2.2369E+09  1.6722E+08  5.0096E+07 -3.1552E+08 -3.9075E+08  3.3283E-01
      51-
 mid.  surface     2.2274E+09  2.1941E+09  9.3507E+08 -3.6640E+07 -1.3298E+07 -1.4956E+08  1.9696E-01
      52-
 mid.  surface     3.7615E+09  3.7928E+09  3.1344E+09 -4.7487E+07  1.3677E+08  8.5419E+07  1.6726E-01
      53-
 mid.  surface     2.3677E+09  2.3154E+09  9.6897E+08  1.5379E+07 -1.2765E+08 -1.2870E+08  2.9909E-01
      72-
 mid.  surface     2.5723E+09  2.5866E+09  9.6005E+08  2.0622E+07 -3.7096E+08 -1.8223E+08  2.4056E-01
      95-
 mid.  surface     1.2003E+09  1.0799E+09  2.0449E+08 -8.0823E+06 -1.7447E+08 -1.8935E+07  1.8828E-01
     100-
 mid.  surface    -4.2956E+07 -1.1685E+08 -5.6332E+08  6.3829E+06  1.1925E+07  5.4048E+06  1.2530E-01
     110-
 mid.  surface    -1.4327E+09 -1.4221E+09 -1.6840E+09  5.2021E+06  4.7506E+07  8.3109E+06  1.2904E-01



 n o d a l  s t r a i n  c a l c u l a t i o n s   f o r   t i m e  s t e p      520   ( at time 1.72657E+01 )

 node (global)
          strain       eps-xx      eps-yy      eps-zz      eps-xy      eps-yz      eps-zx       
       4-
 mid.  surface     4.2115E-02  3.9594E-02 -9.2714E-02 -1.3127E-03  9.0417E-03 -6.5384E-02
       5-
 mid.  surface     3.4261E-02  2.9990E-02 -1.3563E-02  1.6731E-02 -4.9616E-03 -8.1494E-02
       6-
 mid.  surface     6.2868E-02  3.7116E-02 -9.4074E-02 -3.8281E-03 -1.6803E-02 -2.0043E-02
       7-
 mid.  surface     4.6968E-02  5.1633E-02 -1.0237E-01 -1.4028E-04 -2.8691E-02  1.4561E-02
       8-
 mid.  surface     4.8593E-02  5.1897E-02 -9.3322E-02  4.6583E-03 -3.6507E-02  1.9386E-03
       9-
 mid.  surface     4.5218E-02  5.1243E-02 -1.0766E-01 -6.0753E-03 -2.4373E-02  1.5264E-03
      10-
 mid.  surface     3.1272E-02  6.0298E-02 -8.0361E-02 -5.8217E-03 -2.8225E-02  2.4095E-03
      15-
 mid.  surface     3.7045E-02  5.3711E-02 -9.7432E-02  5.0719E-03 -1.3544E-02 -3.1286E-03
      16-
 mid.  surface     6.8152E-02  4.0868E-02 -1.2956E-01 -9.8530E-03  8.9864E-03 -1.7351E-02
      18-
 mid.  surface     3.5709E-02  5.5184E-02 -7.5595E-02  6.7196E-03 -3.9988E-02 -8.4519E-03
      40-
 mid.  surface     3.5174E-02  6.1681E-02 -9.2383E-02  7.5361E-03  1.5193E-02  3.1953E-03
      41-
 mid.  surface     3.3940E-02  5.3383E-02 -9.0153E-02  2.4890E-03 -2.2317E-03  2.3699E-03
      50-
 mid.  surface     4.6831E-02  4.2465E-02 -1.3660E-01  1.4022E-03 -8.6592E-03 -7.5584E-03
      51-
 mid.  surface     5.7751E-02  4.3138E-02 -1.3047E-01 -9.1712E-03  1.2976E-02  7.0325E-02
      52-
 mid.  surface     5.9435E-02  2.4081E-02 -6.7413E-02 -1.6430E-02  2.5153E-02  4.2048E-02
      53-
 mid.  surface     4.9868E-02  3.3858E-02 -1.0334E-01 -2.0843E-03 -8.2214E-03 -2.0973E-02
      72-
 mid.  surface     4.7167E-02  3.9508E-02 -1.0166E-01  1.4791E-02 -7.3859E-03 -7.8525E-03
      95-
 mid.  surface     5.1093E-02  4.5943E-02 -1.0494E-01  5.2730E-03 -3.1955E-03 -2.2018E-02
     100-
 mid.  surface     4.8377E-02  6.4091E-02 -1.1649E-01 -1.2697E-03  2.0346E-02 -4.1816E-03
     110-
 mid.  surface     5.4933E-02  4.6032E-02 -1.2341E-01  2.6348E-03  3.5228E-04 -1.1721E-02



 n o d a l  s t r e s s  c a l c u l a t i o n s   f o r   t i m e  s t e p      528   ( at time 1.94150E+01 )

 node (global)
          stress       sig-xx      sig-yy      sig-zz      sig-xy      sig-yz      sig-zx       plastic
                                                                                                 strain 
       4-
 mid.  surface    -6.1920E+09 -6.1214E+09 -5.0389E+09 -2.6243E+07  1.6645E+08  1.9297E+08 -9.4927E-02
       5-
 mid.  surface    -2.4930E+09 -2.3986E+09 -1.3536E+09 -1.9671E+07  1.7968E+08  2.6236E+08 -2.0265E-01
       6-
 mid.  surface    -1.9797E+09 -2.0766E+09 -1.8791E+09  1.5252E+07 -6.4815E+06 -5.2156E+07  3.3371E-02
       7-
 mid.  surface    -3.3657E+09 -3.4435E+09 -2.6944E+09 -6.1682E+07  1.3455E+08  1.8665E+08 -3.4497E-02
       8-
 mid.  surface    -1.8208E+09 -1.9066E+09 -1.3467E+09  1.1744E+07  1.4590E+08  8.0113E+07  3.4492E-02
       9-
 mid.  surface    -7.6269E+08 -8.0961E+08 -1.0492E+09  4.7528E+05 -2.5569E+07  1.8329E+05  1.3032E-01
      10-
 mid.  surface     9.5640E+08  9.4058E+08  6.9752E+08 -6.6948E+06 -6.1248E+07 -2.2396E+06  1.0538E-01
      15-
 mid.  surface    -2.4823E+09 -2.3019E+09 -2.0476E+09 -2.0209E+07  8.5356E+07  5.0988E+07  2.3902E-02
      16-
 mid.  surface    -4.6613E+09 -4.6087E+09 -4.1546E+09  4.0466E+07  5.1405E+07 -6.3611E+07  3.2049E-02
      18-
 mid.  surface     8.3370E+07  1.5682E+08  2.5887E+08 -1.4665E+07  5.2693E+07  1.7143E+07  9.0989E-02
      40-
 mid.  surface     1.7188E+09  1.6983E+09  8.6752E+08  1.8952E+07 -1.0838E+08 -3.1873E+07  1.8274E-01
      41-
 mid.  surface    -9.8638E+07 -8.4019E+07 -3.4916E+08 -1.2184E+07 -1.3798E+07  1.1653E+07  1.1595E-01
      50-
 mid.  surface     1.7979E+09  1.8365E+09  4.5768E+08  7.7973E+07 -1.3071E+08 -2.6425E+08  4.0159E-01
      51-
 mid.  surface     5.0735E+08  5.6631E+08  3.1310E+08 -6.3250E+07  1.6609E+08  1.4587E+08  1.9626E-01
      52-
 mid.  surface     3.1522E+09  3.2536E+09  2.9385E+09 -5.3609E+07  1.8888E+08  2.0010E+08  1.6711E-01
      53-
 mid.  surface     3.0429E+09  2.9780E+09  1.6371E+09  4.0151E+07 -1.0166E+08 -1.5744E+08  3.6301E-01
      72-
 mid.  surface     3.0060E+09  3.0449E+09  1.5762E+09  2.7696E+07 -2.8198E+08 -1.5279E+08  3.1408E-01
      95-
 mid.  surface     2.0674E+09  1.9008E+09  8.5294E+08 -1.5492E+07 -2.3882E+08 -5.8549E+07  2.4017E-01
     100-
 mid.  surface    -1.6495E+08 -2.8437E+08 -7.0161E+08  1.3279E+07 -7.9894E+06  3.9133E+05  1.4703E-01
     110-
 mid.  surface    -1.6063E+09 -1.6306E+09 -1.8864E+09 -2.7336E+06  1.8575E+07 -2.9087E+06  1.4727E-01



 n o d a l  s t r a i n  c a l c u l a t i o n s   f o r   t i m e  s t e p      528   ( at time 1.94150E+01 )

 node (global)
          strain       eps-xx      eps-yy      eps-zz      eps-xy      eps-yz      eps-zx       
       4-
 mid.  surface     4.5278E-02  4.5783E-02 -1.0557E-01 -2.2909E-03  1.0775E-02 -6.5550E-02
       5-
 mid.  surface     3.7578E-02  3.8117E-02 -2.3219E-02  1.6456E-02 -4.7084E-03 -8.2331E-02
       6-
 mid.  surface     7.4906E-02  4.4142E-02 -1.0777E-01 -3.7369E-03 -2.0629E-02 -2.5612E-02
       7-
 mid.  surface     5.5110E-02  5.6830E-02 -1.1218E-01 -6.2871E-04 -3.4135E-02  1.3454E-02
       8-
 mid.  surface     5.6851E-02  5.7775E-02 -1.0644E-01  7.2142E-03 -3.8956E-02 -2.9139E-04
       9-
 mid.  surface     5.3109E-02  5.6763E-02 -1.2327E-01 -5.5348E-03 -2.6247E-02  1.2698E-03
      10-
 mid.  surface     3.7651E-02  6.8748E-02 -9.4660E-02 -5.8874E-03 -2.8626E-02  2.8118E-03
      15-
 mid.  surface     3.8938E-02  6.5979E-02 -1.1100E-01  5.1979E-03 -1.7089E-02 -4.4880E-03
      16-
 mid.  surface     7.7190E-02  5.0694E-02 -1.4797E-01 -8.1051E-03  5.0046E-03 -2.3883E-02
      18-
 mid.  surface     4.1316E-02  6.4789E-02 -8.9903E-02  7.9563E-03 -4.1679E-02 -9.7223E-03
      40-
 mid.  surface     4.2286E-02  6.9245E-02 -1.0788E-01  6.7353E-03  1.6871E-02  4.2225E-03
      41-
 mid.  surface     3.9962E-02  6.0946E-02 -1.0415E-01  1.7165E-03 -4.4515E-03  2.6886E-03
      50-
 mid.  surface     5.7486E-02  4.9792E-02 -1.5856E-01  4.7763E-03 -8.7381E-03 -8.2824E-03
      51-
 mid.  surface     6.2772E-02  4.6964E-02 -1.4422E-01 -1.1051E-02  1.4969E-02  6.8037E-02
      52-
 mid.  surface     6.5034E-02  3.0359E-02 -7.8624E-02 -1.7553E-02  2.7022E-02  3.8074E-02
      53-
 mid.  surface     6.1554E-02  4.0280E-02 -1.2161E-01  1.2314E-03 -7.0166E-03 -2.0917E-02
      72-
 mid.  surface     5.4580E-02  4.6005E-02 -1.1858E-01  1.5746E-02 -4.6973E-03 -4.4204E-03
      95-
 mid.  surface     5.9055E-02  5.0679E-02 -1.1758E-01  4.5989E-03 -4.6065E-03 -2.2279E-02
     100-
 mid.  surface     5.6752E-02  7.0464E-02 -1.3289E-01 -3.0141E-03  2.0578E-02 -5.6038E-03
     110-
 mid.  surface     6.2924E-02  5.1202E-02 -1.3953E-01  2.4245E-03 -4.0942E-03 -1.3475E-02



 n o d a l  s t r e s s  c a l c u l a t i o n s   f o r   t i m e  s t e p      536   ( at time 2.15643E+01 )

 node (global)
          stress       sig-xx      sig-yy      sig-zz      sig-xy      sig-yz      sig-zx       plastic
                                                                                                 strain 
       4-
 mid.  surface    -4.8005E+09 -4.9838E+09 -5.3158E+09 -1.1162E+08  1.0490E+08  1.6025E+08 -7.8111E-02
       5-
 mid.  surface    -6.6626E+09 -6.3914E+09 -4.0660E+09  1.3536E+07  2.3401E+08  4.2349E+08 -3.2984E-01
       6-
 mid.  surface    -2.8444E+09 -2.8849E+09 -2.2670E+09  5.5831E+07 -4.1655E+07 -6.4186E+07  1.8780E-02
       7-
 mid.  surface    -3.5984E+09 -3.6600E+09 -3.1247E+09 -4.0133E+07  1.1514E+08  1.8745E+08 -6.7135E-02
       8-
 mid.  surface    -2.0551E+09 -2.1011E+09 -1.5710E+09  4.1397E+07  1.6249E+08  5.9730E+07  6.8297E-03
       9-
 mid.  surface    -9.1586E+08 -9.7947E+08 -1.2075E+09 -1.7153E+06 -2.3532E+07  7.2435E+06  1.4828E-01
      10-
 mid.  surface     1.0146E+09  9.7671E+08  7.5417E+08 -1.1486E+07 -9.3281E+07 -5.1586E+05  1.2234E-01
      15-
 mid.  surface    -3.4827E+09 -3.2931E+09 -2.8391E+09 -3.7279E+07  1.2188E+08  9.8052E+07 -3.0217E-03
      16-
 mid.  surface    -3.0076E+09 -3.1041E+09 -3.4598E+09  4.2097E+07 -2.6843E+07 -1.9945E+08  7.4018E-02
      18-
 mid.  surface    -2.9737E+07  4.0871E+07  1.4632E+08 -2.4599E+06  3.0471E+07 -9.3616E+05  8.6306E-02
      40-
 mid.  surface     1.8953E+09  1.8609E+09  1.0329E+09 -9.3594E+05 -1.3070E+08 -2.3394E+07  2.2143E-01
      41-
 mid.  surface    -7.5932E+07 -7.2220E+07 -3.1220E+08 -8.4202E+06 -1.8122E+07  7.1777E+06  1.3509E-01
      50-
 mid.  surface     3.8548E+09  3.8353E+09  1.9525E+09  6.2973E+07 -1.2384E+08 -3.7493E+08  5.0888E-01
      51-
 mid.  surface     3.3835E+09  3.2416E+09  1.5337E+09 -1.1736E+08  1.1774E+08  5.6867E+07  2.6627E-01
      52-
 mid.  surface     2.2379E+08  4.9246E+08  1.4610E+09 -5.0578E+07  2.7421E+08  2.9520E+08  9.3870E-02
      53-
 mid.  surface     3.1664E+09  3.2036E+09  2.3334E+09  6.4595E+07 -1.2751E+08 -2.0964E+08  4.1281E-01
      72-
 mid.  surface     2.1461E+09  2.2276E+09  1.2658E+09 -2.1001E+07 -1.9636E+08  1.3134E+07  3.5736E-01
      95-
 mid.  surface     2.0312E+09  1.9182E+09  1.0085E+09 -4.0588E+07 -1.8286E+08  8.2028E+07  2.7869E-01
     100-
 mid.  surface    -1.9014E+08 -2.9938E+08 -7.2049E+08  1.9085E+07  1.2093E+07  1.1858E+07  1.7002E-01
     110-
 mid.  surface    -1.8075E+09 -1.8392E+09 -2.0682E+09  1.2441E+07  4.9970E+07 -7.4155E+05  1.6915E-01



 n o d a l  s t r a i n  c a l c u l a t i o n s   f o r   t i m e  s t e p      536   ( at time 2.15643E+01 )

 node (global)
          strain       eps-xx      eps-yy      eps-zz      eps-xy      eps-yz      eps-zx       
       4-
 mid.  surface     5.3159E-02  5.0438E-02 -1.1990E-01 -2.1125E-03  1.3622E-02 -6.5013E-02
       5-
 mid.  surface     4.1510E-02  4.8285E-02 -2.7679E-02  2.0553E-02 -6.3974E-03 -8.7805E-02
       6-
 mid.  surface     8.8641E-02  5.3015E-02 -1.2351E-01 -1.8207E-03 -2.5101E-02 -3.2296E-02
       7-
 mid.  surface     5.9632E-02  6.2749E-02 -1.2229E-01 -3.6273E-03 -3.8427E-02  1.5980E-02
       8-
 mid.  surface     6.5158E-02  6.4329E-02 -1.2009E-01  9.8031E-03 -4.1060E-02 -2.2748E-03
       9-
 mid.  surface     6.1858E-02  6.1305E-02 -1.3900E-01 -5.7592E-03 -2.9103E-02  1.7123E-03
      10-
 mid.  surface     4.5476E-02  7.6847E-02 -1.1000E-01 -6.6023E-03 -3.0751E-02  3.6552E-03
      15-
 mid.  surface     3.9157E-02  7.7502E-02 -1.2506E-01  1.6984E-03 -2.1936E-02 -5.0614E-03
      16-
 mid.  surface     9.1427E-02  5.9905E-02 -1.7213E-01 -7.5482E-03  3.2253E-03 -3.1650E-02
      18-
 mid.  surface     4.7995E-02  7.4457E-02 -1.0525E-01  9.5900E-03 -4.4047E-02 -1.0917E-02
      40-
 mid.  surface     5.0040E-02  7.7465E-02 -1.2466E-01  5.2412E-03  1.8420E-02  5.0425E-03
      41-
 mid.  surface     4.6860E-02  7.0001E-02 -1.1994E-01  1.4002E-03 -7.1895E-03  2.9014E-03
      50-
 mid.  surface     6.9124E-02  5.8690E-02 -1.8642E-01  8.6024E-03 -8.0069E-03 -1.0189E-02
      51-
 mid.  surface     6.4777E-02  5.4468E-02 -1.6051E-01 -1.5602E-02  1.7290E-02  7.2948E-02
      52-
 mid.  surface     6.5434E-02  3.9605E-02 -8.7137E-02 -2.2986E-02  2.8053E-02  3.3305E-02
      53-
 mid.  surface     7.4079E-02  4.8750E-02 -1.4231E-01  4.1950E-03 -6.7202E-03 -2.0711E-02
      72-
 mid.  surface     6.3719E-02  5.3872E-02 -1.3640E-01  1.8113E-02 -2.8247E-03 -1.7367E-03
      95-
 mid.  surface     6.9425E-02  5.7423E-02 -1.3095E-01  5.4446E-03 -5.4389E-03 -2.1203E-02
     100-
 mid.  surface     6.6210E-02  7.7246E-02 -1.5113E-01 -4.5786E-03  2.1769E-02 -6.6168E-03
     110-
 mid.  surface     7.1663E-02  5.7262E-02 -1.5736E-01  3.5668E-03 -7.7914E-03 -1.5146E-02



 n o d a l  s t r e s s  c a l c u l a t i o n s   f o r   t i m e  s t e p      544   ( at time 2.37136E+01 )

 node (global)
          stress       sig-xx      sig-yy      sig-zz      sig-xy      sig-yz      sig-zx       plastic
                                                                                                 strain 
       4-
 mid.  surface    -8.3104E+09 -8.0863E+09 -7.6486E+09 -3.7213E+07  1.7106E+08  3.2224E+08 -9.6434E-02
       5-
 mid.  surface    -5.4276E+09 -5.3702E+09 -5.0561E+09 -1.5190E+07  1.1599E+08  2.1875E+08 -3.5336E-01
       6-
 mid.  surface    -1.4193E+07 -1.5469E+08 -1.1996E+09  6.3025E+07 -2.0628E+08 -2.5306E+08  8.0504E-02
       7-
 mid.  surface    -2.8423E+09 -2.8611E+09 -3.1036E+09  2.4507E+07  6.3697E+07  8.8290E+07 -5.9903E-02
       8-
 mid.  surface    -3.2918E+09 -3.2493E+09 -2.0505E+09  3.3935E+07  3.0064E+08  1.0924E+08 -5.5354E-02
       9-
 mid.  surface    -3.2988E+09 -3.2719E+09 -2.1937E+09  1.3624E+06  2.6239E+08  3.8277E+07  9.6643E-02
      10-
 mid.  surface    -1.1692E+09 -1.0836E+09 -2.5714E+07 -1.2614E+07  2.7575E+08  4.8271E+07  6.7132E-02
      15-
 mid.  surface    -5.2124E+09 -5.0856E+09 -3.8873E+09 -7.1029E+07  1.9371E+08  1.5477E+08 -6.9110E-02
      16-
 mid.  surface    -5.5056E+09 -5.4077E+09 -4.2337E+09 -3.5393E+07  6.1824E+07 -2.4003E+06  2.8235E-02
      18-
 mid.  surface    -1.2453E+09 -1.1279E+09 -3.4707E+08  4.4545E+06  1.7678E+08  3.3598E+07  4.2548E-02
      40-
 mid.  surface     3.2966E+09  3.2220E+09  1.6646E+09  5.5466E+05 -3.0750E+08 -4.7631E+07  2.9884E-01
      41-
 mid.  surface     2.5358E+09  2.4812E+09  7.5930E+08 -2.9040E+06 -3.2584E+08 -5.9250E+07  2.3210E-01
      50-
 mid.  surface     2.3613E+09  2.3338E+09  2.4411E+09 -3.2973E+06 -4.6318E+06 -1.5878E+08  5.1480E-01
      51-
 mid.  surface     8.2099E+08  8.8363E+08  8.9114E+08 -7.9601E+07  2.4180E+08  2.2268E+08  2.6078E-01
      52-
 mid.  surface     2.5468E+09  2.3985E+09  1.6418E+09 -2.7399E+07  2.3521E+08  8.9402E+07  1.2384E-01
      53-
 mid.  surface     6.8662E+09  6.6552E+09  4.5990E+09  9.8008E+07 -2.6961E+08 -3.8085E+08  5.2379E-01
      72-
 mid.  surface     9.9944E+08  9.8106E+08  7.3490E+08 -5.1133E+07 -1.0481E+08  5.5657E+07  3.6548E-01
      95-
 mid.  surface     3.4566E+09  3.3886E+09  1.6664E+09  2.8366E+07 -1.9721E+08 -2.7566E+07  3.6288E-01
     100-
 mid.  surface     1.0597E+09  9.6691E+08 -2.2353E+08 -3.7196E+06 -1.7549E+08 -9.3932E+06  2.3373E-01
     110-
 mid.  surface     4.7494E+08  3.7453E+08 -1.3368E+09  4.1865E+04 -3.4180E+08 -8.6931E+07  2.6992E-01



 n o d a l  s t r a i n  c a l c u l a t i o n s   f o r   t i m e  s t e p      544   ( at time 2.37136E+01 )

 node (global)
          strain       eps-xx      eps-yy      eps-zz      eps-xy      eps-yz      eps-zx       
       4-
 mid.  surface     6.5946E-02  5.5032E-02 -1.3934E-01  1.2425E-03  1.4104E-02 -6.2304E-02
       5-
 mid.  surface     5.3438E-02  5.9119E-02 -4.1039E-02  2.5786E-02 -1.0442E-02 -9.2507E-02
       6-
 mid.  surface     1.0087E-01  6.2157E-02 -1.3636E-01  4.0684E-04 -3.1884E-02 -3.7841E-02
       7-
 mid.  surface     6.6408E-02  6.9568E-02 -1.3656E-01 -4.5262E-03 -3.9882E-02  1.9423E-02
       8-
 mid.  surface     7.3683E-02  7.3464E-02 -1.3528E-01  1.2178E-02 -4.3098E-02 -2.7518E-03
       9-
 mid.  surface     7.0816E-02  7.3576E-02 -1.5829E-01 -4.4543E-03 -3.3578E-02  5.9241E-04
      10-
 mid.  surface     5.1382E-02  9.2293E-02 -1.2627E-01 -6.5305E-03 -3.0390E-02  3.6073E-03
      15-
 mid.  surface     4.3733E-02  8.6337E-02 -1.3925E-01 -1.0519E-03 -2.5600E-02 -6.3268E-03
      16-
 mid.  surface     1.0488E-01  6.6860E-02 -1.9122E-01 -7.2412E-03  9.7671E-04 -3.6940E-02
      18-
 mid.  surface     5.2405E-02  8.5508E-02 -1.1867E-01  1.0227E-02 -4.5614E-02 -1.0394E-02
      40-
 mid.  surface     5.7092E-02  8.3023E-02 -1.3855E-01  5.1055E-03  1.8206E-02  5.7261E-03
      41-
 mid.  surface     5.4702E-02  7.5792E-02 -1.3569E-01  2.3301E-04 -9.2128E-03  2.4642E-03
      50-
 mid.  surface     7.7893E-02  6.6426E-02 -2.0851E-01  1.0166E-02 -7.4016E-03 -1.1380E-02
      51-
 mid.  surface     6.9257E-02  6.2529E-02 -1.8197E-01 -1.9116E-02  2.1092E-02  7.1805E-02
      52-
 mid.  surface     6.9160E-02  4.8842E-02 -1.0395E-01 -2.7860E-02  3.5387E-02  2.9070E-02
      53-
 mid.  surface     8.2641E-02  5.7831E-02 -1.5955E-01  6.3148E-03 -6.9236E-03 -2.0942E-02
      72-
 mid.  surface     7.5138E-02  6.2049E-02 -1.5324E-01  2.1890E-02 -2.9452E-03 -2.5106E-03
      95-
 mid.  surface     7.9655E-02  6.8391E-02 -1.4820E-01  9.1129E-03 -4.0579E-03 -2.1124E-02
     100-
 mid.  surface     7.5548E-02  8.3376E-02 -1.6939E-01 -5.3888E-03  2.0741E-02 -8.3431E-03
     110-
 mid.  surface     8.1502E-02  6.0394E-02 -1.7736E-01  2.3809E-03 -1.4096E-02 -1.8469E-02



 n o d a l  s t r e s s  c a l c u l a t i o n s   f o r   t i m e  s t e p      554   ( at time 2.58630E+01 )

 node (global)
          stress       sig-xx      sig-yy      sig-zz      sig-xy      sig-yz      sig-zx       plastic
                                                                                                 strain 
       4-
 mid.  surface    -5.0381E+09 -5.3172E+09 -6.8762E+09 -4.3894E+07  3.2122E+08  2.5931E+08 -1.2441E-03
       5-
 mid.  surface    -3.2012E+09 -3.5965E+09 -5.0835E+09 -4.1259E+07  2.6084E+08  2.5427E+08 -2.5923E-01
       6-
 mid.  surface    -9.7667E+08 -1.1879E+09 -1.8081E+09 -8.6426E+07 -7.9580E+07 -1.3624E+08  1.2671E-01
       7-
 mid.  surface    -3.4497E+09 -3.5118E+09 -3.2064E+09  3.1774E+07  1.5198E+08  1.3969E+08 -7.2065E-02
       8-
 mid.  surface    -3.8104E+09 -3.6645E+09 -2.3305E+09  5.6322E+07  3.4797E+08  1.4491E+08 -1.3064E-01
       9-
 mid.  surface    -3.1932E+09 -3.1180E+09 -2.4686E+09  8.8486E+06  1.7954E+08  7.0055E+07  6.9185E-02
      10-
 mid.  surface    -4.2566E+08 -3.5862E+08  1.0630E+08  1.1259E+06  6.9554E+07  5.1877E+07  4.7806E-02
      15-
 mid.  surface    -4.1120E+09 -4.0941E+09 -3.9097E+09  2.5471E+07  7.6629E+07  7.1885E+07 -7.4844E-02
      16-
 mid.  surface    -3.2458E+09 -3.2549E+09 -3.9811E+09 -7.3711E+07 -5.9247E+07 -1.3154E+08  7.6237E-02
      18-
 mid.  surface    -1.1207E+09 -1.1027E+09 -4.8244E+08  3.3635E+07  6.8372E+07  1.1496E+07  1.2152E-02
      40-
 mid.  surface     3.0348E+09  2.9820E+09  1.6275E+09 -6.1641E+07 -2.9013E+08 -8.9032E+07  3.6076E-01
      41-
 mid.  surface     3.3359E+09  3.1899E+09  1.1211E+09 -8.9526E+07 -4.7794E+08 -5.7074E+07  3.4308E-01
      50-
 mid.  surface     1.8686E+09  2.1076E+09  2.4652E+09  3.0520E+07 -1.4800E+08 -1.8092E+08  4.8985E-01
      51-
 mid.  surface     1.8536E+08  4.0945E+08  1.3387E+09  9.9403E+07  2.2356E+08  1.9588E+08  2.0053E-01
      52-
 mid.  surface     2.5570E+07  1.7671E+08  1.1567E+09  1.1077E+08  2.0075E+08  1.8298E+08  6.4550E-02
      53-
 mid.  surface     3.5481E+09  3.6481E+09  4.0735E+09  2.3140E+07 -1.5950E+08 -1.8431E+08  4.9669E-01
      72-
 mid.  surface     2.2120E+09  2.1724E+09  9.6604E+08  1.0449E+07 -1.8433E+08 -6.9442E+07  4.2588E-01
      95-
 mid.  surface     2.5041E+09  2.4425E+09  1.6365E+09 -3.5501E+05 -5.2567E+07  4.6919E+07  4.0144E-01
     100-
 mid.  surface     2.7164E+08  2.8651E+08 -3.7691E+08 -2.7371E+07 -6.9280E+06  1.5900E+07  2.5970E-01
     110-
 mid.  surface    -1.0877E+08 -2.3391E+08 -1.4981E+09 -2.0321E+07 -2.2994E+08 -5.6567E+07  3.4145E-01



 n o d a l  s t r a i n  c a l c u l a t i o n s   f o r   t i m e  s t e p      554   ( at time 2.58630E+01 )

 node (global)
          strain       eps-xx      eps-yy      eps-zz      eps-xy      eps-yz      eps-zx       
       4-
 mid.  surface     8.0731E-02  6.3916E-02 -1.6403E-01  5.2791E-03  1.6088E-02 -5.9156E-02
       5-
[...]
      51-
 mid.  surface     2.3241E-01  2.7283E-01 -6.0874E-01 -1.4500E-01  1.6787E-01 -1.2755E-01
      52-
 mid.  surface     6.9123E-02  4.1833E-01 -2.3820E-01 -7.7858E-02  1.7065E-02 -1.8297E-01
      53-
 mid.  surface     2.9694E-01  3.3590E-01 -4.4660E-01 -4.9896E-02 -1.8705E-01  5.9361E-02
      72-
 mid.  surface     3.5137E-01  4.3241E-01 -1.0354E+00 -8.8119E-02  5.3475E-02 -2.5788E-02
      95-
 mid.  surface     3.3245E-01  3.9841E-01 -6.9950E-01 -2.1149E-02  2.3387E-01  6.3023E-03
     100-
 mid.  surface     3.3605E-01  5.0334E-01 -8.7915E-01 -5.7167E-02 -1.5821E-01 -4.3329E-02
     110-
 mid.  surface     3.9213E-01  5.1211E-01 -1.1534E+00  2.0625E-01 -5.4268E-01 -2.8395E-01



 n o d a l  s t r e s s  c a l c u l a t i o n s   f o r   t i m e  s t e p      897   ( at time 9.46416E+01 )

 node (global)
          stress       sig-xx      sig-yy      sig-zz      sig-xy      sig-yz      sig-zx       plastic
                                                                                                 strain 
       4-
 mid.  surface     1.5118E+08  1.5763E+09  1.4371E+08 -4.0767E+08  5.5116E+08 -3.2944E+07  1.8084E+00
       5-
 mid.  surface     1.5118E+08  1.5763E+09  1.4371E+08 -4.0767E+08  5.5116E+08 -3.2944E+07  2.4085E+00
       6-
 mid.  surface     1.1661E+08 -7.0802E+08  5.1843E+07  1.9092E+08 -2.0458E+08  5.9737E+07  2.0486E+00
       7-
 mid.  surface     1.6931E+09  1.5760E+09  1.1039E+09 -4.5473E+08  6.3790E+06  1.2077E+08  1.2607E+00
       8-
 mid.  surface     6.6809E+08  4.1243E+08  1.5002E+09  1.8526E+08  2.6812E+07  7.4034E+07 -1.0755E+00
       9-
 mid.  surface     3.7267E+07  7.1064E+07  7.7335E+08 -2.7821E+08  4.4273E+08 -9.0431E+07  1.1172E+00
      10-
 mid.  surface    -2.2333E+09 -1.6003E+09  6.3565E+08  1.6615E+07 -1.1292E+08  1.0162E+08 -1.5459E+00
      15-
 mid.  surface    -2.4517E+08 -2.0621E+08  1.4919E+08 -1.6544E+07  1.0102E+08 -5.5434E+07  7.9589E-01
      16-
 mid.  surface    -2.6202E+08 -1.0115E+09  8.1838E+06  4.9859E+08 -3.1458E+08 -5.6751E+07  1.0777E+00
      18-
 mid.  surface    -2.1154E+09 -1.8750E+09  2.8543E+08  2.3732E+08 -8.5332E+06  1.7019E+08 -2.3698E+00
      40-
 mid.  surface    -9.9987E+08 -9.9185E+08 -1.7277E+09  4.5453E+07 -8.5733E+07  3.5807E+07 -1.2173E+00
      41-
 mid.  surface     2.3380E+09  2.7651E+09  2.9237E+09 -5.7287E+06 -1.4216E+08 -6.2504E+07  6.4575E-01
      50-
 mid.  surface    -3.5619E+08 -1.0818E+09 -5.6683E+07  5.0913E+08 -3.6078E+08 -7.5966E+07  4.7839E-01
      51-
 mid.  surface     1.5118E+08  1.5763E+09  1.4371E+08 -4.0767E+08  5.5116E+08 -3.2944E+07 -3.6421E-01
      52-
 mid.  surface     1.5118E+08  1.5763E+09  1.4371E+08 -4.0767E+08  5.5116E+08 -3.2944E+07  4.8769E-01
      53-
 mid.  surface    -2.6598E+08 -9.9357E+08 -2.1168E+08  2.3371E+08 -3.9227E+08 -1.8331E+07  7.5935E-01
      72-
 mid.  surface    -1.8106E+09 -1.7140E+09 -3.3563E+09 -2.3042E+08 -4.7283E+07 -2.2821E+08  1.1199E+00
      95-
 mid.  surface    -8.1785E+07 -1.2628E+08 -1.8444E+09 -5.8466E+08 -1.3266E+08  2.2143E+07  1.3359E+00
     100-
 mid.  surface     1.2954E+09  8.3370E+08 -1.4662E+09 -7.6883E+07 -1.1289E+08  2.0837E+07  5.2114E-01
     110-
 mid.  surface     2.8704E+09  2.4192E+09 -2.2402E+08 -1.6316E+08  1.0054E+08 -1.5414E+08  3.8822E+00



 n o d a l  s t r a i n  c a l c u l a t i o n s   f o r   t i m e  s t e p      897   ( at time 9.46416E+01 )

 node (global)
          strain       eps-xx      eps-yy      eps-zz      eps-xy      eps-yz      eps-zx       
       4-
 mid.  surface     3.1009E-01  2.5043E-01 -7.1807E-01  4.4578E-03  2.3449E-01  4.8947E-02
       5-
 mid.  surface     2.6064E-01  3.8399E-01 -4.7127E-01  1.0763E-01 -9.7132E-02 -5.5393E-02
       6-
 mid.  surface     3.5781E-01  4.1912E-01 -4.9286E-01 -1.9775E-02 -1.4929E-01 -6.0010E-02
       7-
 mid.  surface     3.3508E-01  5.7226E-01 -8.7812E-01  1.0867E-01  1.3249E-03 -1.4831E-01
       8-
 mid.  surface     2.8864E-01  2.7820E-01 -4.7339E-01 -6.8386E-02  1.9383E-02  8.8455E-02
       9-
 mid.  surface     4.6426E-01  1.6020E-01 -7.7583E-01 -1.0607E-01 -1.7185E-01 -1.2377E-01
      10-
 mid.  surface     5.0814E-01  2.7737E-01 -6.5920E-01 -1.4751E-02  3.5523E-01  9.9706E-02
      15-
 mid.  surface     4.3138E-01  4.4473E-01 -1.0183E+00  6.7448E-02 -1.1069E-01 -5.0080E-02
      16-
 mid.  surface     4.5876E-01  3.0943E-01 -9.9516E-01 -8.3852E-02  6.7531E-02 -1.7650E-02
      18-
 mid.  surface     3.7310E-01  3.2554E-01 -5.3476E-01 -2.9928E-02  1.0333E-01  1.9007E-01
      40-
 mid.  surface     2.4744E-01  5.1739E-01 -6.0522E-01 -1.7911E-01  2.0814E-01  1.7094E-01
      41-
 mid.  surface     3.9464E-01  6.0972E-01 -8.2418E-01  1.5270E-01 -7.7214E-03  2.4150E-02
      50-
 mid.  surface     4.4055E-01  2.7614E-01 -9.4797E-01 -1.4722E-01 -9.8038E-02  2.1777E-01
      51-
 mid.  surface     2.4303E-01  2.7620E-01 -6.2530E-01 -1.3911E-01  1.7837E-01 -1.2122E-01
      52-
 mid.  surface     7.3561E-02  4.1418E-01 -2.6999E-01 -7.1895E-02  1.3747E-02 -1.6251E-01
      53-
 mid.  surface     2.8517E-01  3.4503E-01 -4.4087E-01 -5.3476E-02 -2.0755E-01  1.5411E-02
      72-
 mid.  surface     3.6978E-01  4.3757E-01 -1.0598E+00 -8.9459E-02  3.6812E-02 -2.0536E-02
      95-
 mid.  surface     3.4359E-01  4.0614E-01 -7.3140E-01 -2.3887E-02  2.3877E-01 -8.3945E-03
     100-
 mid.  surface     3.4298E-01  5.1258E-01 -8.8894E-01 -6.4973E-02 -1.3613E-01 -6.5222E-02
     110-
 mid.  surface     4.0283E-01  5.1776E-01 -1.1510E+00  2.1659E-01 -5.5139E-01 -2.8353E-01



 n o d a l  s t r e s s  c a l c u l a t i o n s   f o r   t i m e  s t e p      908   ( at time 9.67909E+01 )

 node (global)
          stress       sig-xx      sig-yy      sig-zz      sig-xy      sig-yz      sig-zx       plastic
                                                                                                 strain 
       4-
 mid.  surface     0.0000E+00  0.0000E+00  0.0000E+00  0.0000E+00  0.0000E+00  0.0000E+00  1.8084E+00
       5-
 mid.  surface     0.0000E+00  0.0000E+00  0.0000E+00  0.0000E+00  0.0000E+00  0.0000E+00  2.4085E+00
       6-
 mid.  surface    -6.7070E+07 -6.7070E+07 -6.7070E+07  0.0000E+00  0.0000E+00  0.0000E+00  2.0486E+00
       7-
 mid.  surface     1.2724E+09  1.1927E+09  8.4326E+08 -2.6791E+06 -1.2606E+08  4.9648E+06  1.2818E+00
       8-
 mid.  surface     1.4085E+09  1.5096E+09  2.0063E+09  1.1482E+08 -2.8391E+07  1.7929E+08 -1.1006E+00
       9-
 mid.  surface     6.7214E+08  7.0136E+08  1.1499E+09 -1.3256E+08  5.1731E+07 -4.6088E+07  1.0856E+00
      10-
 mid.  surface    -1.0099E+09 -9.2538E+08 -2.3025E+09 -1.2368E+08 -3.3960E+08 -2.1700E+08 -1.4505E+00
      15-
 mid.  surface    -3.1635E+08 -2.9161E+08 -8.4047E+07 -2.2652E+07 -1.0678E+08 -1.4475E+08  7.9030E-01
      16-
 mid.  surface     1.4639E+08  1.4639E+08  1.4639E+08  0.0000E+00  0.0000E+00  0.0000E+00  1.0777E+00
      18-
 mid.  surface    -2.1323E+09 -1.9166E+09 -1.4427E+09  6.1166E+07 -1.8511E+08 -7.5125E+07 -2.3804E+00
      40-
 mid.  surface    -2.1907E+09 -2.1293E+09 -2.2925E+09  5.9327E+07  3.6487E+07 -4.3309E+07 -1.2041E+00
      41-
 mid.  surface     6.7214E+08  7.0136E+08  1.1499E+09 -1.3256E+08  5.1730E+07 -4.6088E+07  6.1414E-01
      50-
 mid.  surface     1.7677E+08  1.7677E+08  1.7677E+08  0.0000E+00  0.0000E+00  0.0000E+00  4.7839E-01
      51-
 mid.  surface     0.0000E+00  0.0000E+00  0.0000E+00  0.0000E+00  0.0000E+00  0.0000E+00 -3.6421E-01
      52-
 mid.  surface     0.0000E+00  0.0000E+00  0.0000E+00  0.0000E+00  0.0000E+00  0.0000E+00  4.8769E-01
      53-
 mid.  surface     5.6370E+07  5.6370E+07  5.6370E+07  0.0000E+00  0.0000E+00  0.0000E+00  7.5935E-01
      72-
 mid.  surface    -1.5715E+09 -1.6659E+09 -3.0652E+09 -7.9696E+07  4.5080E+07 -2.2781E+08  1.1977E+00
      95-
 mid.  surface     5.0906E+08  3.1300E+08 -1.2136E+09 -4.5044E+07  1.3027E+07 -3.8159E+07  1.4149E+00
     100-
 mid.  surface     4.4997E+08  2.9835E+08 -1.6719E+08  9.1278E+07  1.0941E+08  1.7031E+08  5.4920E-01
     110-
 mid.  surface     1.0309E+09  9.7648E+08  1.7660E+09  7.9939E+06  2.1356E+08  9.3737E+07  3.8292E+00



 n o d a l  s t r a i n  c a l c u l a t i o n s   f o r   t i m e  s t e p      908   ( at time 9.67909E+01 )

 node (global)
          strain       eps-xx      eps-yy      eps-zz      eps-xy      eps-yz      eps-zx       
       4-
 mid.  surface     3.2394E-01  2.5632E-01 -7.1444E-01 -4.2862E-03  2.1734E-01  7.6837E-02
       5-
 mid.  surface     2.5336E-01  3.7882E-01 -5.2922E-01  1.0882E-01 -9.2136E-02 -6.3651E-04
       6-
 mid.  surface     3.5831E-01  4.2718E-01 -4.7999E-01 -1.3446E-02 -1.5750E-01 -5.6661E-02
       7-
 mid.  surface     3.4285E-01  5.7138E-01 -8.6085E-01  1.0452E-01 -1.4277E-02 -1.6043E-01
       8-
 mid.  surface     2.9656E-01  2.9089E-01 -5.0454E-01 -6.7537E-02 -2.1924E-03  7.5875E-02
       9-
 mid.  surface     4.8262E-01  1.6991E-01 -7.9598E-01 -1.0150E-01 -1.7772E-01 -1.3693E-01
      10-
 mid.  surface     5.2022E-01  2.8852E-01 -6.6676E-01 -7.8133E-03  3.5600E-01  1.0715E-01
      15-
 mid.  surface     4.5730E-01  4.4679E-01 -1.0600E+00  7.2978E-02 -1.3105E-01 -3.6449E-02
      16-
 mid.  surface     4.7760E-01  3.2500E-01 -9.9959E-01 -7.9310E-02  4.9556E-02 -2.9947E-02
      18-
 mid.  surface     3.8623E-01  3.3839E-01 -5.8288E-01 -2.6021E-02  9.8884E-02  2.0826E-01
      40-
 mid.  surface     2.5735E-01  5.3366E-01 -6.4969E-01 -1.7961E-01  2.2323E-01  1.8834E-01
      41-
 mid.  surface     4.1020E-01  6.1433E-01 -8.2193E-01  1.5646E-01  2.4855E-02  1.2003E-02
      50-
 mid.  surface     4.3518E-01  2.8891E-01 -9.4352E-01 -1.5832E-01 -9.8376E-02  2.3226E-01
      51-
 mid.  surface     2.5428E-01  2.8407E-01 -6.3211E-01 -1.4907E-01  1.8824E-01 -1.4971E-01
      52-
 mid.  surface     6.5290E-02  4.1306E-01 -3.3464E-01 -7.3894E-02  1.1283E-02 -1.3973E-01
      53-
 mid.  surface     2.7428E-01  3.4765E-01 -4.3192E-01 -6.7574E-02 -1.7356E-01 -3.3917E-02
      72-
 mid.  surface     3.7778E-01  4.4468E-01 -1.1005E+00 -1.0416E-01  5.4412E-02  1.9277E-02
      95-
 mid.  surface     3.4561E-01  4.0981E-01 -7.2440E-01 -3.3940E-02  2.1489E-01 -3.9549E-02
     100-
 mid.  surface     3.5697E-01  5.2877E-01 -9.3012E-01 -6.4546E-02 -1.1625E-01 -5.6065E-02
     110-
 mid.  surface     4.2256E-01  5.2139E-01 -1.1730E+00  2.1992E-01 -5.1463E-01 -3.1882E-01



 n o d a l  s t r e s s  c a l c u l a t i o n s   f o r   t i m e  s t e p      918   ( at time 9.89402E+01 )

 node (global)
          stress       sig-xx      sig-yy      sig-zz      sig-xy      sig-yz      sig-zx       plastic
                                                                                                 strain 
       4-
 mid.  surface     0.0000E+00  0.0000E+00  0.0000E+00  0.0000E+00  0.0000E+00  0.0000E+00  1.8084E+00
       5-
 mid.  surface     0.0000E+00  0.0000E+00  0.0000E+00  0.0000E+00  0.0000E+00  0.0000E+00  2.4085E+00
       6-
 mid.  surface    -3.4316E+07 -3.4316E+07 -3.4316E+07  0.0000E+00  0.0000E+00  0.0000E+00  2.0486E+00
       7-
 mid.  surface     2.2975E+09  2.1631E+09  1.2273E+09 -8.6653E+05 -1.4715E+08 -6.9303E+07  1.3354E+00
       8-
 mid.  surface     2.3136E+09  2.2054E+09  2.1511E+09  1.0763E+08 -1.6381E+08  8.5507E+07 -1.0981E+00
       9-
 mid.  surface     9.4331E+08  1.0644E+09  1.4213E+09 -1.3193E+08  1.3290E+08 -7.1394E+07  1.0554E+00
      10-
 mid.  surface    -4.2552E+08 -3.1522E+08 -1.8065E+09 -3.3352E+07 -1.4256E+08 -1.6183E+08 -1.3750E+00
      15-
 mid.  surface    -1.7613E+08 -1.8003E+08 -6.9641E+08 -2.0304E+07 -1.0571E+08 -2.1546E+08  8.3567E-01
      16-
 mid.  surface     1.6001E+08  1.6001E+08  1.6001E+08  0.0000E+00  0.0000E+00  0.0000E+00  1.0777E+00
      18-
 mid.  surface    -1.5054E+09 -1.4275E+09 -2.0714E+09  6.9630E+07 -2.1856E+08 -8.1814E+07 -2.3368E+00
      40-
 mid.  surface    -2.9440E+09 -2.8259E+09 -2.7955E+09  3.8403E+07  4.9116E+07  7.9009E+07 -1.2063E+00
      41-
 mid.  surface     9.4331E+08  1.0644E+09  1.4212E+09 -1.3193E+08  1.3290E+08 -7.1395E+07  5.8391E-01
      50-
 mid.  surface     1.7418E+08  1.7418E+08  1.7418E+08  0.0000E+00  0.0000E+00  0.0000E+00  4.7839E-01
      51-
 mid.  surface     0.0000E+00  0.0000E+00  0.0000E+00  0.0000E+00  0.0000E+00  0.0000E+00 -3.6421E-01
      52-
 mid.  surface     0.0000E+00  0.0000E+00  0.0000E+00  0.0000E+00  0.0000E+00  0.0000E+00  4.8769E-01
      53-
 mid.  surface     2.3251E+07  2.3251E+07  2.3251E+07  0.0000E+00  0.0000E+00  0.0000E+00  7.5935E-01
      72-
 mid.  surface    -2.4406E+09 -2.4169E+09 -3.2868E+09 -5.9353E+07  1.2372E+08 -1.4218E+08  1.2491E+00
      95-
 mid.  surface     6.6964E+07 -5.3308E+07 -5.4647E+08 -7.3555E+06  8.2838E+07  2.3970E+07  1.4370E+00
     100-
 mid.  surface     2.6602E+08  1.3696E+08  3.2101E+08  5.0569E+07  5.4758E+07  2.2383E+08  5.3009E-01
     110-
 mid.  surface     8.6793E+08  8.3021E+08  1.6457E+09 -5.1656E+07  1.3073E+08  4.1250E+07  3.7848E+00



 n o d a l  s t r a i n  c a l c u l a t i o n s   f o r   t i m e  s t e p      918   ( at time 9.89402E+01 )

 node (global)
          strain       eps-xx      eps-yy      eps-zz      eps-xy      eps-yz      eps-zx       
       4-
 mid.  surface     3.3505E-01  2.5612E-01 -7.1215E-01 -8.0685E-03  2.0018E-01  1.0367E-01
       5-
 mid.  surface     2.4769E-01  3.7468E-01 -5.8154E-01  1.1443E-01 -8.8088E-02  4.4905E-02
       6-
 mid.  surface     3.5274E-01  4.3223E-01 -4.4670E-01 -1.4354E-02 -1.5976E-01 -5.9904E-02
       7-
 mid.  surface     3.5819E-01  5.8482E-01 -8.8993E-01  1.1388E-01 -2.6093E-02 -1.7394E-01
       8-
 mid.  surface     3.0287E-01  2.9268E-01 -4.9697E-01 -6.7498E-02 -3.2578E-02  7.9642E-02
       9-
 mid.  surface     4.9938E-01  1.6446E-01 -8.0420E-01 -9.6206E-02 -1.9164E-01 -1.4707E-01
      10-
 mid.  surface     5.3420E-01  2.8928E-01 -6.8461E-01 -1.8969E-03  3.6559E-01  1.1024E-01
      15-
 mid.  surface     4.7912E-01  4.5382E-01 -1.1264E+00  8.0549E-02 -1.5296E-01 -2.2312E-02
      16-
 mid.  surface     4.8273E-01  3.2752E-01 -9.6209E-01 -8.6071E-02  3.1528E-02 -4.5740E-02
      18-
 mid.  surface     3.9435E-01  3.4479E-01 -5.9587E-01 -2.9366E-02  8.7419E-02  2.2870E-01
      40-
 mid.  surface     2.6229E-01  5.4964E-01 -6.7001E-01 -1.8812E-01  2.5689E-01  1.9215E-01
      41-
 mid.  surface     4.2786E-01  6.1526E-01 -8.4456E-01  1.6159E-01  6.8196E-02  2.9572E-03
      50-
 mid.  surface     4.2694E-01  2.9392E-01 -9.0647E-01 -1.7399E-01 -1.0364E-01  2.4728E-01
      51-
 mid.  surface     2.6762E-01  2.9051E-01 -6.5908E-01 -1.5509E-01  2.0425E-01 -1.7841E-01
      52-
 mid.  surface     6.2084E-02  4.1740E-01 -4.0792E-01 -7.2786E-02  2.1296E-02 -1.1280E-01
      53-
 mid.  surface     2.6796E-01  3.5325E-01 -4.1326E-01 -7.9650E-02 -1.5636E-01 -8.4307E-02
      72-
 mid.  surface     3.8946E-01  4.5926E-01 -1.1683E+00 -1.0983E-01  4.6901E-02  4.6603E-02
      95-
 mid.  surface     3.5484E-01  4.1851E-01 -7.4545E-01 -3.6490E-02  2.5317E-01 -2.4475E-02
     100-
 mid.  surface     3.6842E-01  5.4683E-01 -9.4639E-01 -6.6405E-02 -1.0704E-01 -7.0791E-02
     110-
 mid.  surface     4.3973E-01  5.2305E-01 -1.1920E+00  2.2703E-01 -5.0537E-01 -3.3401E-01



 n o d a l  s t r e s s  c a l c u l a t i o n s   f o r   t i m e  s t e p      922   ( at time 1.00000E+02 )

 node (global)
          stress       sig-xx      sig-yy      sig-zz      sig-xy      sig-yz      sig-zx       plastic
                                                                                                 strain 
       4-
 mid.  surface     0.0000E+00  0.0000E+00  0.0000E+00  0.0000E+00  0.0000E+00  0.0000E+00  1.8084E+00
       5-
 mid.  surface     0.0000E+00  0.0000E+00  0.0000E+00  0.0000E+00  0.0000E+00  0.0000E+00  2.4085E+00
       6-
 mid.  surface    -2.7466E+07 -4.3687E+07 -3.9739E+07 -5.7651E+06 -9.4142E+06  4.8873E+07  2.0486E+00
       7-
 mid.  surface     1.2974E+09  1.1598E+09  1.4248E+09 -1.1429E+08 -1.4306E+07  9.5094E+07  1.3386E+00
       8-
 mid.  surface     1.7827E+09  1.7611E+09  2.4316E+09  3.7156E+07 -3.4505E+07  1.0549E+08 -1.0987E+00
       9-
 mid.  surface     8.7934E+08  9.3642E+08  1.3480E+09 -9.5842E+07  1.0339E+08 -6.1995E+07  1.0530E+00
      10-
 mid.  surface    -9.8127E+08 -8.1617E+08 -2.3471E+09 -1.2027E+07 -1.4876E+08 -1.2515E+08 -1.3631E+00
      15-
 mid.  surface    -6.1992E+08 -6.4059E+08 -3.8678E+08 -2.4646E+07 -4.4310E+07 -9.0222E+07  8.3712E-01
      16-
 mid.  surface     1.0523E+08  1.2768E+08  1.6584E+08  5.4230E+07 -3.5761E+06 -4.3743E+04  1.0777E+00
      18-
 mid.  surface    -1.6245E+09 -1.5064E+09 -1.9901E+09  3.2302E+07 -1.7740E+08 -1.0200E+08 -2.3313E+00
      40-
 mid.  surface    -2.2343E+09 -2.1600E+09 -2.9877E+09  5.6054E+07 -4.5353E+07  2.9537E+06 -1.2059E+00
      41-
 mid.  surface     8.7934E+08  9.3642E+08  1.3480E+09 -9.5842E+07  1.0339E+08 -6.1995E+07  5.8147E-01
      50-
 mid.  surface     1.1694E+08  1.4695E+08  1.8256E+08  5.6168E+07  1.0789E+06 -2.3908E+07  4.7839E-01
      51-
 mid.  surface     0.0000E+00  0.0000E+00  0.0000E+00  0.0000E+00  0.0000E+00  0.0000E+00 -3.6421E-01
      52-
 mid.  surface     0.0000E+00  0.0000E+00  0.0000E+00  0.0000E+00  0.0000E+00  0.0000E+00  4.8769E-01
      53-
 mid.  surface     2.0109E+07  3.4594E+07  2.8203E+07  2.1096E+06  9.4969E+06 -4.8080E+07  7.5935E-01
      72-
 mid.  surface    -2.0841E+09 -2.1032E+09 -3.6850E+09  1.2198E+07  3.1030E+07 -1.9255E+08  1.2566E+00
      95-
 mid.  surface    -5.2440E+07 -1.8437E+08 -8.9181E+08 -6.4478E+07  5.7896E+07  3.4919E+07  1.4402E+00
     100-
 mid.  surface     6.0697E+08  5.1573E+08 -3.5806E+07  4.4494E+07  1.4590E+07  1.5256E+08  5.3113E-01
     110-
 mid.  surface     8.9863E+08  8.1972E+08  1.6702E+09 -3.8667E+07  1.3147E+08  2.7541E+07  3.7782E+00



 n o d a l  s t r a i n  c a l c u l a t i o n s   f o r   t i m e  s t e p      922   ( at time 1.00000E+02 )

 node (global)
          strain       eps-xx      eps-yy      eps-zz      eps-xy      eps-yz      eps-zx       
       4-
 mid.  surface     3.3542E-01  2.5600E-01 -7.1283E-01 -8.2583E-03  1.9864E-01  1.0371E-01
       5-
 mid.  surface     2.4866E-01  3.7464E-01 -5.8459E-01  1.1456E-01 -8.8308E-02  4.3997E-02
       6-
 mid.  surface     3.5358E-01  4.3264E-01 -4.4651E-01 -1.4203E-02 -1.6179E-01 -6.0225E-02
       7-
 mid.  surface     3.5918E-01  5.8387E-01 -8.8816E-01  1.1289E-01 -2.5534E-02 -1.7366E-01
       8-
 mid.  surface     3.0384E-01  2.9424E-01 -5.0680E-01 -6.7573E-02 -3.0680E-02  8.0320E-02
       9-
 mid.  surface     4.9986E-01  1.6448E-01 -8.0987E-01 -9.6024E-02 -1.8909E-01 -1.4663E-01
      10-
 mid.  surface     5.3455E-01  2.9051E-01 -6.8528E-01 -1.8538E-03  3.6680E-01  1.1161E-01
      15-
 mid.  surface     4.7999E-01  4.5428E-01 -1.1264E+00  8.0902E-02 -1.5356E-01 -1.8876E-02
      16-
 mid.  surface     4.8243E-01  3.2874E-01 -9.6479E-01 -8.5669E-02  2.9572E-02 -4.2878E-02
      18-
 mid.  surface     3.9518E-01  3.4768E-01 -6.0277E-01 -2.8604E-02  8.9161E-02  2.3018E-01
      40-
 mid.  surface     2.6349E-01  5.5228E-01 -6.7419E-01 -1.8705E-01  2.5541E-01  1.9169E-01
      41-
 mid.  surface     4.2844E-01  6.1652E-01 -8.4335E-01  1.6232E-01  6.8415E-02  2.1850E-03
      50-
 mid.  surface     4.2639E-01  2.9494E-01 -9.0910E-01 -1.7409E-01 -1.0296E-01  2.4708E-01
      51-
 mid.  surface     2.6726E-01  2.9106E-01 -6.6129E-01 -1.5491E-01  2.0435E-01 -1.8240E-01
      52-
 mid.  surface     6.3029E-02  4.1773E-01 -4.1041E-01 -7.2935E-02  2.4044E-02 -1.1228E-01
      53-
 mid.  surface     2.6801E-01  3.5363E-01 -4.1316E-01 -7.9829E-02 -1.5455E-01 -8.8056E-02
      72-
 mid.  surface     3.9044E-01  4.5892E-01 -1.1678E+00 -1.1023E-01  4.9877E-02  5.1429E-02
      95-
 mid.  surface     3.5658E-01  4.1841E-01 -7.4466E-01 -3.7139E-02  2.4668E-01 -2.8678E-02
     100-
 mid.  surface     3.6989E-01  5.4847E-01 -9.5564E-01 -6.6245E-02 -1.0858E-01 -7.2560E-02
     110-
 mid.  surface     4.4046E-01  5.2426E-01 -1.1953E+00  2.2785E-01 -5.1002E-01 -3.3639E-01
