 LS-DYNA keyword deck by LS-PrePost                                      
                    ls-dyna smp d R14 R14.1.1s_1_ef50e1 date 06/16/2024

{BEGIN LEGEND}
 Entity #        Title
        1                                                                                     
        2                                                                                     
        3                                                                                     
        4                                                                                     
        5                                                                                     
        6                                                                                     
        7                                                                                     
        8                                                                                     
        9                                                                                     
       10                                                                                     
       11                                                                                     
       12                                                                                     
       13                                                                                     
       14                                                                                     
       15                                                                                     
       16                                                                                     
       17                                                                                     
       18                                                                                     
       19                                                                                     
      179                                                                                     
      180                                                                                     
      181                                                                                     
      182                                                                                     
      247                                                                                     
      248                                                                                     
      249                                                                                     
      250                                                                                     
      283                                                                                     
      284                                                                                     
      333                                                                                     
      334                                                                                     
      335                                                                                     
      368                                                                                     
      369                                                                                     
      386                                                                                     
      403                                                                                     
      436                                                                                     
      437                                                                                     
      438                                                                                     
      439                                                                                     
      440                                                                                     
      441                                                                                     
      442                                                                                     
      443                                                                                     
      444                                                                                     
      628                                                                                     
      631                                                                                     
      632                                                                                     
      635                                                                                     
      636                                                                                     
      639                                                                                     
      640                                                                                     
      643                                                                                     
      692                                                                                     
      694                                                                                     
      696                                                                                     
      698                                                                                     
      900                                                                                     
      902                                                                                     
      903                                                                                     
      905                                                                                     
      906                                                                                     
      908                                                                                     
      909                                                                                     
      911                                                                                     
     1012                                                                                     
     1013                                                                                     
     1014                                                                                     
     1015                                                                                     
     1060                                                                                     
     1061                                                                                     
     1062                                                                                     
     1063                                                                                     
{END LEGEND}




 n o d a l   p r i n t   o u t   f o r   t i m e  s t e p       1                              ( at time 0.0000000E+00 )

 nodal point  x-disp     y-disp      z-disp      x-vel       y-vel       z-vel      x-accl      y-accl      z-accl      x-coor      y-coor      z-coor
        1  0.00000E+00 0.00000E+00 0.00000E+00 0.00000E+00 0.00000E+00 0.00000E+00 0.00000E+00 0.00000E+00 0.00000E+00 0.00000E+00 0.00000E+00 0.00000E+00
        2  0.00000E+00 0.00000E+00 0.00000E+00 0.00000E+00 0.00000E+00 0.00000E+00 0.00000E+00 0.00000E+00 0.00000E+00 7.93750E-04 0.00000E+00 0.00000E+00
        3  0.00000E+00 0.00000E+00 0.00000E+00 0.00000E+00 0.00000E+00 0.00000E+00 0.00000E+00 0.00000E+00 0.00000E+00 1.58750E-03 0.00000E+00 0.00000E+00
        4  0.00000E+00 0.00000E+00 0.00000E+00 0.00000E+00 0.00000E+00 0.00000E+00 0.00000E+00 0.00000E+00 0.00000E+00 2.38130E-03 0.00000E+00 0.00000E+00
        5  0.00000E+00 0.00000E+00 0.00000E+00 0.00000E+00 0.00000E+00 0.00000E+00 0.00000E+00 0.00000E+00 0.00000E+00 3.17500E-03 0.00000E+00 0.00000E+00
        6  0.00000E+00 0.00000E+00 0.00000E+00 0.00000E+00 0.00000E+00 0.00000E+00 0.00000E+00 0.00000E+00 0.00000E+00 2.93330E-03 1.21500E-03-1.78000E-18
        7  0.00000E+00 0.00000E+00 0.00000E+00 0.00000E+00 0.00000E+00 0.00000E+00 0.00000E+00 0.00000E+00 0.00000E+00 2.24510E-03 2.24510E-03-1.78000E-18
        8  0.00000E+00 0.00000E+00 0.00000E+00 0.00000E+00 0.00000E+00 0.00000E+00 0.00000E+00 0.00000E+00 0.00000E+00 1.21500E-03 2.93330E-03-1.78000E-18
        9  0.00000E+00 0.00000E+00 0.00000E+00 0.00000E+00 0.00000E+00 0.00000E+00 0.00000E+00 0.00000E+00 0.00000E+00 1.94400E-19 3.17500E-03-1.78000E-18
       10  0.00000E+00 0.00000E+00 0.00000E+00 0.00000E+00 0.00000E+00 0.00000E+00 0.00000E+00 0.00000E+00 0.00000E+00 1.45800E-19 2.38130E-03 0.00000E+00
       11  0.00000E+00 0.00000E+00 0.00000E+00 0.00000E+00 0.00000E+00 0.00000E+00 0.00000E+00 0.00000E+00 0.00000E+00 9.72100E-20 1.58750E-03 0.00000E+00
       12  0.00000E+00 0.00000E+00 0.00000E+00 0.00000E+00 0.00000E+00 0.00000E+00 0.00000E+00 0.00000E+00 0.00000E+00 4.86000E-20 7.93750E-04 0.00000E+00
       13  0.00000E+00 0.00000E+00 0.00000E+00 0.00000E+00 0.00000E+00 0.00000E+00 0.00000E+00 0.00000E+00 0.00000E+00 1.35190E-03 1.30830E-03 0.00000E+00
       14  0.00000E+00 0.00000E+00 0.00000E+00 0.00000E+00 0.00000E+00 0.00000E+00 0.00000E+00 0.00000E+00 0.00000E+00 1.50690E-03 6.69579E-04 0.00000E+00
       15  0.00000E+00 0.00000E+00 0.00000E+00 0.00000E+00 0.00000E+00 0.00000E+00 0.00000E+00 0.00000E+00 0.00000E+00 1.76750E-03 1.73630E-03 0.00000E+00
       16  0.00000E+00 0.00000E+00 0.00000E+00 0.00000E+00 0.00000E+00 0.00000E+00 0.00000E+00 0.00000E+00 0.00000E+00 2.19110E-03 9.20134E-04 0.00000E+00
       17  0.00000E+00 0.00000E+00 0.00000E+00 0.00000E+00 0.00000E+00 0.00000E+00 0.00000E+00 0.00000E+00 0.00000E+00 7.06977E-04 1.48830E-03 0.00000E+00
       18  0.00000E+00 0.00000E+00 0.00000E+00 0.00000E+00 0.00000E+00 0.00000E+00 0.00000E+00 0.00000E+00 0.00000E+00 9.50859E-04 2.16330E-03 0.00000E+00
       19  0.00000E+00 0.00000E+00 0.00000E+00 0.00000E+00 0.00000E+00 0.00000E+00 0.00000E+00 0.00000E+00 0.00000E+00 7.82454E-04 7.53789E-04 0.00000E+00
      179  0.00000E+00 0.00000E+00 0.00000E+00 0.00000E+00 0.00000E+00 0.00000E+00 0.00000E+00 0.00000E+00 0.00000E+00 4.49010E-03 4.49010E-03 2.54000E-02
      180  0.00000E+00 0.00000E+00 0.00000E+00 0.00000E+00 0.00000E+00 0.00000E+00 0.00000E+00 0.00000E+00 0.00000E+00 3.53300E-03 3.47070E-03 2.54000E-02
      181  0.00000E+00 0.00000E+00 0.00000E+00 0.00000E+00 0.00000E+00 0.00000E+00 0.00000E+00 0.00000E+00 0.00000E+00 4.37980E-03 1.83920E-03 2.54000E-02
      182  0.00000E+00 0.00000E+00 0.00000E+00 0.00000E+00 0.00000E+00 0.00000E+00 0.00000E+00 0.00000E+00 0.00000E+00 5.86670E-03 2.42980E-03 2.54000E-02
      247  0.00000E+00 0.00000E+00 0.00000E+00 0.00000E+00 0.00000E+00 0.00000E+00 0.00000E+00 0.00000E+00 0.00000E+00 1.58750E-03 0.00000E+00 2.54000E-02
      248  0.00000E+00 0.00000E+00 0.00000E+00 0.00000E+00 0.00000E+00 0.00000E+00 0.00000E+00 0.00000E+00 0.00000E+00 1.56390E-03 1.50640E-03 2.54000E-02
      249  0.00000E+00 0.00000E+00 0.00000E+00 0.00000E+00 0.00000E+00 0.00000E+00 0.00000E+00 0.00000E+00 0.00000E+00 9.72100E-20 1.58750E-03 2.54000E-02
      250  0.00000E+00 0.00000E+00 0.00000E+00 0.00000E+00 0.00000E+00 0.00000E+00 0.00000E+00 0.00000E+00 0.00000E+00 0.00000E+00 0.00000E+00 2.54000E-02
      283  0.00000E+00 0.00000E+00 0.00000E+00 0.00000E+00 0.00000E+00 0.00000E+00 0.00000E+00 0.00000E+00 0.00000E+00 3.17500E-03 0.00000E+00 2.54000E-02
      284  0.00000E+00 0.00000E+00 0.00000E+00 0.00000E+00 0.00000E+00 0.00000E+00 0.00000E+00 0.00000E+00 0.00000E+00 3.01180E-03 1.33810E-03 2.54000E-02
      333  0.00000E+00 0.00000E+00 0.00000E+00 0.00000E+00 0.00000E+00 0.00000E+00 0.00000E+00 0.00000E+00 0.00000E+00 1.41330E-03 2.97530E-03 2.54000E-02
      334  0.00000E+00 0.00000E+00 0.00000E+00 0.00000E+00 0.00000E+00 0.00000E+00 0.00000E+00 0.00000E+00 0.00000E+00 2.70270E-03 2.61550E-03 2.54000E-02
      335  0.00000E+00 0.00000E+00 0.00000E+00 0.00000E+00 0.00000E+00 0.00000E+00 0.00000E+00 0.00000E+00 0.00000E+00 1.90050E-03 4.32390E-03 2.54000E-02
      368  0.00000E+00 0.00000E+00 0.00000E+00 0.00000E+00 0.00000E+00 0.00000E+00 0.00000E+00 0.00000E+00 0.00000E+00 1.94400E-19 3.17500E-03 2.54000E-02
      369  0.00000E+00 0.00000E+00 0.00000E+00 0.00000E+00 0.00000E+00 0.00000E+00 0.00000E+00 0.00000E+00 0.00000E+00 2.91600E-19 4.76250E-03 2.54000E-02
      386  0.00000E+00 0.00000E+00 0.00000E+00 0.00000E+00 0.00000E+00 0.00000E+00 0.00000E+00 0.00000E+00 0.00000E+00 4.76250E-03 0.00000E+00 2.54000E-02
      403  0.00000E+00 0.00000E+00 0.00000E+00 0.00000E+00 0.00000E+00 0.00000E+00 0.00000E+00 0.00000E+00 0.00000E+00 6.35000E-03 0.00000E+00 2.54000E-02
      436  0.00000E+00 0.00000E+00 0.00000E+00 0.00000E+00 0.00000E+00 0.00000E+00 0.00000E+00 0.00000E+00 0.00000E+00 2.42980E-03 5.86670E-03 2.54000E-02
      437  0.00000E+00 0.00000E+00 0.00000E+00 0.00000E+00 0.00000E+00 0.00000E+00 0.00000E+00 0.00000E+00 0.00000E+00 3.88800E-19 6.35000E-03 2.54000E-02
      438  0.00000E+00 0.00000E+00 0.00000E+00 0.00000E+00 0.00000E+00 0.00000E+00 0.00000E+00 0.00000E+00 0.00000E+00 7.25710E-03 0.00000E+00 2.54000E-02
      439  0.00000E+00 0.00000E+00 0.00000E+00 0.00000E+00 0.00000E+00 0.00000E+00 0.00000E+00 0.00000E+00 0.00000E+00 8.16430E-03 0.00000E+00 2.54000E-02
      440  0.00000E+00 0.00000E+00 0.00000E+00 0.00000E+00 0.00000E+00 0.00000E+00 0.00000E+00 0.00000E+00 0.00000E+00 9.07140E-03 0.00000E+00 2.54000E-02
      441  0.00000E+00 0.00000E+00 0.00000E+00 0.00000E+00 0.00000E+00 0.00000E+00 0.00000E+00 0.00000E+00 0.00000E+00 9.97860E-03 0.00000E+00 2.54000E-02
      442  0.00000E+00 0.00000E+00 0.00000E+00 0.00000E+00 0.00000E+00 0.00000E+00 0.00000E+00 0.00000E+00 0.00000E+00 1.08857E-02 0.00000E+00 2.54000E-02
      443  0.00000E+00 0.00000E+00 0.00000E+00 0.00000E+00 0.00000E+00 0.00000E+00 0.00000E+00 0.00000E+00 0.00000E+00 1.17929E-02 0.00000E+00 2.54000E-02
      444  0.00000E+00 0.00000E+00 0.00000E+00 0.00000E+00 0.00000E+00 0.00000E+00 0.00000E+00 0.00000E+00 0.00000E+00 1.27000E-02 0.00000E+00 2.54000E-02
      628  0.00000E+00 0.00000E+00 0.00000E+00 0.00000E+00 0.00000E+00 0.00000E+00 0.00000E+00 0.00000E+00 0.00000E+00 8.39690E-03 3.43240E-03 2.54000E-02
      631  0.00000E+00 0.00000E+00 0.00000E+00 0.00000E+00 0.00000E+00 0.00000E+00 0.00000E+00 0.00000E+00 0.00000E+00 7.55350E-03 3.09820E-03 2.54000E-02
      632  0.00000E+00 0.00000E+00 0.00000E+00 0.00000E+00 0.00000E+00 0.00000E+00 0.00000E+00 0.00000E+00 0.00000E+00 6.41810E-03 6.41090E-03 2.54000E-02
      635  0.00000E+00 0.00000E+00 0.00000E+00 0.00000E+00 0.00000E+00 0.00000E+00 0.00000E+00 0.00000E+00 0.00000E+00 5.77540E-03 5.77060E-03 2.54000E-02
      636  0.00000E+00 0.00000E+00 0.00000E+00 0.00000E+00 0.00000E+00 0.00000E+00 0.00000E+00 0.00000E+00 0.00000E+00 3.43920E-03 8.39420E-03 2.54000E-02
      639  0.00000E+00 0.00000E+00 0.00000E+00 0.00000E+00 0.00000E+00 0.00000E+00 0.00000E+00 0.00000E+00 0.00000E+00 3.10270E-03 7.55170E-03 2.54000E-02
      640  0.00000E+00 0.00000E+00 0.00000E+00 0.00000E+00 0.00000E+00 0.00000E+00 0.00000E+00 0.00000E+00 0.00000E+00 5.55500E-19 9.07140E-03 2.54000E-02
      643  0.00000E+00 0.00000E+00 0.00000E+00 0.00000E+00 0.00000E+00 0.00000E+00 0.00000E+00 0.00000E+00 0.00000E+00 4.99900E-19 8.16430E-03 2.54000E-02
      692  0.00000E+00 0.00000E+00 0.00000E+00 0.00000E+00 0.00000E+00 0.00000E+00 0.00000E+00 0.00000E+00 0.00000E+00 9.24030E-03 3.76660E-03 2.54000E-02
      694  0.00000E+00 0.00000E+00 0.00000E+00 0.00000E+00 0.00000E+00 0.00000E+00 0.00000E+00 0.00000E+00 0.00000E+00 7.06070E-03 7.05110E-03 2.54000E-02
      696  0.00000E+00 0.00000E+00 0.00000E+00 0.00000E+00 0.00000E+00 0.00000E+00 0.00000E+00 0.00000E+00 0.00000E+00 3.77570E-03 9.23660E-03 2.54000E-02
      698  0.00000E+00 0.00000E+00 0.00000E+00 0.00000E+00 0.00000E+00 0.00000E+00 0.00000E+00 0.00000E+00 0.00000E+00 6.11000E-19 9.97860E-03 2.54000E-02
      900  0.00000E+00 0.00000E+00 0.00000E+00 0.00000E+00 0.00000E+00 0.00000E+00 0.00000E+00 0.00000E+00 0.00000E+00 1.09271E-02 4.43500E-03 2.54000E-02
      902  0.00000E+00 0.00000E+00 0.00000E+00 0.00000E+00 0.00000E+00 0.00000E+00 0.00000E+00 0.00000E+00 0.00000E+00 1.00837E-02 4.10080E-03 2.54000E-02
      903  0.00000E+00 0.00000E+00 0.00000E+00 0.00000E+00 0.00000E+00 0.00000E+00 0.00000E+00 0.00000E+00 0.00000E+00 8.34610E-03 8.33160E-03 2.54000E-02
      905  0.00000E+00 0.00000E+00 0.00000E+00 0.00000E+00 0.00000E+00 0.00000E+00 0.00000E+00 0.00000E+00 0.00000E+00 7.70340E-03 7.69130E-03 2.54000E-02
      906  0.00000E+00 0.00000E+00 0.00000E+00 0.00000E+00 0.00000E+00 0.00000E+00 0.00000E+00 0.00000E+00 0.00000E+00 4.44870E-03 1.09215E-02 2.54000E-02
      908  0.00000E+00 0.00000E+00 0.00000E+00 0.00000E+00 0.00000E+00 0.00000E+00 0.00000E+00 0.00000E+00 0.00000E+00 4.11220E-03 1.00791E-02 2.54000E-02
      909  0.00000E+00 0.00000E+00 0.00000E+00 0.00000E+00 0.00000E+00 0.00000E+00 0.00000E+00 0.00000E+00 0.00000E+00 7.22100E-19 1.17929E-02 2.54000E-02
      911  0.00000E+00 0.00000E+00 0.00000E+00 0.00000E+00 0.00000E+00 0.00000E+00 0.00000E+00 0.00000E+00 0.00000E+00 6.66600E-19 1.08857E-02 2.54000E-02
     1012  0.00000E+00 0.00000E+00 0.00000E+00 0.00000E+00 0.00000E+00 0.00000E+00 0.00000E+00 0.00000E+00 0.00000E+00 6.71010E-03 2.76400E-03 2.54000E-02
     1013  0.00000E+00 0.00000E+00 0.00000E+00 0.00000E+00 0.00000E+00 0.00000E+00 0.00000E+00 0.00000E+00 0.00000E+00 5.13280E-03 5.13040E-03 2.54000E-02
     1014  0.00000E+00 0.00000E+00 0.00000E+00 0.00000E+00 0.00000E+00 0.00000E+00 0.00000E+00 0.00000E+00 0.00000E+00 2.76620E-03 6.70920E-03 2.54000E-02
     1015  0.00000E+00 0.00000E+00 0.00000E+00 0.00000E+00 0.00000E+00 0.00000E+00 0.00000E+00 0.00000E+00 0.00000E+00 4.44400E-19 7.25710E-03 2.54000E-02
     1060  0.00000E+00 0.00000E+00 0.00000E+00 0.00000E+00 0.00000E+00 0.00000E+00 0.00000E+00 0.00000E+00 0.00000E+00 1.17705E-02 4.76920E-03 2.54000E-02
     1061  0.00000E+00 0.00000E+00 0.00000E+00 0.00000E+00 0.00000E+00 0.00000E+00 0.00000E+00 0.00000E+00 0.00000E+00 8.98870E-03 8.97180E-03 2.54000E-02
     1062  0.00000E+00 0.00000E+00 0.00000E+00 0.00000E+00 0.00000E+00 0.00000E+00 0.00000E+00 0.00000E+00 0.00000E+00 4.78520E-03 1.17640E-02 2.54000E-02
     1063  0.00000E+00 0.00000E+00 0.00000E+00 0.00000E+00 0.00000E+00 0.00000E+00 0.00000E+00 0.00000E+00 0.00000E+00 7.77700E-19 1.27000E-02 2.54000E-02



 n o d a l   p r i n t   o u t   f o r   t i m e  s t e p      10                              ( at time 1.2924466E+00 )

 nodal point  x-disp     y-disp      z-disp      x-vel       y-vel       z-vel      x-accl      y-accl      z-accl      x-coor      y-coor      z-coor
        1  0.00000E+00 0.00000E+00 0.00000E+00 0.00000E+00 0.00000E+00 0.00000E+00 0.00000E+00 0.00000E+00 0.00000E+00 0.00000E+00 0.00000E+00 0.00000E+00
        2  6.71645E-08 0.00000E+00 0.00000E+00 0.00000E+00 0.00000E+00 0.00000E+00 0.00000E+00 0.00000E+00 0.00000E+00 7.93817E-04 0.00000E+00 0.00000E+00
        3  1.95527E-07 0.00000E+00 0.00000E+00 0.00000E+00 0.00000E+00 0.00000E+00 0.00000E+00 0.00000E+00 0.00000E+00 1.58770E-03 0.00000E+00 0.00000E+00
        4  4.75717E-07 0.00000E+00 0.00000E+00 0.00000E+00 0.00000E+00 0.00000E+00 0.00000E+00 0.00000E+00 0.00000E+00 2.38178E-03 0.00000E+00 0.00000E+00
        5  1.29076E-06 0.00000E+00 0.00000E+00 0.00000E+00 0.00000E+00 0.00000E+00 0.00000E+00 0.00000E+00 0.00000E+00 3.17629E-03 0.00000E+00 0.00000E+00
        6  1.19264E-06 7.31108E-07 0.00000E+00 0.00000E+00 0.00000E+00 0.00000E+00 0.00000E+00 0.00000E+00 0.00000E+00 2.93449E-03 1.21573E-03-1.78000E-18
        7  9.08339E-07 1.24352E-06 0.00000E+00 0.00000E+00 0.00000E+00 0.00000E+00 0.00000E+00 0.00000E+00 0.00000E+00 2.24601E-03 2.24634E-03-1.78000E-18
        8  4.75929E-07 1.46240E-06 0.00000E+00 0.00000E+00 0.00000E+00 0.00000E+00 0.00000E+00 0.00000E+00 0.00000E+00 1.21548E-03 2.93476E-03-1.78000E-18
        9  0.00000E+00 1.45447E-06 0.00000E+00 0.00000E+00 0.00000E+00 0.00000E+00 0.00000E+00 0.00000E+00 0.00000E+00 1.94400E-19 3.17645E-03-1.78000E-18
       10  0.00000E+00 4.86589E-07 0.00000E+00 0.00000E+00 0.00000E+00 0.00000E+00 0.00000E+00 0.00000E+00 0.00000E+00 1.45800E-19 2.38179E-03 0.00000E+00
       11  0.00000E+00 1.30642E-07 0.00000E+00 0.00000E+00 0.00000E+00 0.00000E+00 0.00000E+00 0.00000E+00 0.00000E+00 9.72100E-20 1.58763E-03 0.00000E+00
       12  0.00000E+00 2.95623E-08 0.00000E+00 0.00000E+00 0.00000E+00 0.00000E+00 0.00000E+00 0.00000E+00 0.00000E+00 4.86000E-20 7.93780E-04 0.00000E+00
       13  3.34652E-07 2.62289E-07 0.00000E+00 0.00000E+00 0.00000E+00 0.00000E+00 0.00000E+00 0.00000E+00 0.00000E+00 1.35223E-03 1.30856E-03 0.00000E+00
       14  2.39666E-07 1.19297E-07 0.00000E+00 0.00000E+00 0.00000E+00 0.00000E+00 0.00000E+00 0.00000E+00 0.00000E+00 1.50714E-03 6.69698E-04 0.00000E+00
       15  5.87627E-07 4.35505E-07 0.00000E+00 0.00000E+00 0.00000E+00 0.00000E+00 0.00000E+00 0.00000E+00 0.00000E+00 1.76809E-03 1.73674E-03 0.00000E+00
       16  5.31835E-07 1.68028E-07 0.00000E+00 0.00000E+00 0.00000E+00 0.00000E+00 0.00000E+00 0.00000E+00 0.00000E+00 2.19163E-03 9.20302E-04 0.00000E+00
       17  1.53704E-07 2.47508E-07 0.00000E+00 0.00000E+00 0.00000E+00 0.00000E+00 0.00000E+00 0.00000E+00 0.00000E+00 7.07131E-04 1.48855E-03 0.00000E+00
       18  3.19549E-07 5.29272E-07 0.00000E+00 0.00000E+00 0.00000E+00 0.00000E+00 0.00000E+00 0.00000E+00 0.00000E+00 9.51178E-04 2.16383E-03 0.00000E+00
       19  1.03472E-07 1.01008E-07 0.00000E+00 0.00000E+00 0.00000E+00 0.00000E+00 0.00000E+00 0.00000E+00 0.00000E+00 7.82558E-04 7.53890E-04 0.00000E+00
      179  2.39156E-07 2.92928E-07-1.29245E-05 0.00000E+00 0.00000E+00 0.00000E+00 0.00000E+00 0.00000E+00 0.00000E+00 4.49034E-03 4.49039E-03 2.53871E-02
      180  1.86008E-07 2.12176E-07-1.29245E-05 0.00000E+00 0.00000E+00 0.00000E+00 0.00000E+00 0.00000E+00 0.00000E+00 3.53319E-03 3.47091E-03 2.53871E-02
      181  1.85321E-07 1.09334E-07-1.29245E-05 0.00000E+00 0.00000E+00 0.00000E+00 0.00000E+00 0.00000E+00 0.00000E+00 4.37999E-03 1.83931E-03 2.53871E-02
      182  3.02324E-07 1.61661E-07-1.29245E-05 0.00000E+00 0.00000E+00 0.00000E+00 0.00000E+00 0.00000E+00 0.00000E+00 5.86700E-03 2.42996E-03 2.53871E-02
      247  7.03774E-08 0.00000E+00-1.29245E-05 0.00000E+00 0.00000E+00 0.00000E+00 0.00000E+00 0.00000E+00 0.00000E+00 1.58757E-03 0.00000E+00 2.53871E-02
      248  8.89351E-08 9.22250E-08-1.29245E-05 0.00000E+00 0.00000E+00 0.00000E+00 0.00000E+00 0.00000E+00 0.00000E+00 1.56399E-03 1.50649E-03 2.53871E-02
      249  0.00000E+00 9.73706E-08-1.29245E-05 0.00000E+00 0.00000E+00 0.00000E+00 0.00000E+00 0.00000E+00 0.00000E+00 9.72100E-20 1.58760E-03 2.53871E-02
      250  0.00000E+00 0.00000E+00-1.29245E-05 0.00000E+00 0.00000E+00 0.00000E+00 0.00000E+00 0.00000E+00 0.00000E+00 0.00000E+00 0.00000E+00 2.53871E-02
      283  1.45164E-07 0.00000E+00-1.29245E-05 0.00000E+00 0.00000E+00 0.00000E+00 0.00000E+00 0.00000E+00 0.00000E+00 3.17515E-03 0.00000E+00 2.53871E-02
      284  1.31922E-07 4.18624E-08-1.29245E-05 0.00000E+00 0.00000E+00 0.00000E+00 0.00000E+00 0.00000E+00 0.00000E+00 3.01193E-03 1.33814E-03 2.53871E-02
      333  5.30907E-08 1.47562E-07-1.29245E-05 0.00000E+00 0.00000E+00 0.00000E+00 0.00000E+00 0.00000E+00 0.00000E+00 1.41335E-03 2.97545E-03 2.53871E-02
      334  1.30256E-07 1.34748E-07-1.29245E-05 0.00000E+00 0.00000E+00 0.00000E+00 0.00000E+00 0.00000E+00 0.00000E+00 2.70283E-03 2.61563E-03 2.53871E-02
      335  9.43343E-08 2.14971E-07-1.29245E-05 0.00000E+00 0.00000E+00 0.00000E+00 0.00000E+00 0.00000E+00 0.00000E+00 1.90059E-03 4.32411E-03 2.53871E-02
      368  0.00000E+00 1.90977E-07-1.29245E-05 0.00000E+00 0.00000E+00 0.00000E+00 0.00000E+00 0.00000E+00 0.00000E+00 1.94400E-19 3.17519E-03 2.53871E-02
      369  0.00000E+00 3.07772E-07-1.29245E-05 0.00000E+00 0.00000E+00 0.00000E+00 0.00000E+00 0.00000E+00 0.00000E+00 2.91600E-19 4.76281E-03 2.53871E-02
      386  2.31616E-07 0.00000E+00-1.29245E-05 0.00000E+00 0.00000E+00 0.00000E+00 0.00000E+00 0.00000E+00 0.00000E+00 4.76273E-03 0.00000E+00 2.53871E-02
      403  3.29358E-07 0.00000E+00-1.29245E-05 0.00000E+00 0.00000E+00 0.00000E+00 0.00000E+00 0.00000E+00 0.00000E+00 6.35033E-03 0.00000E+00 2.53871E-02
      436  1.26543E-07 3.81759E-07-1.29245E-05 0.00000E+00 0.00000E+00 0.00000E+00 0.00000E+00 0.00000E+00 0.00000E+00 2.42993E-03 5.86708E-03 2.53871E-02
      437  0.00000E+00 4.48589E-07-1.29245E-05 0.00000E+00 0.00000E+00 0.00000E+00 0.00000E+00 0.00000E+00 0.00000E+00 3.88800E-19 6.35045E-03 2.53871E-02
      438  3.42816E-07 0.00000E+00-1.29245E-05 0.00000E+00 0.00000E+00 0.00000E+00 0.00000E+00 0.00000E+00 0.00000E+00 7.25744E-03 0.00000E+00 2.53871E-02
      439  3.77680E-07 0.00000E+00-1.29245E-05 0.00000E+00 0.00000E+00 0.00000E+00 0.00000E+00 0.00000E+00 0.00000E+00 8.16468E-03 0.00000E+00 2.53871E-02
      440  4.13810E-07 0.00000E+00-1.29245E-05 0.00000E+00 0.00000E+00 0.00000E+00 0.00000E+00 0.00000E+00 0.00000E+00 9.07181E-03 0.00000E+00 2.53871E-02
      441  4.49161E-07 0.00000E+00-1.29245E-05 0.00000E+00 0.00000E+00 0.00000E+00 0.00000E+00 0.00000E+00 0.00000E+00 9.97905E-03 0.00000E+00 2.53871E-02
      442  4.83137E-07 0.00000E+00-1.29245E-05 0.00000E+00 0.00000E+00 0.00000E+00 0.00000E+00 0.00000E+00 0.00000E+00 1.08862E-02 0.00000E+00 2.53871E-02
      443  5.16447E-07 0.00000E+00-1.29245E-05 0.00000E+00 0.00000E+00 0.00000E+00 0.00000E+00 0.00000E+00 0.00000E+00 1.17934E-02 0.00000E+00 2.53871E-02
      444  5.53216E-07 0.00000E+00-1.29245E-05 0.00000E+00 0.00000E+00 0.00000E+00 0.00000E+00 0.00000E+00 0.00000E+00 1.27006E-02 0.00000E+00 2.53871E-02
      628  3.92824E-07 2.03436E-07-1.29245E-05 0.00000E+00 0.00000E+00 0.00000E+00 0.00000E+00 0.00000E+00 0.00000E+00 8.39729E-03 3.43260E-03 2.53871E-02
      631  3.57935E-07 1.87157E-07-1.29245E-05 0.00000E+00 0.00000E+00 0.00000E+00 0.00000E+00 0.00000E+00 0.00000E+00 7.55386E-03 3.09839E-03 2.53871E-02
      632  3.14482E-07 3.73481E-07-1.29245E-05 0.00000E+00 0.00000E+00 0.00000E+00 0.00000E+00 0.00000E+00 0.00000E+00 6.41841E-03 6.41127E-03 2.53871E-02
      635  2.86002E-07 3.42691E-07-1.29245E-05 0.00000E+00 0.00000E+00 0.00000E+00 0.00000E+00 0.00000E+00 0.00000E+00 5.77569E-03 5.77094E-03 2.53871E-02
      636  1.70234E-07 4.76657E-07-1.29245E-05 0.00000E+00 0.00000E+00 0.00000E+00 0.00000E+00 0.00000E+00 0.00000E+00 3.43937E-03 8.39468E-03 2.53871E-02
      639  1.53942E-07 4.39211E-07-1.29245E-05 0.00000E+00 0.00000E+00 0.00000E+00 0.00000E+00 0.00000E+00 0.00000E+00 3.10285E-03 7.55214E-03 2.53871E-02
      640  0.00000E+00 5.11652E-07-1.29245E-05 0.00000E+00 0.00000E+00 0.00000E+00 0.00000E+00 0.00000E+00 0.00000E+00 5.55500E-19 9.07191E-03 2.53871E-02
      643  0.00000E+00 4.74567E-07-1.29245E-05 0.00000E+00 0.00000E+00 0.00000E+00 0.00000E+00 0.00000E+00 0.00000E+00 4.99900E-19 8.16477E-03 2.53871E-02
      692  4.27867E-07 2.18735E-07-1.29245E-05 0.00000E+00 0.00000E+00 0.00000E+00 0.00000E+00 0.00000E+00 0.00000E+00 9.24073E-03 3.76682E-03 2.53871E-02
      694  3.43938E-07 4.03927E-07-1.29245E-05 0.00000E+00 0.00000E+00 0.00000E+00 0.00000E+00 0.00000E+00 0.00000E+00 7.06104E-03 7.05150E-03 2.53871E-02
      696  1.87081E-07 5.14342E-07-1.29245E-05 0.00000E+00 0.00000E+00 0.00000E+00 0.00000E+00 0.00000E+00 0.00000E+00 3.77589E-03 9.23711E-03 2.53871E-02
      698  0.00000E+00 5.49932E-07-1.29245E-05 0.00000E+00 0.00000E+00 0.00000E+00 0.00000E+00 0.00000E+00 0.00000E+00 6.11000E-19 9.97915E-03 2.53871E-02
      900  4.97770E-07 2.45835E-07-1.29245E-05 0.00000E+00 0.00000E+00 0.00000E+00 0.00000E+00 0.00000E+00 0.00000E+00 1.09276E-02 4.43525E-03 2.53871E-02
      902  4.62849E-07 2.32772E-07-1.29245E-05 0.00000E+00 0.00000E+00 0.00000E+00 0.00000E+00 0.00000E+00 0.00000E+00 1.00842E-02 4.10103E-03 2.53871E-02
      903  4.05544E-07 4.64558E-07-1.29245E-05 0.00000E+00 0.00000E+00 0.00000E+00 0.00000E+00 0.00000E+00 0.00000E+00 8.34651E-03 8.33206E-03 2.53871E-02
      905  3.74336E-07 4.34001E-07-1.29245E-05 0.00000E+00 0.00000E+00 0.00000E+00 0.00000E+00 0.00000E+00 0.00000E+00 7.70377E-03 7.69173E-03 2.53871E-02
      906  2.20794E-07 5.90927E-07-1.29245E-05 0.00000E+00 0.00000E+00 0.00000E+00 0.00000E+00 0.00000E+00 0.00000E+00 4.44892E-03 1.09221E-02 2.53871E-02
      908  2.03889E-07 5.51424E-07-1.29245E-05 0.00000E+00 0.00000E+00 0.00000E+00 0.00000E+00 0.00000E+00 0.00000E+00 4.11240E-03 1.00797E-02 2.53871E-02
      909  0.00000E+00 6.29132E-07-1.29245E-05 0.00000E+00 0.00000E+00 0.00000E+00 0.00000E+00 0.00000E+00 0.00000E+00 7.22100E-19 1.17935E-02 2.53871E-02
      911  0.00000E+00 5.86876E-07-1.29245E-05 0.00000E+00 0.00000E+00 0.00000E+00 0.00000E+00 0.00000E+00 0.00000E+00 6.66600E-19 1.08863E-02 2.53871E-02
     1012  3.24584E-07 1.72302E-07-1.29245E-05 0.00000E+00 0.00000E+00 0.00000E+00 0.00000E+00 0.00000E+00 0.00000E+00 6.71042E-03 2.76417E-03 2.53871E-02
     1013  2.58623E-07 3.14773E-07-1.29245E-05 0.00000E+00 0.00000E+00 0.00000E+00 0.00000E+00 0.00000E+00 0.00000E+00 5.13306E-03 5.13071E-03 2.53871E-02
     1014  1.38568E-07 4.07492E-07-1.29245E-05 0.00000E+00 0.00000E+00 0.00000E+00 0.00000E+00 0.00000E+00 0.00000E+00 2.76634E-03 6.70961E-03 2.53871E-02
     1015  0.00000E+00 4.48976E-07-1.29245E-05 0.00000E+00 0.00000E+00 0.00000E+00 0.00000E+00 0.00000E+00 0.00000E+00 4.44400E-19 7.25755E-03 2.53871E-02
     1060  5.18083E-07 2.56879E-07-1.29245E-05 0.00000E+00 0.00000E+00 0.00000E+00 0.00000E+00 0.00000E+00 0.00000E+00 1.17710E-02 4.76946E-03 2.53871E-02
     1061  4.09877E-07 4.84469E-07-1.29245E-05 0.00000E+00 0.00000E+00 0.00000E+00 0.00000E+00 0.00000E+00 0.00000E+00 8.98911E-03 8.97228E-03 2.53871E-02
     1062  2.35379E-07 6.62674E-07-1.29245E-05 0.00000E+00 0.00000E+00 0.00000E+00 0.00000E+00 0.00000E+00 0.00000E+00 4.78544E-03 1.17647E-02 2.53871E-02
     1063  0.00000E+00 7.38668E-07-1.29245E-05 0.00000E+00 0.00000E+00 0.00000E+00 0.00000E+00 0.00000E+00 0.00000E+00 7.77700E-19 1.27007E-02 2.53871E-02



 n o d a l   p r i n t   o u t   f o r   t i m e  s t e p      14                              ( at time 2.5483898E+00 )

 nodal point  x-disp     y-disp      z-disp      x-vel       y-vel       z-vel      x-accl      y-accl      z-accl      x-coor      y-coor      z-coor
        1  0.00000E+00 0.00000E+00 0.00000E+00 0.00000E+00 0.00000E+00 0.00000E+00 0.00000E+00 0.00000E+00 0.00000E+00 0.00000E+00 0.00000E+00 0.00000E+00
        2  1.09988E-07 0.00000E+00 0.00000E+00 0.00000E+00 0.00000E+00 0.00000E+00 0.00000E+00 0.00000E+00 0.00000E+00 7.93860E-04 0.00000E+00 0.00000E+00
        3  3.53248E-07 0.00000E+00 0.00000E+00 0.00000E+00 0.00000E+00 0.00000E+00 0.00000E+00 0.00000E+00 0.00000E+00 1.58785E-03 0.00000E+00 0.00000E+00
        4  9.89714E-07 0.00000E+00 0.00000E+00 0.00000E+00 0.00000E+00 0.00000E+00 0.00000E+00 0.00000E+00 0.00000E+00 2.38229E-03 0.00000E+00 0.00000E+00
        5  3.00285E-06 0.00000E+00 0.00000E+00 0.00000E+00 0.00000E+00 0.00000E+00 0.00000E+00 0.00000E+00 0.00000E+00 3.17800E-03 0.00000E+00 0.00000E+00
        6  2.82987E-06 1.68539E-06 0.00000E+00 0.00000E+00 0.00000E+00 0.00000E+00 0.00000E+00 0.00000E+00 0.00000E+00 2.93613E-03 1.21669E-03-1.78000E-18
        7  2.19669E-06 2.88750E-06 0.00000E+00 0.00000E+00 0.00000E+00 0.00000E+00 0.00000E+00 0.00000E+00 0.00000E+00 2.24730E-03 2.24799E-03-1.78000E-18
        8  1.16991E-06 3.38254E-06 0.00000E+00 0.00000E+00 0.00000E+00 0.00000E+00 0.00000E+00 0.00000E+00 0.00000E+00 1.21617E-03 2.93668E-03-1.78000E-18
        9  0.00000E+00 3.31808E-06 0.00000E+00 0.00000E+00 0.00000E+00 0.00000E+00 0.00000E+00 0.00000E+00 0.00000E+00 1.94400E-19 3.17832E-03-1.78000E-18
       10  0.00000E+00 1.07237E-06 0.00000E+00 0.00000E+00 0.00000E+00 0.00000E+00 0.00000E+00 0.00000E+00 0.00000E+00 1.45800E-19 2.38237E-03 0.00000E+00
       11  0.00000E+00 2.62689E-07 0.00000E+00 0.00000E+00 0.00000E+00 0.00000E+00 0.00000E+00 0.00000E+00 0.00000E+00 9.72100E-20 1.58776E-03 0.00000E+00
       12  0.00000E+00 3.89724E-08 0.00000E+00 0.00000E+00 0.00000E+00 0.00000E+00 0.00000E+00 0.00000E+00 0.00000E+00 4.86000E-20 7.93789E-04 0.00000E+00
       13  7.29937E-07 5.93763E-07 0.00000E+00 0.00000E+00 0.00000E+00 0.00000E+00 0.00000E+00 0.00000E+00 0.00000E+00 1.35263E-03 1.30889E-03 0.00000E+00
       14  5.08593E-07 2.71304E-07 0.00000E+00 0.00000E+00 0.00000E+00 0.00000E+00 0.00000E+00 0.00000E+00 0.00000E+00 1.50741E-03 6.69850E-04 0.00000E+00
       15  1.26205E-06 1.03903E-06 0.00000E+00 0.00000E+00 0.00000E+00 0.00000E+00 0.00000E+00 0.00000E+00 0.00000E+00 1.76876E-03 1.73734E-03 0.00000E+00
       16  1.16534E-06 4.25969E-07 0.00000E+00 0.00000E+00 0.00000E+00 0.00000E+00 0.00000E+00 0.00000E+00 0.00000E+00 2.19227E-03 9.20559E-04 0.00000E+00
       17  3.41817E-07 5.61293E-07 0.00000E+00 0.00000E+00 0.00000E+00 0.00000E+00 0.00000E+00 0.00000E+00 0.00000E+00 7.07319E-04 1.48886E-03 0.00000E+00
       18  6.76238E-07 1.22550E-06 0.00000E+00 0.00000E+00 0.00000E+00 0.00000E+00 0.00000E+00 0.00000E+00 0.00000E+00 9.51535E-04 2.16453E-03 0.00000E+00
       19  2.16026E-07 2.27403E-07 0.00000E+00 0.00000E+00 0.00000E+00 0.00000E+00 0.00000E+00 0.00000E+00 0.00000E+00 7.82670E-04 7.54016E-04 0.00000E+00
      179  4.51488E-07 5.89831E-07-2.54839E-05 0.00000E+00 0.00000E+00 0.00000E+00 0.00000E+00 0.00000E+00 0.00000E+00 4.49055E-03 4.49069E-03 2.53745E-02
      180  3.49515E-07 4.29088E-07-2.54839E-05 0.00000E+00 0.00000E+00 0.00000E+00 0.00000E+00 0.00000E+00 0.00000E+00 3.53335E-03 3.47113E-03 2.53745E-02
      181  3.34910E-07 2.26659E-07-2.54839E-05 0.00000E+00 0.00000E+00 0.00000E+00 0.00000E+00 0.00000E+00 0.00000E+00 4.38013E-03 1.83943E-03 2.53745E-02
      182  5.58264E-07 3.31986E-07-2.54839E-05 0.00000E+00 0.00000E+00 0.00000E+00 0.00000E+00 0.00000E+00 0.00000E+00 5.86726E-03 2.43013E-03 2.53745E-02
      247  1.21411E-07 0.00000E+00-2.54839E-05 0.00000E+00 0.00000E+00 0.00000E+00 0.00000E+00 0.00000E+00 0.00000E+00 1.58762E-03 0.00000E+00 2.53745E-02
      248  1.61143E-07 1.85049E-07-2.54839E-05 0.00000E+00 0.00000E+00 0.00000E+00 0.00000E+00 0.00000E+00 0.00000E+00 1.56406E-03 1.50659E-03 2.53745E-02
      249  0.00000E+00 2.02352E-07-2.54839E-05 0.00000E+00 0.00000E+00 0.00000E+00 0.00000E+00 0.00000E+00 0.00000E+00 9.72100E-20 1.58770E-03 2.53745E-02
      250  0.00000E+00 0.00000E+00-2.54839E-05 0.00000E+00 0.00000E+00 0.00000E+00 0.00000E+00 0.00000E+00 0.00000E+00 0.00000E+00 0.00000E+00 2.53745E-02
      283  2.60543E-07 0.00000E+00-2.54839E-05 0.00000E+00 0.00000E+00 0.00000E+00 0.00000E+00 0.00000E+00 0.00000E+00 3.17526E-03 0.00000E+00 2.53745E-02
      284  2.35956E-07 8.94776E-08-2.54839E-05 0.00000E+00 0.00000E+00 0.00000E+00 0.00000E+00 0.00000E+00 0.00000E+00 3.01204E-03 1.33819E-03 2.53745E-02
      333  9.52799E-08 2.86344E-07-2.54839E-05 0.00000E+00 0.00000E+00 0.00000E+00 0.00000E+00 0.00000E+00 0.00000E+00 1.41340E-03 2.97559E-03 2.53745E-02
      334  2.38585E-07 2.69358E-07-2.54839E-05 0.00000E+00 0.00000E+00 0.00000E+00 0.00000E+00 0.00000E+00 0.00000E+00 2.70294E-03 2.61577E-03 2.53745E-02
      335  1.73518E-07 4.18753E-07-2.54839E-05 0.00000E+00 0.00000E+00 0.00000E+00 0.00000E+00 0.00000E+00 0.00000E+00 1.90067E-03 4.32432E-03 2.53745E-02
      368  0.00000E+00 3.86336E-07-2.54839E-05 0.00000E+00 0.00000E+00 0.00000E+00 0.00000E+00 0.00000E+00 0.00000E+00 1.94400E-19 3.17539E-03 2.53745E-02
      369  0.00000E+00 6.18044E-07-2.54839E-05 0.00000E+00 0.00000E+00 0.00000E+00 0.00000E+00 0.00000E+00 0.00000E+00 2.91600E-19 4.76312E-03 2.53745E-02
      386  4.26045E-07 0.00000E+00-2.54839E-05 0.00000E+00 0.00000E+00 0.00000E+00 0.00000E+00 0.00000E+00 0.00000E+00 4.76293E-03 0.00000E+00 2.53745E-02
      403  6.10818E-07 0.00000E+00-2.54839E-05 0.00000E+00 0.00000E+00 0.00000E+00 0.00000E+00 0.00000E+00 0.00000E+00 6.35061E-03 0.00000E+00 2.53745E-02
      436  2.36667E-07 7.54763E-07-2.54839E-05 0.00000E+00 0.00000E+00 0.00000E+00 0.00000E+00 0.00000E+00 0.00000E+00 2.43004E-03 5.86745E-03 2.53745E-02
      437  0.00000E+00 9.08437E-07-2.54839E-05 0.00000E+00 0.00000E+00 0.00000E+00 0.00000E+00 0.00000E+00 0.00000E+00 3.88800E-19 6.35091E-03 2.53745E-02
      438  6.27510E-07 0.00000E+00-2.54839E-05 0.00000E+00 0.00000E+00 0.00000E+00 0.00000E+00 0.00000E+00 0.00000E+00 7.25773E-03 0.00000E+00 2.53745E-02
      439  6.91530E-07 0.00000E+00-2.54839E-05 0.00000E+00 0.00000E+00 0.00000E+00 0.00000E+00 0.00000E+00 0.00000E+00 8.16499E-03 0.00000E+00 2.53745E-02
      440  7.58327E-07 0.00000E+00-2.54839E-05 0.00000E+00 0.00000E+00 0.00000E+00 0.00000E+00 0.00000E+00 0.00000E+00 9.07216E-03 0.00000E+00 2.53745E-02
      441  8.23523E-07 0.00000E+00-2.54839E-05 0.00000E+00 0.00000E+00 0.00000E+00 0.00000E+00 0.00000E+00 0.00000E+00 9.97942E-03 0.00000E+00 2.53745E-02
      442  8.85787E-07 0.00000E+00-2.54839E-05 0.00000E+00 0.00000E+00 0.00000E+00 0.00000E+00 0.00000E+00 0.00000E+00 1.08866E-02 0.00000E+00 2.53745E-02
      443  9.46027E-07 0.00000E+00-2.54839E-05 0.00000E+00 0.00000E+00 0.00000E+00 0.00000E+00 0.00000E+00 0.00000E+00 1.17938E-02 0.00000E+00 2.53745E-02
      444  1.00712E-06 0.00000E+00-2.54839E-05 0.00000E+00 0.00000E+00 0.00000E+00 0.00000E+00 0.00000E+00 0.00000E+00 1.27010E-02 0.00000E+00 2.53745E-02
      628  7.29276E-07 4.18865E-07-2.54839E-05 0.00000E+00 0.00000E+00 0.00000E+00 0.00000E+00 0.00000E+00 0.00000E+00 8.39763E-03 3.43282E-03 2.53745E-02
      631  6.63626E-07 3.86171E-07-2.54839E-05 0.00000E+00 0.00000E+00 0.00000E+00 0.00000E+00 0.00000E+00 0.00000E+00 7.55416E-03 3.09859E-03 2.53745E-02
      632  5.95528E-07 7.44562E-07-2.54839E-05 0.00000E+00 0.00000E+00 0.00000E+00 0.00000E+00 0.00000E+00 0.00000E+00 6.41870E-03 6.41164E-03 2.53745E-02
      635  5.40507E-07 6.86094E-07-2.54839E-05 0.00000E+00 0.00000E+00 0.00000E+00 0.00000E+00 0.00000E+00 0.00000E+00 5.77594E-03 5.77129E-03 2.53745E-02
      636  3.25919E-07 9.38903E-07-2.54839E-05 0.00000E+00 0.00000E+00 0.00000E+00 0.00000E+00 0.00000E+00 0.00000E+00 3.43953E-03 8.39514E-03 2.53745E-02
      639  2.93057E-07 8.68170E-07-2.54839E-05 0.00000E+00 0.00000E+00 0.00000E+00 0.00000E+00 0.00000E+00 0.00000E+00 3.10299E-03 7.55257E-03 2.53745E-02
      640  0.00000E+00 1.00639E-06-2.54839E-05 0.00000E+00 0.00000E+00 0.00000E+00 0.00000E+00 0.00000E+00 0.00000E+00 5.55500E-19 9.07241E-03 2.53745E-02
      643  0.00000E+00 9.40355E-07-2.54839E-05 0.00000E+00 0.00000E+00 0.00000E+00 0.00000E+00 0.00000E+00 0.00000E+00 4.99900E-19 8.16524E-03 2.53745E-02
      692  7.95513E-07 4.49120E-07-2.54839E-05 0.00000E+00 0.00000E+00 0.00000E+00 0.00000E+00 0.00000E+00 0.00000E+00 9.24110E-03 3.76705E-03 2.53745E-02
      694  6.52976E-07 8.02455E-07-2.54839E-05 0.00000E+00 0.00000E+00 0.00000E+00 0.00000E+00 0.00000E+00 0.00000E+00 7.06135E-03 7.05190E-03 2.53745E-02
      696  3.59714E-07 1.01030E-06-2.54839E-05 0.00000E+00 0.00000E+00 0.00000E+00 0.00000E+00 0.00000E+00 0.00000E+00 3.77606E-03 9.23761E-03 2.53745E-02
      698  0.00000E+00 1.07602E-06-2.54839E-05 0.00000E+00 0.00000E+00 0.00000E+00 0.00000E+00 0.00000E+00 0.00000E+00 6.11000E-19 9.97968E-03 2.53745E-02
      900  9.27743E-07 4.99084E-07-2.54839E-05 0.00000E+00 0.00000E+00 0.00000E+00 0.00000E+00 0.00000E+00 0.00000E+00 1.09280E-02 4.43550E-03 2.53745E-02
      902  8.61958E-07 4.76108E-07-2.54839E-05 0.00000E+00 0.00000E+00 0.00000E+00 0.00000E+00 0.00000E+00 0.00000E+00 1.00846E-02 4.10128E-03 2.53745E-02
      903  7.74296E-07 9.18184E-07-2.54839E-05 0.00000E+00 0.00000E+00 0.00000E+00 0.00000E+00 0.00000E+00 0.00000E+00 8.34687E-03 8.33252E-03 2.53745E-02
      905  7.12687E-07 8.59859E-07-2.54839E-05 0.00000E+00 0.00000E+00 0.00000E+00 0.00000E+00 0.00000E+00 0.00000E+00 7.70411E-03 7.69216E-03 2.53745E-02
      906  4.25122E-07 1.15635E-06-2.54839E-05 0.00000E+00 0.00000E+00 0.00000E+00 0.00000E+00 0.00000E+00 0.00000E+00 4.44913E-03 1.09227E-02 2.53745E-02
      908  3.93004E-07 1.08102E-06-2.54839E-05 0.00000E+00 0.00000E+00 0.00000E+00 0.00000E+00 0.00000E+00 0.00000E+00 4.11259E-03 1.00802E-02 2.53745E-02
      909  0.00000E+00 1.22842E-06-2.54839E-05 0.00000E+00 0.00000E+00 0.00000E+00 0.00000E+00 0.00000E+00 0.00000E+00 7.22100E-19 1.17941E-02 2.53745E-02
      911  0.00000E+00 1.14364E-06-2.54839E-05 0.00000E+00 0.00000E+00 0.00000E+00 0.00000E+00 0.00000E+00 0.00000E+00 6.66600E-19 1.08868E-02 2.53745E-02
     1012  6.01031E-07 3.55934E-07-2.54839E-05 0.00000E+00 0.00000E+00 0.00000E+00 0.00000E+00 0.00000E+00 0.00000E+00 6.71070E-03 2.76436E-03 2.53745E-02
     1013  4.87965E-07 6.33239E-07-2.54839E-05 0.00000E+00 0.00000E+00 0.00000E+00 0.00000E+00 0.00000E+00 0.00000E+00 5.13329E-03 5.13103E-03 2.53745E-02
     1014  2.61480E-07 8.08083E-07-2.54839E-05 0.00000E+00 0.00000E+00 0.00000E+00 0.00000E+00 0.00000E+00 0.00000E+00 2.76646E-03 6.71001E-03 2.53745E-02
     1015  0.00000E+00 9.00032E-07-2.54839E-05 0.00000E+00 0.00000E+00 0.00000E+00 0.00000E+00 0.00000E+00 0.00000E+00 4.44400E-19 7.25800E-03 2.53745E-02
     1060  9.52192E-07 5.12700E-07-2.54839E-05 0.00000E+00 0.00000E+00 0.00000E+00 0.00000E+00 0.00000E+00 0.00000E+00 1.17715E-02 4.76971E-03 2.53745E-02
     1061  7.63591E-07 9.46717E-07-2.54839E-05 0.00000E+00 0.00000E+00 0.00000E+00 0.00000E+00 0.00000E+00 0.00000E+00 8.98946E-03 8.97275E-03 2.53745E-02
     1062  4.46933E-07 1.30560E-06-2.54839E-05 0.00000E+00 0.00000E+00 0.00000E+00 0.00000E+00 0.00000E+00 0.00000E+00 4.78565E-03 1.17653E-02 2.53745E-02
     1063  0.00000E+00 1.48667E-06-2.54839E-05 0.00000E+00 0.00000E+00 0.00000E+00 0.00000E+00 0.00000E+00 0.00000E+00 7.77700E-19 1.27015E-02 2.53745E-02



 n o d a l   p r i n t   o u t   f o r   t i m e  s t e p     450                              ( at time 3.6569160E+00 )

 nodal point  x-disp     y-disp      z-disp      x-vel       y-vel       z-vel      x-accl      y-accl      z-accl      x-coor      y-coor      z-coor
        1  0.00000E+00 0.00000E+00 0.00000E+00 0.00000E+00 0.00000E+00 0.00000E+00 0.00000E+00 0.00000E+00 0.00000E+00 0.00000E+00 0.00000E+00 0.00000E+00
        2  1.14532E-05 0.00000E+00 0.00000E+00 0.00000E+00 0.00000E+00 0.00000E+00 0.00000E+00 0.00000E+00 0.00000E+00 8.05203E-04 0.00000E+00 0.00000E+00
        3  2.18981E-05 0.00000E+00 0.00000E+00 0.00000E+00 0.00000E+00 0.00000E+00 0.00000E+00 0.00000E+00 0.00000E+00 1.60940E-03 0.00000E+00 0.00000E+00
        4  2.93810E-05 0.00000E+00 0.00000E+00 0.00000E+00 0.00000E+00 0.00000E+00 0.00000E+00 0.00000E+00 0.00000E+00 2.41068E-03 0.00000E+00 0.00000E+00
        5  3.15678E-05 0.00000E+00 0.00000E+00 0.00000E+00 0.00000E+00 0.00000E+00 0.00000E+00 0.00000E+00 0.00000E+00 3.20657E-03 0.00000E+00 0.00000E+00
        6  1.12500E-05 1.55451E-06 0.00000E+00 0.00000E+00 0.00000E+00 0.00000E+00 0.00000E+00 0.00000E+00 0.00000E+00 2.94455E-03 1.21655E-03-1.78000E-18
        7  6.31940E-06 1.07880E-05 0.00000E+00 0.00000E+00 0.00000E+00 0.00000E+00 0.00000E+00 0.00000E+00 0.00000E+00 2.25142E-03 2.25589E-03-1.78000E-18
        8  2.30712E-06 1.51603E-05 0.00000E+00 0.00000E+00 0.00000E+00 0.00000E+00 0.00000E+00 0.00000E+00 0.00000E+00 1.21731E-03 2.94846E-03-1.78000E-18
        9  0.00000E+00 1.56159E-05 0.00000E+00 0.00000E+00 0.00000E+00 0.00000E+00 0.00000E+00 0.00000E+00 0.00000E+00 1.94400E-19 3.19062E-03-1.78000E-18
       10  0.00000E+00 1.00596E-05 0.00000E+00 0.00000E+00 0.00000E+00 0.00000E+00 0.00000E+00 0.00000E+00 0.00000E+00 1.45800E-19 2.39136E-03 0.00000E+00
       11  0.00000E+00 6.02995E-06 0.00000E+00 0.00000E+00 0.00000E+00 0.00000E+00 0.00000E+00 0.00000E+00 0.00000E+00 9.72100E-20 1.59353E-03 0.00000E+00
       12  0.00000E+00 3.11668E-06 0.00000E+00 0.00000E+00 0.00000E+00 0.00000E+00 0.00000E+00 0.00000E+00 0.00000E+00 4.86000E-20 7.96867E-04 0.00000E+00
       13  6.14229E-07-4.08055E-06 0.00000E+00 0.00000E+00 0.00000E+00 0.00000E+00 0.00000E+00 0.00000E+00 0.00000E+00 1.35251E-03 1.30422E-03 0.00000E+00
       14 -1.60141E-06-6.42266E-06 0.00000E+00 0.00000E+00 0.00000E+00 0.00000E+00 0.00000E+00 0.00000E+00 0.00000E+00 1.50530E-03 6.63156E-04 0.00000E+00
       15  3.38210E-06 7.59498E-07 0.00000E+00 0.00000E+00 0.00000E+00 0.00000E+00 0.00000E+00 0.00000E+00 0.00000E+00 1.77088E-03 1.73706E-03 0.00000E+00
       16  3.04340E-06-3.84127E-06 0.00000E+00 0.00000E+00 0.00000E+00 0.00000E+00 0.00000E+00 0.00000E+00 0.00000E+00 2.19414E-03 9.16292E-04 0.00000E+00
       17  1.02351E-06 4.76896E-06 0.00000E+00 0.00000E+00 0.00000E+00 0.00000E+00 0.00000E+00 0.00000E+00 0.00000E+00 7.08000E-04 1.49307E-03 0.00000E+00
       18  2.63585E-06 8.65472E-06 0.00000E+00 0.00000E+00 0.00000E+00 0.00000E+00 0.00000E+00 0.00000E+00 0.00000E+00 9.53494E-04 2.17195E-03 0.00000E+00
       19 -1.44503E-06 1.47112E-06 0.00000E+00 0.00000E+00 0.00000E+00 0.00000E+00 0.00000E+00 0.00000E+00 0.00000E+00 7.81009E-04 7.55260E-04 0.00000E+00
      179  4.12410E-07 4.63313E-07-3.65692E-05 0.00000E+00 0.00000E+00 0.00000E+00 0.00000E+00 0.00000E+00 0.00000E+00 4.49051E-03 4.49056E-03 2.53634E-02
      180  5.08637E-07 2.30358E-07-3.65692E-05 0.00000E+00 0.00000E+00 0.00000E+00 0.00000E+00 0.00000E+00 0.00000E+00 3.53351E-03 3.47093E-03 2.53634E-02
      181  6.82893E-07-3.83096E-07-3.65692E-05 0.00000E+00 0.00000E+00 0.00000E+00 0.00000E+00 0.00000E+00 0.00000E+00 4.38048E-03 1.83882E-03 2.53634E-02
      182  6.04105E-07 5.98891E-08-3.65692E-05 0.00000E+00 0.00000E+00 0.00000E+00 0.00000E+00 0.00000E+00 0.00000E+00 5.86730E-03 2.42986E-03 2.53634E-02
      247 -3.49524E-06 0.00000E+00-3.65692E-05 0.00000E+00 0.00000E+00 0.00000E+00 0.00000E+00 0.00000E+00 0.00000E+00 1.58400E-03 0.00000E+00 2.53634E-02
      248  2.04030E-07-9.25278E-07-3.65692E-05 0.00000E+00 0.00000E+00 0.00000E+00 0.00000E+00 0.00000E+00 0.00000E+00 1.56410E-03 1.50547E-03 2.53634E-02
      249  0.00000E+00-1.47210E-06-3.65692E-05 0.00000E+00 0.00000E+00 0.00000E+00 0.00000E+00 0.00000E+00 0.00000E+00 9.72100E-20 1.58603E-03 2.53634E-02
      250  0.00000E+00 0.00000E+00-3.65692E-05 0.00000E+00 0.00000E+00 0.00000E+00 0.00000E+00 0.00000E+00 0.00000E+00 0.00000E+00 0.00000E+00 2.53634E-02
      283 -4.40592E-06 0.00000E+00-3.65692E-05 0.00000E+00 0.00000E+00 0.00000E+00 0.00000E+00 0.00000E+00 0.00000E+00 3.17059E-03 0.00000E+00 2.53634E-02
      284  3.93289E-07-1.50768E-06-3.65692E-05 0.00000E+00 0.00000E+00 0.00000E+00 0.00000E+00 0.00000E+00 0.00000E+00 3.01219E-03 1.33659E-03 2.53634E-02
      333  2.23550E-07 2.75363E-07-3.65692E-05 0.00000E+00 0.00000E+00 0.00000E+00 0.00000E+00 0.00000E+00 0.00000E+00 1.41352E-03 2.97558E-03 2.53634E-02
      334  4.24041E-07 3.03879E-07-3.65692E-05 0.00000E+00 0.00000E+00 0.00000E+00 0.00000E+00 0.00000E+00 0.00000E+00 2.70312E-03 2.61580E-03 2.53634E-02
      335  4.45984E-07 8.12083E-07-3.65692E-05 0.00000E+00 0.00000E+00 0.00000E+00 0.00000E+00 0.00000E+00 0.00000E+00 1.90095E-03 4.32471E-03 2.53634E-02
      368  0.00000E+00-8.25002E-07-3.65692E-05 0.00000E+00 0.00000E+00 0.00000E+00 0.00000E+00 0.00000E+00 0.00000E+00 1.94400E-19 3.17417E-03 2.53634E-02
      369  0.00000E+00-4.39014E-07-3.65692E-05 0.00000E+00 0.00000E+00 0.00000E+00 0.00000E+00 0.00000E+00 0.00000E+00 2.91600E-19 4.76206E-03 2.53634E-02
      386 -2.67561E-06 0.00000E+00-3.65692E-05 0.00000E+00 0.00000E+00 0.00000E+00 0.00000E+00 0.00000E+00 0.00000E+00 4.75982E-03 0.00000E+00 2.53634E-02
      403 -1.56041E-06 0.00000E+00-3.65692E-05 0.00000E+00 0.00000E+00 0.00000E+00 0.00000E+00 0.00000E+00 0.00000E+00 6.34844E-03 0.00000E+00 2.53634E-02
      436  6.03542E-07 1.52482E-06-3.65692E-05 0.00000E+00 0.00000E+00 0.00000E+00 0.00000E+00 0.00000E+00 0.00000E+00 2.43040E-03 5.86822E-03 2.53634E-02
      437  0.00000E+00 6.61175E-07-3.65692E-05 0.00000E+00 0.00000E+00 0.00000E+00 0.00000E+00 0.00000E+00 0.00000E+00 3.88800E-19 6.35066E-03 2.53634E-02
      438 -7.61021E-07 0.00000E+00-3.65692E-05 0.00000E+00 0.00000E+00 0.00000E+00 0.00000E+00 0.00000E+00 0.00000E+00 7.25634E-03 0.00000E+00 2.53634E-02
      439 -4.33159E-07 0.00000E+00-3.65692E-05 0.00000E+00 0.00000E+00 0.00000E+00 0.00000E+00 0.00000E+00 0.00000E+00 8.16387E-03 0.00000E+00 2.53634E-02
      440 -2.38843E-07 0.00000E+00-3.65692E-05 0.00000E+00 0.00000E+00 0.00000E+00 0.00000E+00 0.00000E+00 0.00000E+00 9.07116E-03 0.00000E+00 2.53634E-02
      441 -1.14380E-07 0.00000E+00-3.65692E-05 0.00000E+00 0.00000E+00 0.00000E+00 0.00000E+00 0.00000E+00 0.00000E+00 9.97849E-03 0.00000E+00 2.53634E-02
      442 -3.24012E-08 0.00000E+00-3.65692E-05 0.00000E+00 0.00000E+00 0.00000E+00 0.00000E+00 0.00000E+00 0.00000E+00 1.08857E-02 0.00000E+00 2.53634E-02
      443  5.19588E-09 0.00000E+00-3.65692E-05 0.00000E+00 0.00000E+00 0.00000E+00 0.00000E+00 0.00000E+00 0.00000E+00 1.17929E-02 0.00000E+00 2.53634E-02
      444 -1.16800E-07 0.00000E+00-3.65692E-05 0.00000E+00 0.00000E+00 0.00000E+00 0.00000E+00 0.00000E+00 0.00000E+00 1.26999E-02 0.00000E+00 2.53634E-02
      628  4.43843E-07 2.80665E-07-3.65692E-05 0.00000E+00 0.00000E+00 0.00000E+00 0.00000E+00 0.00000E+00 0.00000E+00 8.39734E-03 3.43268E-03 2.53634E-02
      631  3.89382E-07 1.97700E-07-3.65692E-05 0.00000E+00 0.00000E+00 0.00000E+00 0.00000E+00 0.00000E+00 0.00000E+00 7.55389E-03 3.09840E-03 2.53634E-02
      632  5.40965E-07 6.89731E-07-3.65692E-05 0.00000E+00 0.00000E+00 0.00000E+00 0.00000E+00 0.00000E+00 0.00000E+00 6.41864E-03 6.41159E-03 2.53634E-02
      635  4.82229E-07 6.40131E-07-3.65692E-05 0.00000E+00 0.00000E+00 0.00000E+00 0.00000E+00 0.00000E+00 0.00000E+00 5.77588E-03 5.77124E-03 2.53634E-02
      636  3.95285E-07 1.17846E-06-3.65692E-05 0.00000E+00 0.00000E+00 0.00000E+00 0.00000E+00 0.00000E+00 0.00000E+00 3.43960E-03 8.39538E-03 2.53634E-02
      639  4.10889E-07 1.21638E-06-3.65692E-05 0.00000E+00 0.00000E+00 0.00000E+00 0.00000E+00 0.00000E+00 0.00000E+00 3.10311E-03 7.55292E-03 2.53634E-02
      640  0.00000E+00 1.37098E-06-3.65692E-05 0.00000E+00 0.00000E+00 0.00000E+00 0.00000E+00 0.00000E+00 0.00000E+00 5.55500E-19 9.07277E-03 2.53634E-02
      643  0.00000E+00 1.31205E-06-3.65692E-05 0.00000E+00 0.00000E+00 0.00000E+00 0.00000E+00 0.00000E+00 0.00000E+00 4.99900E-19 8.16561E-03 2.53634E-02
      692  5.03301E-07 3.35593E-07-3.65692E-05 0.00000E+00 0.00000E+00 0.00000E+00 0.00000E+00 0.00000E+00 0.00000E+00 9.24080E-03 3.76694E-03 2.53634E-02
      694  6.01514E-07 7.32595E-07-3.65692E-05 0.00000E+00 0.00000E+00 0.00000E+00 0.00000E+00 0.00000E+00 0.00000E+00 7.06130E-03 7.05183E-03 2.53634E-02
      696  4.19254E-07 1.20716E-06-3.65692E-05 0.00000E+00 0.00000E+00 0.00000E+00 0.00000E+00 0.00000E+00 0.00000E+00 3.77612E-03 9.23781E-03 2.53634E-02
      698  0.00000E+00 1.37158E-06-3.65692E-05 0.00000E+00 0.00000E+00 0.00000E+00 0.00000E+00 0.00000E+00 0.00000E+00 6.11000E-19 9.97997E-03 2.53634E-02
      900  6.17339E-07 3.25875E-07-3.65692E-05 0.00000E+00 0.00000E+00 0.00000E+00 0.00000E+00 0.00000E+00 0.00000E+00 1.09277E-02 4.43533E-03 2.53634E-02
      902  5.73698E-07 3.57646E-07-3.65692E-05 0.00000E+00 0.00000E+00 0.00000E+00 0.00000E+00 0.00000E+00 0.00000E+00 1.00843E-02 4.10116E-03 2.53634E-02
      903  8.34847E-07 9.02545E-07-3.65692E-05 0.00000E+00 0.00000E+00 0.00000E+00 0.00000E+00 0.00000E+00 0.00000E+00 8.34693E-03 8.33250E-03 2.53634E-02
      905  6.94456E-07 7.84198E-07-3.65692E-05 0.00000E+00 0.00000E+00 0.00000E+00 0.00000E+00 0.00000E+00 0.00000E+00 7.70409E-03 7.69208E-03 2.53634E-02
      906  4.45736E-07 1.20375E-06-3.65692E-05 0.00000E+00 0.00000E+00 0.00000E+00 0.00000E+00 0.00000E+00 0.00000E+00 4.44915E-03 1.09227E-02 2.53634E-02
      908  4.44715E-07 1.21569E-06-3.65692E-05 0.00000E+00 0.00000E+00 0.00000E+00 0.00000E+00 0.00000E+00 0.00000E+00 4.11264E-03 1.00803E-02 2.53634E-02
      909  0.00000E+00 1.57357E-06-3.65692E-05 0.00000E+00 0.00000E+00 0.00000E+00 0.00000E+00 0.00000E+00 0.00000E+00 7.22100E-19 1.17945E-02 2.53634E-02
      911  0.00000E+00 1.41490E-06-3.65692E-05 0.00000E+00 0.00000E+00 0.00000E+00 0.00000E+00 0.00000E+00 0.00000E+00 6.66600E-19 1.08871E-02 2.53634E-02
     1012  3.60596E-07 1.17181E-07-3.65692E-05 0.00000E+00 0.00000E+00 0.00000E+00 0.00000E+00 0.00000E+00 0.00000E+00 6.71046E-03 2.76412E-03 2.53634E-02
     1013  4.70312E-07 6.27702E-07-3.65692E-05 0.00000E+00 0.00000E+00 0.00000E+00 0.00000E+00 0.00000E+00 0.00000E+00 5.13327E-03 5.13103E-03 2.53634E-02
     1014  4.34863E-07 1.25746E-06-3.65692E-05 0.00000E+00 0.00000E+00 0.00000E+00 0.00000E+00 0.00000E+00 0.00000E+00 2.76663E-03 6.71046E-03 2.53634E-02
     1015  0.00000E+00 1.17908E-06-3.65692E-05 0.00000E+00 0.00000E+00 0.00000E+00 0.00000E+00 0.00000E+00 0.00000E+00 4.44400E-19 7.25828E-03 2.53634E-02
     1060  5.54061E-07 2.38189E-07-3.65692E-05 0.00000E+00 0.00000E+00 0.00000E+00 0.00000E+00 0.00000E+00 0.00000E+00 1.17711E-02 4.76944E-03 2.53634E-02
     1061  4.25474E-07 6.97122E-07-3.65692E-05 0.00000E+00 0.00000E+00 0.00000E+00 0.00000E+00 0.00000E+00 0.00000E+00 8.98913E-03 8.97250E-03 2.53634E-02
     1062  6.27229E-07 1.75410E-06-3.65692E-05 0.00000E+00 0.00000E+00 0.00000E+00 0.00000E+00 0.00000E+00 0.00000E+00 4.78583E-03 1.17658E-02 2.53634E-02
     1063  0.00000E+00 2.08243E-06-3.65692E-05 0.00000E+00 0.00000E+00 0.00000E+00 0.00000E+00 0.00000E+00 0.00000E+00 7.77700E-19 1.27021E-02 2.53634E-02



 n o d a l   p r i n t   o u t   f o r   t i m e  s t e p     460                              ( at time 4.5374496E+00 )

 nodal point  x-disp     y-disp      z-disp      x-vel       y-vel       z-vel      x-accl      y-accl      z-accl      x-coor      y-coor      z-coor
        1  0.00000E+00 0.00000E+00 0.00000E+00 0.00000E+00 0.00000E+00 0.00000E+00 0.00000E+00 0.00000E+00 0.00000E+00 0.00000E+00 0.00000E+00 0.00000E+00
        2  1.30291E-05 0.00000E+00 0.00000E+00 0.00000E+00 0.00000E+00 0.00000E+00 0.00000E+00 0.00000E+00 0.00000E+00 8.06779E-04 0.00000E+00 0.00000E+00
        3  2.52762E-05 0.00000E+00 0.00000E+00 0.00000E+00 0.00000E+00 0.00000E+00 0.00000E+00 0.00000E+00 0.00000E+00 1.61278E-03 0.00000E+00 0.00000E+00
        4  3.87855E-05 0.00000E+00 0.00000E+00 0.00000E+00 0.00000E+00 0.00000E+00 0.00000E+00 0.00000E+00 0.00000E+00 2.42009E-03 0.00000E+00 0.00000E+00
        5  4.16474E-05 0.00000E+00 0.00000E+00 0.00000E+00 0.00000E+00 0.00000E+00 0.00000E+00 0.00000E+00 0.00000E+00 3.21665E-03 0.00000E+00 0.00000E+00
        6  1.73410E-05 5.66531E-06 0.00000E+00 0.00000E+00 0.00000E+00 0.00000E+00 0.00000E+00 0.00000E+00 0.00000E+00 2.95064E-03 1.22067E-03-1.78000E-18
        7  9.86488E-06 1.65544E-05 0.00000E+00 0.00000E+00 0.00000E+00 0.00000E+00 0.00000E+00 0.00000E+00 0.00000E+00 2.25496E-03 2.26165E-03-1.78000E-18
        8  3.91586E-06 2.06244E-05 0.00000E+00 0.00000E+00 0.00000E+00 0.00000E+00 0.00000E+00 0.00000E+00 0.00000E+00 1.21892E-03 2.95392E-03-1.78000E-18
        9  0.00000E+00 2.02959E-05 0.00000E+00 0.00000E+00 0.00000E+00 0.00000E+00 0.00000E+00 0.00000E+00 0.00000E+00 1.94400E-19 3.19530E-03-1.78000E-18
       10  0.00000E+00 1.27848E-05 0.00000E+00 0.00000E+00 0.00000E+00 0.00000E+00 0.00000E+00 0.00000E+00 0.00000E+00 1.45800E-19 2.39408E-03 0.00000E+00
       11  0.00000E+00 7.27641E-06 0.00000E+00 0.00000E+00 0.00000E+00 0.00000E+00 0.00000E+00 0.00000E+00 0.00000E+00 9.72100E-20 1.59478E-03 0.00000E+00
       12  0.00000E+00 3.87482E-06 0.00000E+00 0.00000E+00 0.00000E+00 0.00000E+00 0.00000E+00 0.00000E+00 0.00000E+00 4.86000E-20 7.97625E-04 0.00000E+00
       13  2.80083E-06-2.59579E-06 0.00000E+00 0.00000E+00 0.00000E+00 0.00000E+00 0.00000E+00 0.00000E+00 0.00000E+00 1.35470E-03 1.30570E-03 0.00000E+00
       14  4.95089E-07-6.57407E-06 0.00000E+00 0.00000E+00 0.00000E+00 0.00000E+00 0.00000E+00 0.00000E+00 0.00000E+00 1.50740E-03 6.63005E-04 0.00000E+00
       15  6.35139E-06 3.78225E-06 0.00000E+00 0.00000E+00 0.00000E+00 0.00000E+00 0.00000E+00 0.00000E+00 0.00000E+00 1.77385E-03 1.74008E-03 0.00000E+00
       16  6.73871E-06-3.19181E-06 0.00000E+00 0.00000E+00 0.00000E+00 0.00000E+00 0.00000E+00 0.00000E+00 0.00000E+00 2.19784E-03 9.16942E-04 0.00000E+00
       17  2.06760E-06 6.50869E-06 0.00000E+00 0.00000E+00 0.00000E+00 0.00000E+00 0.00000E+00 0.00000E+00 0.00000E+00 7.09045E-04 1.49481E-03 0.00000E+00
       18  3.90303E-06 1.19401E-05 0.00000E+00 0.00000E+00 0.00000E+00 0.00000E+00 0.00000E+00 0.00000E+00 0.00000E+00 9.54762E-04 2.17524E-03 0.00000E+00
       19 -7.45225E-07 2.14903E-06 0.00000E+00 0.00000E+00 0.00000E+00 0.00000E+00 0.00000E+00 0.00000E+00 0.00000E+00 7.81709E-04 7.55938E-04 0.00000E+00
      179  4.43500E-07 7.10712E-07-4.53745E-05 0.00000E+00 0.00000E+00 0.00000E+00 0.00000E+00 0.00000E+00 0.00000E+00 4.49054E-03 4.49081E-03 2.53546E-02
      180  5.78794E-07 4.50464E-07-4.53745E-05 0.00000E+00 0.00000E+00 0.00000E+00 0.00000E+00 0.00000E+00 0.00000E+00 3.53358E-03 3.47115E-03 2.53546E-02
      181  5.53617E-07-2.95761E-07-4.53745E-05 0.00000E+00 0.00000E+00 0.00000E+00 0.00000E+00 0.00000E+00 0.00000E+00 4.38035E-03 1.83890E-03 2.53546E-02
      182  5.14451E-07 2.50951E-07-4.53745E-05 0.00000E+00 0.00000E+00 0.00000E+00 0.00000E+00 0.00000E+00 0.00000E+00 5.86721E-03 2.43005E-03 2.53546E-02
      247 -2.49833E-06 0.00000E+00-4.53745E-05 0.00000E+00 0.00000E+00 0.00000E+00 0.00000E+00 0.00000E+00 0.00000E+00 1.58500E-03 0.00000E+00 2.53546E-02
      248 -1.40643E-07-1.24978E-06-4.53745E-05 0.00000E+00 0.00000E+00 0.00000E+00 0.00000E+00 0.00000E+00 0.00000E+00 1.56376E-03 1.50515E-03 2.53546E-02
      249  0.00000E+00-6.23968E-07-4.53745E-05 0.00000E+00 0.00000E+00 0.00000E+00 0.00000E+00 0.00000E+00 0.00000E+00 9.72100E-20 1.58688E-03 2.53546E-02
      250  0.00000E+00 0.00000E+00-4.53745E-05 0.00000E+00 0.00000E+00 0.00000E+00 0.00000E+00 0.00000E+00 0.00000E+00 0.00000E+00 0.00000E+00 2.53546E-02
      283 -3.09455E-06 0.00000E+00-4.53745E-05 0.00000E+00 0.00000E+00 0.00000E+00 0.00000E+00 0.00000E+00 0.00000E+00 3.17191E-03 0.00000E+00 2.53546E-02
      284  1.94766E-07-1.48843E-06-4.53745E-05 0.00000E+00 0.00000E+00 0.00000E+00 0.00000E+00 0.00000E+00 0.00000E+00 3.01199E-03 1.33661E-03 2.53546E-02
      333  2.15461E-07 1.66203E-07-4.53745E-05 0.00000E+00 0.00000E+00 0.00000E+00 0.00000E+00 0.00000E+00 0.00000E+00 1.41352E-03 2.97547E-03 2.53546E-02
      334  3.28333E-07 3.35715E-07-4.53745E-05 0.00000E+00 0.00000E+00 0.00000E+00 0.00000E+00 0.00000E+00 0.00000E+00 2.70303E-03 2.61584E-03 2.53546E-02
      335  4.36971E-07 7.74503E-07-4.53745E-05 0.00000E+00 0.00000E+00 0.00000E+00 0.00000E+00 0.00000E+00 0.00000E+00 1.90094E-03 4.32467E-03 2.53546E-02
      368  0.00000E+00-2.16056E-07-4.53745E-05 0.00000E+00 0.00000E+00 0.00000E+00 0.00000E+00 0.00000E+00 0.00000E+00 1.94400E-19 3.17478E-03 2.53546E-02
      369  0.00000E+00-9.01651E-08-4.53745E-05 0.00000E+00 0.00000E+00 0.00000E+00 0.00000E+00 0.00000E+00 0.00000E+00 2.91600E-19 4.76241E-03 2.53546E-02
      386 -1.87878E-06 0.00000E+00-4.53745E-05 0.00000E+00 0.00000E+00 0.00000E+00 0.00000E+00 0.00000E+00 0.00000E+00 4.76062E-03 0.00000E+00 2.53546E-02
      403 -1.33910E-06 0.00000E+00-4.53745E-05 0.00000E+00 0.00000E+00 0.00000E+00 0.00000E+00 0.00000E+00 0.00000E+00 6.34866E-03 0.00000E+00 2.53546E-02
      436  6.11893E-07 1.56592E-06-4.53745E-05 0.00000E+00 0.00000E+00 0.00000E+00 0.00000E+00 0.00000E+00 0.00000E+00 2.43041E-03 5.86827E-03 2.53546E-02
      437  0.00000E+00 1.13046E-06-4.53745E-05 0.00000E+00 0.00000E+00 0.00000E+00 0.00000E+00 0.00000E+00 0.00000E+00 3.88800E-19 6.35113E-03 2.53546E-02
      438 -7.34931E-07 0.00000E+00-4.53745E-05 0.00000E+00 0.00000E+00 0.00000E+00 0.00000E+00 0.00000E+00 0.00000E+00 7.25637E-03 0.00000E+00 2.53546E-02
      439 -4.48965E-07 0.00000E+00-4.53745E-05 0.00000E+00 0.00000E+00 0.00000E+00 0.00000E+00 0.00000E+00 0.00000E+00 8.16385E-03 0.00000E+00 2.53546E-02
      440 -2.91867E-07 0.00000E+00-4.53745E-05 0.00000E+00 0.00000E+00 0.00000E+00 0.00000E+00 0.00000E+00 0.00000E+00 9.07111E-03 0.00000E+00 2.53546E-02
      441 -1.86128E-07 0.00000E+00-4.53745E-05 0.00000E+00 0.00000E+00 0.00000E+00 0.00000E+00 0.00000E+00 0.00000E+00 9.97841E-03 0.00000E+00 2.53546E-02
      442 -1.27984E-07 0.00000E+00-4.53745E-05 0.00000E+00 0.00000E+00 0.00000E+00 0.00000E+00 0.00000E+00 0.00000E+00 1.08856E-02 0.00000E+00 2.53546E-02
      443 -1.05112E-07 0.00000E+00-4.53745E-05 0.00000E+00 0.00000E+00 0.00000E+00 0.00000E+00 0.00000E+00 0.00000E+00 1.17928E-02 0.00000E+00 2.53546E-02
      444 -2.23009E-07 0.00000E+00-4.53745E-05 0.00000E+00 0.00000E+00 0.00000E+00 0.00000E+00 0.00000E+00 0.00000E+00 1.26998E-02 0.00000E+00 2.53546E-02
      628  4.02344E-07 5.01358E-07-4.53745E-05 0.00000E+00 0.00000E+00 0.00000E+00 0.00000E+00 0.00000E+00 0.00000E+00 8.39730E-03 3.43290E-03 2.53546E-02
      631  3.41569E-07 4.17936E-07-4.53745E-05 0.00000E+00 0.00000E+00 0.00000E+00 0.00000E+00 0.00000E+00 0.00000E+00 7.55384E-03 3.09862E-03 2.53546E-02
      632  5.86577E-07 9.51553E-07-4.53745E-05 0.00000E+00 0.00000E+00 0.00000E+00 0.00000E+00 0.00000E+00 0.00000E+00 6.41869E-03 6.41185E-03 2.53546E-02
      635  5.42293E-07 9.25161E-07-4.53745E-05 0.00000E+00 0.00000E+00 0.00000E+00 0.00000E+00 0.00000E+00 0.00000E+00 5.77594E-03 5.77153E-03 2.53546E-02
      636  4.78319E-07 1.35583E-06-4.53745E-05 0.00000E+00 0.00000E+00 0.00000E+00 0.00000E+00 0.00000E+00 0.00000E+00 3.43968E-03 8.39556E-03 2.53546E-02
      639  4.86765E-07 1.39222E-06-4.53745E-05 0.00000E+00 0.00000E+00 0.00000E+00 0.00000E+00 0.00000E+00 0.00000E+00 3.10319E-03 7.55309E-03 2.53546E-02
      640  0.00000E+00 1.75007E-06-4.53745E-05 0.00000E+00 0.00000E+00 0.00000E+00 0.00000E+00 0.00000E+00 0.00000E+00 5.55500E-19 9.07315E-03 2.53546E-02
      643  0.00000E+00 1.73413E-06-4.53745E-05 0.00000E+00 0.00000E+00 0.00000E+00 0.00000E+00 0.00000E+00 0.00000E+00 4.99900E-19 8.16603E-03 2.53546E-02
      692  4.72160E-07 5.52551E-07-4.53745E-05 0.00000E+00 0.00000E+00 0.00000E+00 0.00000E+00 0.00000E+00 0.00000E+00 9.24077E-03 3.76715E-03 2.53546E-02
      694  6.62196E-07 9.79526E-07-4.53745E-05 0.00000E+00 0.00000E+00 0.00000E+00 0.00000E+00 0.00000E+00 0.00000E+00 7.06136E-03 7.05208E-03 2.53546E-02
      696  5.04409E-07 1.34523E-06-4.53745E-05 0.00000E+00 0.00000E+00 0.00000E+00 0.00000E+00 0.00000E+00 0.00000E+00 3.77620E-03 9.23795E-03 2.53546E-02
      698  0.00000E+00 1.70575E-06-4.53745E-05 0.00000E+00 0.00000E+00 0.00000E+00 0.00000E+00 0.00000E+00 0.00000E+00 6.11000E-19 9.98031E-03 2.53546E-02
      900  5.89715E-07 5.16518E-07-4.53745E-05 0.00000E+00 0.00000E+00 0.00000E+00 0.00000E+00 0.00000E+00 0.00000E+00 1.09277E-02 4.43552E-03 2.53546E-02
      902  5.52595E-07 5.69425E-07-4.53745E-05 0.00000E+00 0.00000E+00 0.00000E+00 0.00000E+00 0.00000E+00 0.00000E+00 1.00843E-02 4.10137E-03 2.53546E-02
      903  9.24625E-07 1.11228E-06-4.53745E-05 0.00000E+00 0.00000E+00 0.00000E+00 0.00000E+00 0.00000E+00 0.00000E+00 8.34702E-03 8.33271E-03 2.53546E-02
      905  7.48488E-07 1.01124E-06-4.53745E-05 0.00000E+00 0.00000E+00 0.00000E+00 0.00000E+00 0.00000E+00 0.00000E+00 7.70415E-03 7.69231E-03 2.53546E-02
      906  5.15365E-07 1.26501E-06-4.53745E-05 0.00000E+00 0.00000E+00 0.00000E+00 0.00000E+00 0.00000E+00 0.00000E+00 4.44922E-03 1.09228E-02 2.53546E-02
      908  5.41588E-07 1.36017E-06-4.53745E-05 0.00000E+00 0.00000E+00 0.00000E+00 0.00000E+00 0.00000E+00 0.00000E+00 4.11274E-03 1.00805E-02 2.53546E-02
      909  0.00000E+00 2.02255E-06-4.53745E-05 0.00000E+00 0.00000E+00 0.00000E+00 0.00000E+00 0.00000E+00 0.00000E+00 7.22100E-19 1.17949E-02 2.53546E-02
      911  0.00000E+00 1.69291E-06-4.53745E-05 0.00000E+00 0.00000E+00 0.00000E+00 0.00000E+00 0.00000E+00 0.00000E+00 6.66600E-19 1.08874E-02 2.53546E-02
     1012  3.21944E-07 3.17681E-07-4.53745E-05 0.00000E+00 0.00000E+00 0.00000E+00 0.00000E+00 0.00000E+00 0.00000E+00 6.71042E-03 2.76432E-03 2.53546E-02
     1013  5.33728E-07 8.96816E-07-4.53745E-05 0.00000E+00 0.00000E+00 0.00000E+00 0.00000E+00 0.00000E+00 0.00000E+00 5.13333E-03 5.13130E-03 2.53546E-02
     1014  5.09769E-07 1.42723E-06-4.53745E-05 0.00000E+00 0.00000E+00 0.00000E+00 0.00000E+00 0.00000E+00 0.00000E+00 2.76671E-03 6.71063E-03 2.53546E-02
     1015  0.00000E+00 1.64003E-06-4.53745E-05 0.00000E+00 0.00000E+00 0.00000E+00 0.00000E+00 0.00000E+00 0.00000E+00 4.44400E-19 7.25874E-03 2.53546E-02
     1060  4.08030E-07 3.82813E-07-4.53745E-05 0.00000E+00 0.00000E+00 0.00000E+00 0.00000E+00 0.00000E+00 0.00000E+00 1.17709E-02 4.76958E-03 2.53546E-02
     1061  5.92408E-07 9.82307E-07-4.53745E-05 0.00000E+00 0.00000E+00 0.00000E+00 0.00000E+00 0.00000E+00 0.00000E+00 8.98929E-03 8.97278E-03 2.53546E-02
     1062  4.72628E-07 1.63484E-06-4.53745E-05 0.00000E+00 0.00000E+00 0.00000E+00 0.00000E+00 0.00000E+00 0.00000E+00 4.78567E-03 1.17656E-02 2.53546E-02
     1063  0.00000E+00 2.92047E-06-4.53745E-05 0.00000E+00 0.00000E+00 0.00000E+00 0.00000E+00 0.00000E+00 0.00000E+00 7.77700E-19 1.27029E-02 2.53546E-02



 n o d a l   p r i n t   o u t   f o r   t i m e  s t e p     466                              ( at time 5.3931137E+00 )

 nodal point  x-disp     y-disp      z-disp      x-vel       y-vel       z-vel      x-accl      y-accl      z-accl      x-coor      y-coor      z-coor
        1  0.00000E+00 0.00000E+00 0.00000E+00 0.00000E+00 0.00000E+00 0.00000E+00 0.00000E+00 0.00000E+00 0.00000E+00 0.00000E+00 0.00000E+00 0.00000E+00
        2  1.48944E-05 0.00000E+00 0.00000E+00 0.00000E+00 0.00000E+00 0.00000E+00 0.00000E+00 0.00000E+00 0.00000E+00 8.08644E-04 0.00000E+00 0.00000E+00
        3  2.76404E-05 0.00000E+00 0.00000E+00 0.00000E+00 0.00000E+00 0.00000E+00 0.00000E+00 0.00000E+00 0.00000E+00 1.61514E-03 0.00000E+00 0.00000E+00
        4  4.39214E-05 0.00000E+00 0.00000E+00 0.00000E+00 0.00000E+00 0.00000E+00 0.00000E+00 0.00000E+00 0.00000E+00 2.42522E-03 0.00000E+00 0.00000E+00
        5  4.60951E-05 0.00000E+00 0.00000E+00 0.00000E+00 0.00000E+00 0.00000E+00 0.00000E+00 0.00000E+00 0.00000E+00 3.22110E-03 0.00000E+00 0.00000E+00
        6  2.29819E-05 7.71583E-06 0.00000E+00 0.00000E+00 0.00000E+00 0.00000E+00 0.00000E+00 0.00000E+00 0.00000E+00 2.95628E-03 1.22272E-03-1.78000E-18
        7  1.40341E-05 2.08265E-05 0.00000E+00 0.00000E+00 0.00000E+00 0.00000E+00 0.00000E+00 0.00000E+00 0.00000E+00 2.25913E-03 2.26593E-03-1.78000E-18
        8  6.10914E-06 2.58614E-05 0.00000E+00 0.00000E+00 0.00000E+00 0.00000E+00 0.00000E+00 0.00000E+00 0.00000E+00 1.22111E-03 2.95916E-03-1.78000E-18
        9  0.00000E+00 2.55496E-05 0.00000E+00 0.00000E+00 0.00000E+00 0.00000E+00 0.00000E+00 0.00000E+00 0.00000E+00 1.94400E-19 3.20055E-03-1.78000E-18
       10  0.00000E+00 1.61447E-05 0.00000E+00 0.00000E+00 0.00000E+00 0.00000E+00 0.00000E+00 0.00000E+00 0.00000E+00 1.45800E-19 2.39744E-03 0.00000E+00
       11  0.00000E+00 9.14804E-06 0.00000E+00 0.00000E+00 0.00000E+00 0.00000E+00 0.00000E+00 0.00000E+00 0.00000E+00 9.72100E-20 1.59665E-03 0.00000E+00
       12  0.00000E+00 4.89135E-06 0.00000E+00 0.00000E+00 0.00000E+00 0.00000E+00 0.00000E+00 0.00000E+00 0.00000E+00 4.86000E-20 7.98641E-04 0.00000E+00
       13  4.86163E-06-1.06607E-06 0.00000E+00 0.00000E+00 0.00000E+00 0.00000E+00 0.00000E+00 0.00000E+00 0.00000E+00 1.35676E-03 1.30723E-03 0.00000E+00
       14  2.72021E-06-5.89761E-06 0.00000E+00 0.00000E+00 0.00000E+00 0.00000E+00 0.00000E+00 0.00000E+00 0.00000E+00 1.50962E-03 6.63681E-04 0.00000E+00
       15  9.44858E-06 6.16926E-06 0.00000E+00 0.00000E+00 0.00000E+00 0.00000E+00 0.00000E+00 0.00000E+00 0.00000E+00 1.77695E-03 1.74247E-03 0.00000E+00
       16  1.03747E-05-2.33636E-06 0.00000E+00 0.00000E+00 0.00000E+00 0.00000E+00 0.00000E+00 0.00000E+00 0.00000E+00 2.20147E-03 9.17797E-04 0.00000E+00
       17  3.21290E-06 8.62852E-06 0.00000E+00 0.00000E+00 0.00000E+00 0.00000E+00 0.00000E+00 0.00000E+00 0.00000E+00 7.10190E-04 1.49693E-03 0.00000E+00
       18  5.66085E-06 1.53362E-05 0.00000E+00 0.00000E+00 0.00000E+00 0.00000E+00 0.00000E+00 0.00000E+00 0.00000E+00 9.56519E-04 2.17864E-03 0.00000E+00
       19  1.76965E-07 3.05461E-06 0.00000E+00 0.00000E+00 0.00000E+00 0.00000E+00 0.00000E+00 0.00000E+00 0.00000E+00 7.82631E-04 7.56844E-04 0.00000E+00
      179  4.97457E-07 7.92124E-07-5.39311E-05 0.00000E+00 0.00000E+00 0.00000E+00 0.00000E+00 0.00000E+00 0.00000E+00 4.49060E-03 4.49089E-03 2.53461E-02
      180  5.91101E-07 5.15853E-07-5.39311E-05 0.00000E+00 0.00000E+00 0.00000E+00 0.00000E+00 0.00000E+00 0.00000E+00 3.53359E-03 3.47122E-03 2.53461E-02
      181  5.50146E-07-1.69304E-07-5.39311E-05 0.00000E+00 0.00000E+00 0.00000E+00 0.00000E+00 0.00000E+00 0.00000E+00 4.38035E-03 1.83903E-03 2.53461E-02
      182  5.09177E-07 3.52920E-07-5.39311E-05 0.00000E+00 0.00000E+00 0.00000E+00 0.00000E+00 0.00000E+00 0.00000E+00 5.86721E-03 2.43015E-03 2.53461E-02
      247 -3.11463E-06 0.00000E+00-5.39311E-05 0.00000E+00 0.00000E+00 0.00000E+00 0.00000E+00 0.00000E+00 0.00000E+00 1.58439E-03 0.00000E+00 2.53461E-02
      248 -6.59140E-08-7.56875E-07-5.39311E-05 0.00000E+00 0.00000E+00 0.00000E+00 0.00000E+00 0.00000E+00 0.00000E+00 1.56383E-03 1.50564E-03 2.53461E-02
      249  0.00000E+00-3.54182E-07-5.39311E-05 0.00000E+00 0.00000E+00 0.00000E+00 0.00000E+00 0.00000E+00 0.00000E+00 9.72100E-20 1.58715E-03 2.53461E-02
      250  0.00000E+00 0.00000E+00-5.39311E-05 0.00000E+00 0.00000E+00 0.00000E+00 0.00000E+00 0.00000E+00 0.00000E+00 0.00000E+00 0.00000E+00 2.53461E-02
      283 -3.46917E-06 0.00000E+00-5.39311E-05 0.00000E+00 0.00000E+00 0.00000E+00 0.00000E+00 0.00000E+00 0.00000E+00 3.17153E-03 0.00000E+00 2.53461E-02
      284  1.87170E-07-1.36990E-06-5.39311E-05 0.00000E+00 0.00000E+00 0.00000E+00 0.00000E+00 0.00000E+00 0.00000E+00 3.01199E-03 1.33673E-03 2.53461E-02
      333  2.05080E-07 2.83838E-07-5.39311E-05 0.00000E+00 0.00000E+00 0.00000E+00 0.00000E+00 0.00000E+00 0.00000E+00 1.41351E-03 2.97558E-03 2.53461E-02
      334  3.57244E-07 3.55567E-07-5.39311E-05 0.00000E+00 0.00000E+00 0.00000E+00 0.00000E+00 0.00000E+00 0.00000E+00 2.70306E-03 2.61586E-03 2.53461E-02
      335  4.34351E-07 7.83457E-07-5.39311E-05 0.00000E+00 0.00000E+00 0.00000E+00 0.00000E+00 0.00000E+00 0.00000E+00 1.90093E-03 4.32468E-03 2.53461E-02
      368  0.00000E+00-1.48177E-07-5.39311E-05 0.00000E+00 0.00000E+00 0.00000E+00 0.00000E+00 0.00000E+00 0.00000E+00 1.94400E-19 3.17485E-03 2.53461E-02
      369  0.00000E+00 6.64910E-08-5.39311E-05 0.00000E+00 0.00000E+00 0.00000E+00 0.00000E+00 0.00000E+00 0.00000E+00 2.91600E-19 4.76257E-03 2.53461E-02
      386 -1.91778E-06 0.00000E+00-5.39311E-05 0.00000E+00 0.00000E+00 0.00000E+00 0.00000E+00 0.00000E+00 0.00000E+00 4.76058E-03 0.00000E+00 2.53461E-02
      403 -1.33541E-06 0.00000E+00-5.39311E-05 0.00000E+00 0.00000E+00 0.00000E+00 0.00000E+00 0.00000E+00 0.00000E+00 6.34866E-03 0.00000E+00 2.53461E-02
      436  6.25327E-07 1.59587E-06-5.39311E-05 0.00000E+00 0.00000E+00 0.00000E+00 0.00000E+00 0.00000E+00 0.00000E+00 2.43043E-03 5.86830E-03 2.53461E-02
      437  0.00000E+00 1.31304E-06-5.39311E-05 0.00000E+00 0.00000E+00 0.00000E+00 0.00000E+00 0.00000E+00 0.00000E+00 3.88800E-19 6.35131E-03 2.53461E-02
      438 -7.56111E-07 0.00000E+00-5.39311E-05 0.00000E+00 0.00000E+00 0.00000E+00 0.00000E+00 0.00000E+00 0.00000E+00 7.25634E-03 0.00000E+00 2.53461E-02
      439 -4.67428E-07 0.00000E+00-5.39311E-05 0.00000E+00 0.00000E+00 0.00000E+00 0.00000E+00 0.00000E+00 0.00000E+00 8.16383E-03 0.00000E+00 2.53461E-02
      440 -3.09706E-07 0.00000E+00-5.39311E-05 0.00000E+00 0.00000E+00 0.00000E+00 0.00000E+00 0.00000E+00 0.00000E+00 9.07109E-03 0.00000E+00 2.53461E-02
      441 -2.04053E-07 0.00000E+00-5.39311E-05 0.00000E+00 0.00000E+00 0.00000E+00 0.00000E+00 0.00000E+00 0.00000E+00 9.97840E-03 0.00000E+00 2.53461E-02
      442 -1.48469E-07 0.00000E+00-5.39311E-05 0.00000E+00 0.00000E+00 0.00000E+00 0.00000E+00 0.00000E+00 0.00000E+00 1.08856E-02 0.00000E+00 2.53461E-02
      443 -1.27280E-07 0.00000E+00-5.39311E-05 0.00000E+00 0.00000E+00 0.00000E+00 0.00000E+00 0.00000E+00 0.00000E+00 1.17928E-02 0.00000E+00 2.53461E-02
      444 -2.65509E-07 0.00000E+00-5.39311E-05 0.00000E+00 0.00000E+00 0.00000E+00 0.00000E+00 0.00000E+00 0.00000E+00 1.26997E-02 0.00000E+00 2.53461E-02
      628  4.21818E-07 6.47223E-07-5.39311E-05 0.00000E+00 0.00000E+00 0.00000E+00 0.00000E+00 0.00000E+00 0.00000E+00 8.39732E-03 3.43305E-03 2.53461E-02
      631  3.55391E-07 5.52758E-07-5.39311E-05 0.00000E+00 0.00000E+00 0.00000E+00 0.00000E+00 0.00000E+00 0.00000E+00 7.55386E-03 3.09875E-03 2.53461E-02
      632  6.36816E-07 1.03833E-06-5.39311E-05 0.00000E+00 0.00000E+00 0.00000E+00 0.00000E+00 0.00000E+00 0.00000E+00 6.41874E-03 6.41194E-03 2.53461E-02
      635  5.85669E-07 1.00910E-06-5.39311E-05 0.00000E+00 0.00000E+00 0.00000E+00 0.00000E+00 0.00000E+00 0.00000E+00 5.77599E-03 5.77161E-03 2.53461E-02
      636  5.25776E-07 1.43714E-06-5.39311E-05 0.00000E+00 0.00000E+00 0.00000E+00 0.00000E+00 0.00000E+00 0.00000E+00 3.43973E-03 8.39564E-03 2.53461E-02
      639  5.24972E-07 1.46821E-06-5.39311E-05 0.00000E+00 0.00000E+00 0.00000E+00 0.00000E+00 0.00000E+00 0.00000E+00 3.10322E-03 7.55317E-03 2.53461E-02
      640  0.00000E+00 1.90585E-06-5.39311E-05 0.00000E+00 0.00000E+00 0.00000E+00 0.00000E+00 0.00000E+00 0.00000E+00 5.55500E-19 9.07331E-03 2.53461E-02
      643  0.00000E+00 1.90889E-06-5.39311E-05 0.00000E+00 0.00000E+00 0.00000E+00 0.00000E+00 0.00000E+00 0.00000E+00 4.99900E-19 8.16621E-03 2.53461E-02
      692  4.99895E-07 7.07299E-07-5.39311E-05 0.00000E+00 0.00000E+00 0.00000E+00 0.00000E+00 0.00000E+00 0.00000E+00 9.24080E-03 3.76731E-03 2.53461E-02
      694  7.11945E-07 1.06409E-06-5.39311E-05 0.00000E+00 0.00000E+00 0.00000E+00 0.00000E+00 0.00000E+00 0.00000E+00 7.06141E-03 7.05216E-03 2.53461E-02
      696  5.59521E-07 1.43804E-06-5.39311E-05 0.00000E+00 0.00000E+00 0.00000E+00 0.00000E+00 0.00000E+00 0.00000E+00 3.77626E-03 9.23804E-03 2.53461E-02
      698  0.00000E+00 1.85467E-06-5.39311E-05 0.00000E+00 0.00000E+00 0.00000E+00 0.00000E+00 0.00000E+00 0.00000E+00 6.11000E-19 9.98045E-03 2.53461E-02
      900  6.27509E-07 6.71519E-07-5.39311E-05 0.00000E+00 0.00000E+00 0.00000E+00 0.00000E+00 0.00000E+00 0.00000E+00 1.09277E-02 4.43567E-03 2.53461E-02
      902  5.91401E-07 7.29402E-07-5.39311E-05 0.00000E+00 0.00000E+00 0.00000E+00 0.00000E+00 0.00000E+00 0.00000E+00 1.00843E-02 4.10153E-03 2.53461E-02
      903  1.00214E-06 1.21220E-06-5.39311E-05 0.00000E+00 0.00000E+00 0.00000E+00 0.00000E+00 0.00000E+00 0.00000E+00 8.34710E-03 8.33281E-03 2.53461E-02
      905  8.00078E-07 1.09355E-06-5.39311E-05 0.00000E+00 0.00000E+00 0.00000E+00 0.00000E+00 0.00000E+00 0.00000E+00 7.70420E-03 7.69239E-03 2.53461E-02
      906  5.14513E-07 1.32040E-06-5.39311E-05 0.00000E+00 0.00000E+00 0.00000E+00 0.00000E+00 0.00000E+00 0.00000E+00 4.44921E-03 1.09228E-02 2.53461E-02
      908  5.92191E-07 1.44932E-06-5.39311E-05 0.00000E+00 0.00000E+00 0.00000E+00 0.00000E+00 0.00000E+00 0.00000E+00 4.11279E-03 1.00805E-02 2.53461E-02
      909  0.00000E+00 2.30432E-06-5.39311E-05 0.00000E+00 0.00000E+00 0.00000E+00 0.00000E+00 0.00000E+00 0.00000E+00 7.22100E-19 1.17952E-02 2.53461E-02
      911  0.00000E+00 1.88483E-06-5.39311E-05 0.00000E+00 0.00000E+00 0.00000E+00 0.00000E+00 0.00000E+00 0.00000E+00 6.66600E-19 1.08876E-02 2.53461E-02
     1012  3.29665E-07 4.38627E-07-5.39311E-05 0.00000E+00 0.00000E+00 0.00000E+00 0.00000E+00 0.00000E+00 0.00000E+00 6.71043E-03 2.76444E-03 2.53461E-02
     1013  5.72102E-07 9.77560E-07-5.39311E-05 0.00000E+00 0.00000E+00 0.00000E+00 0.00000E+00 0.00000E+00 0.00000E+00 5.13337E-03 5.13138E-03 2.53461E-02
     1014  5.29875E-07 1.49544E-06-5.39311E-05 0.00000E+00 0.00000E+00 0.00000E+00 0.00000E+00 0.00000E+00 0.00000E+00 2.76673E-03 6.71070E-03 2.53461E-02
     1015  0.00000E+00 1.81888E-06-5.39311E-05 0.00000E+00 0.00000E+00 0.00000E+00 0.00000E+00 0.00000E+00 0.00000E+00 4.44400E-19 7.25892E-03 2.53461E-02
     1060  4.18894E-07 5.14906E-07-5.39311E-05 0.00000E+00 0.00000E+00 0.00000E+00 0.00000E+00 0.00000E+00 0.00000E+00 1.17709E-02 4.76971E-03 2.53461E-02
     1061  6.45784E-07 1.06936E-06-5.39311E-05 0.00000E+00 0.00000E+00 0.00000E+00 0.00000E+00 0.00000E+00 0.00000E+00 8.98935E-03 8.97287E-03 2.53461E-02
     1062  4.46192E-07 1.76760E-06-5.39311E-05 0.00000E+00 0.00000E+00 0.00000E+00 0.00000E+00 0.00000E+00 0.00000E+00 4.78565E-03 1.17658E-02 2.53461E-02
     1063  0.00000E+00 3.21539E-06-5.39311E-05 0.00000E+00 0.00000E+00 0.00000E+00 0.00000E+00 0.00000E+00 0.00000E+00 7.77700E-19 1.27032E-02 2.53461E-02



 n o d a l   p r i n t   o u t   f o r   t i m e  s t e p     474                              ( at time 6.7492500E+00 )

 nodal point  x-disp     y-disp      z-disp      x-vel       y-vel       z-vel      x-accl      y-accl      z-accl      x-coor      y-coor      z-coor
        1  0.00000E+00 0.00000E+00 0.00000E+00 0.00000E+00 0.00000E+00 0.00000E+00 0.00000E+00 0.00000E+00 0.00000E+00 0.00000E+00 0.00000E+00 0.00000E+00
        2  1.94004E-05 0.00000E+00 0.00000E+00 0.00000E+00 0.00000E+00 0.00000E+00 0.00000E+00 0.00000E+00 0.00000E+00 8.13150E-04 0.00000E+00 0.00000E+00
        3  3.34577E-05 0.00000E+00 0.00000E+00 0.00000E+00 0.00000E+00 0.00000E+00 0.00000E+00 0.00000E+00 0.00000E+00 1.62096E-03 0.00000E+00 0.00000E+00
        4  5.38521E-05 0.00000E+00 0.00000E+00 0.00000E+00 0.00000E+00 0.00000E+00 0.00000E+00 0.00000E+00 0.00000E+00 2.43515E-03 0.00000E+00 0.00000E+00
        5  5.64628E-05 0.00000E+00 0.00000E+00 0.00000E+00 0.00000E+00 0.00000E+00 0.00000E+00 0.00000E+00 0.00000E+00 3.23146E-03 0.00000E+00 0.00000E+00
        6  3.50679E-05 1.20791E-05 0.00000E+00 0.00000E+00 0.00000E+00 0.00000E+00 0.00000E+00 0.00000E+00 0.00000E+00 2.96837E-03 1.22708E-03-1.78000E-18
        7  2.34102E-05 2.95986E-05 0.00000E+00 0.00000E+00 0.00000E+00 0.00000E+00 0.00000E+00 0.00000E+00 0.00000E+00 2.26851E-03 2.27470E-03-1.78000E-18
        8  1.11746E-05 3.67593E-05 0.00000E+00 0.00000E+00 0.00000E+00 0.00000E+00 0.00000E+00 0.00000E+00 0.00000E+00 1.22617E-03 2.97006E-03-1.78000E-18
        9  0.00000E+00 3.70643E-05 0.00000E+00 0.00000E+00 0.00000E+00 0.00000E+00 0.00000E+00 0.00000E+00 0.00000E+00 1.94400E-19 3.21206E-03-1.78000E-18
       10  0.00000E+00 2.48293E-05 0.00000E+00 0.00000E+00 0.00000E+00 0.00000E+00 0.00000E+00 0.00000E+00 0.00000E+00 1.45800E-19 2.40613E-03 0.00000E+00
       11  0.00000E+00 1.49327E-05 0.00000E+00 0.00000E+00 0.00000E+00 0.00000E+00 0.00000E+00 0.00000E+00 0.00000E+00 9.72100E-20 1.60243E-03 0.00000E+00
       12  0.00000E+00 8.28322E-06 0.00000E+00 0.00000E+00 0.00000E+00 0.00000E+00 0.00000E+00 0.00000E+00 0.00000E+00 4.86000E-20 8.02033E-04 0.00000E+00
       13  1.01930E-05 3.45401E-06 0.00000E+00 0.00000E+00 0.00000E+00 0.00000E+00 0.00000E+00 0.00000E+00 0.00000E+00 1.36209E-03 1.31175E-03 0.00000E+00
       14  8.77740E-06-3.67523E-06 0.00000E+00 0.00000E+00 0.00000E+00 0.00000E+00 0.00000E+00 0.00000E+00 0.00000E+00 1.51568E-03 6.65903E-04 0.00000E+00
       15  1.70006E-05 1.24197E-05 0.00000E+00 0.00000E+00 0.00000E+00 0.00000E+00 0.00000E+00 0.00000E+00 0.00000E+00 1.78450E-03 1.74872E-03 0.00000E+00
       16  1.92887E-05 5.71570E-07 0.00000E+00 0.00000E+00 0.00000E+00 0.00000E+00 0.00000E+00 0.00000E+00 0.00000E+00 2.21039E-03 9.20705E-04 0.00000E+00
       17  6.29549E-06 1.44959E-05 0.00000E+00 0.00000E+00 0.00000E+00 0.00000E+00 0.00000E+00 0.00000E+00 0.00000E+00 7.13272E-04 1.50280E-03 0.00000E+00
       18  1.00539E-05 2.36916E-05 0.00000E+00 0.00000E+00 0.00000E+00 0.00000E+00 0.00000E+00 0.00000E+00 0.00000E+00 9.60912E-04 2.18699E-03 0.00000E+00
       19  3.03378E-06 5.81146E-06 0.00000E+00 0.00000E+00 0.00000E+00 0.00000E+00 0.00000E+00 0.00000E+00 0.00000E+00 7.85488E-04 7.59600E-04 0.00000E+00
[...]
      179  8.24676E-07 2.21868E-06-9.89402E-04 0.00000E+00 0.00000E+00 0.00000E+00 0.00000E+00 0.00000E+00 0.00000E+00 4.49092E-03 4.49232E-03 2.44106E-02
      180  4.40735E-07 1.91383E-06-9.89402E-04 0.00000E+00 0.00000E+00 0.00000E+00 0.00000E+00 0.00000E+00 0.00000E+00 3.53344E-03 3.47261E-03 2.44106E-02
      181  3.11801E-07 1.70803E-06-9.89402E-04 0.00000E+00 0.00000E+00 0.00000E+00 0.00000E+00 0.00000E+00 0.00000E+00 4.38011E-03 1.84091E-03 2.44106E-02
      182  5.89328E-07 1.84217E-06-9.89402E-04 0.00000E+00 0.00000E+00 0.00000E+00 0.00000E+00 0.00000E+00 0.00000E+00 5.86729E-03 2.43164E-03 2.44106E-02
      247  9.04753E-07 0.00000E+00-9.89402E-04 0.00000E+00 0.00000E+00 0.00000E+00 0.00000E+00 0.00000E+00 0.00000E+00 1.58840E-03 0.00000E+00 2.44106E-02
      248  4.12529E-07 3.86238E-09-9.89402E-04 0.00000E+00 0.00000E+00 0.00000E+00 0.00000E+00 0.00000E+00 0.00000E+00 1.56431E-03 1.50640E-03 2.44106E-02
      249  0.00000E+00 1.76190E-06-9.89402E-04 0.00000E+00 0.00000E+00 0.00000E+00 0.00000E+00 0.00000E+00 0.00000E+00 9.72100E-20 1.58926E-03 2.44106E-02
      250  0.00000E+00 0.00000E+00-9.89402E-04 0.00000E+00 0.00000E+00 0.00000E+00 0.00000E+00 0.00000E+00 0.00000E+00 0.00000E+00 0.00000E+00 2.44106E-02
      283 -1.35646E-06 0.00000E+00-9.89402E-04 0.00000E+00 0.00000E+00 0.00000E+00 0.00000E+00 0.00000E+00 0.00000E+00 3.17364E-03 0.00000E+00 2.44106E-02
      284  3.45663E-07 3.57257E-07-9.89402E-04 0.00000E+00 0.00000E+00 0.00000E+00 0.00000E+00 0.00000E+00 0.00000E+00 3.01215E-03 1.33846E-03 2.44106E-02
      333  3.37703E-07 1.08437E-06-9.89402E-04 0.00000E+00 0.00000E+00 0.00000E+00 0.00000E+00 0.00000E+00 0.00000E+00 1.41364E-03 2.97638E-03 2.44106E-02
      334  5.90881E-07 9.06416E-07-9.89402E-04 0.00000E+00 0.00000E+00 0.00000E+00 0.00000E+00 0.00000E+00 0.00000E+00 2.70329E-03 2.61641E-03 2.44106E-02
      335  2.26984E-07 1.54896E-06-9.89402E-04 0.00000E+00 0.00000E+00 0.00000E+00 0.00000E+00 0.00000E+00 0.00000E+00 1.90073E-03 4.32545E-03 2.44106E-02
      368  0.00000E+00 3.11820E-06-9.89402E-04 0.00000E+00 0.00000E+00 0.00000E+00 0.00000E+00 0.00000E+00 0.00000E+00 1.94400E-19 3.17812E-03 2.44106E-02
      369  0.00000E+00 3.97956E-06-9.89402E-04 0.00000E+00 0.00000E+00 0.00000E+00 0.00000E+00 0.00000E+00 0.00000E+00 2.91600E-19 4.76648E-03 2.44106E-02
      386 -1.14781E-06 0.00000E+00-9.89402E-04 0.00000E+00 0.00000E+00 0.00000E+00 0.00000E+00 0.00000E+00 0.00000E+00 4.76135E-03 0.00000E+00 2.44106E-02
      403 -5.62952E-07 0.00000E+00-9.89402E-04 0.00000E+00 0.00000E+00 0.00000E+00 0.00000E+00 0.00000E+00 0.00000E+00 6.34944E-03 0.00000E+00 2.44106E-02
      436  4.19004E-07 2.14208E-06-9.89402E-04 0.00000E+00 0.00000E+00 0.00000E+00 0.00000E+00 0.00000E+00 0.00000E+00 2.43022E-03 5.86884E-03 2.44106E-02
      437  0.00000E+00 4.65627E-06-9.89402E-04 0.00000E+00 0.00000E+00 0.00000E+00 0.00000E+00 0.00000E+00 0.00000E+00 3.88800E-19 6.35466E-03 2.44106E-02
      438 -3.54379E-07 0.00000E+00-9.89402E-04 0.00000E+00 0.00000E+00 0.00000E+00 0.00000E+00 0.00000E+00 0.00000E+00 7.25675E-03 0.00000E+00 2.44106E-02
      439 -1.50725E-07 0.00000E+00-9.89402E-04 0.00000E+00 0.00000E+00 0.00000E+00 0.00000E+00 0.00000E+00 0.00000E+00 8.16415E-03 0.00000E+00 2.44106E-02
      440 -3.99789E-08 0.00000E+00-9.89402E-04 0.00000E+00 0.00000E+00 0.00000E+00 0.00000E+00 0.00000E+00 0.00000E+00 9.07136E-03 0.00000E+00 2.44106E-02
      441  2.91832E-08 0.00000E+00-9.89402E-04 0.00000E+00 0.00000E+00 0.00000E+00 0.00000E+00 0.00000E+00 0.00000E+00 9.97863E-03 0.00000E+00 2.44106E-02
      442  5.57555E-08 0.00000E+00-9.89402E-04 0.00000E+00 0.00000E+00 0.00000E+00 0.00000E+00 0.00000E+00 0.00000E+00 1.08858E-02 0.00000E+00 2.44106E-02
      443 -6.28727E-09 0.00000E+00-9.89402E-04 0.00000E+00 0.00000E+00 0.00000E+00 0.00000E+00 0.00000E+00 0.00000E+00 1.17929E-02 0.00000E+00 2.44106E-02
      444 -3.81775E-07 0.00000E+00-9.89402E-04 0.00000E+00 0.00000E+00 0.00000E+00 0.00000E+00 0.00000E+00 0.00000E+00 1.26996E-02 0.00000E+00 2.44106E-02
      628  7.32890E-07 2.05008E-06-9.89402E-04 0.00000E+00 0.00000E+00 0.00000E+00 0.00000E+00 0.00000E+00 0.00000E+00 8.39763E-03 3.43445E-03 2.44106E-02
      631  6.47213E-07 1.99268E-06-9.89402E-04 0.00000E+00 0.00000E+00 0.00000E+00 0.00000E+00 0.00000E+00 0.00000E+00 7.55415E-03 3.10019E-03 2.44106E-02
      632  1.01745E-06 2.10036E-06-9.89402E-04 0.00000E+00 0.00000E+00 0.00000E+00 0.00000E+00 0.00000E+00 0.00000E+00 6.41912E-03 6.41300E-03 2.44106E-02
      635  8.71561E-07 2.12786E-06-9.89402E-04 0.00000E+00 0.00000E+00 0.00000E+00 0.00000E+00 0.00000E+00 0.00000E+00 5.77627E-03 5.77273E-03 2.44106E-02
      636  6.00322E-07 2.07991E-06-9.89402E-04 0.00000E+00 0.00000E+00 0.00000E+00 0.00000E+00 0.00000E+00 0.00000E+00 3.43980E-03 8.39628E-03 2.44106E-02
      639  5.55840E-07 2.15719E-06-9.89402E-04 0.00000E+00 0.00000E+00 0.00000E+00 0.00000E+00 0.00000E+00 0.00000E+00 3.10326E-03 7.55386E-03 2.44106E-02
      640  0.00000E+00 4.24204E-06-9.89402E-04 0.00000E+00 0.00000E+00 0.00000E+00 0.00000E+00 0.00000E+00 0.00000E+00 5.55500E-19 9.07564E-03 2.44106E-02
      643  0.00000E+00 4.38888E-06-9.89402E-04 0.00000E+00 0.00000E+00 0.00000E+00 0.00000E+00 0.00000E+00 0.00000E+00 4.99900E-19 8.16869E-03 2.44106E-02
      692  8.36758E-07 2.07567E-06-9.89402E-04 0.00000E+00 0.00000E+00 0.00000E+00 0.00000E+00 0.00000E+00 0.00000E+00 9.24114E-03 3.76868E-03 2.44106E-02
      694  1.18632E-06 2.07540E-06-9.89402E-04 0.00000E+00 0.00000E+00 0.00000E+00 0.00000E+00 0.00000E+00 0.00000E+00 7.06189E-03 7.05318E-03 2.44106E-02
      696  6.28416E-07 2.00246E-06-9.89402E-04 0.00000E+00 0.00000E+00 0.00000E+00 0.00000E+00 0.00000E+00 0.00000E+00 3.77633E-03 9.23860E-03 2.44106E-02
      698  0.00000E+00 4.05965E-06-9.89402E-04 0.00000E+00 0.00000E+00 0.00000E+00 0.00000E+00 0.00000E+00 0.00000E+00 6.11000E-19 9.98266E-03 2.44106E-02
      900  1.00795E-06 1.88887E-06-9.89402E-04 0.00000E+00 0.00000E+00 0.00000E+00 0.00000E+00 0.00000E+00 0.00000E+00 1.09281E-02 4.43689E-03 2.44106E-02
      902  9.36477E-07 2.04630E-06-9.89402E-04 0.00000E+00 0.00000E+00 0.00000E+00 0.00000E+00 0.00000E+00 0.00000E+00 1.00846E-02 4.10285E-03 2.44106E-02
      903  1.57810E-06 2.09633E-06-9.89402E-04 0.00000E+00 0.00000E+00 0.00000E+00 0.00000E+00 0.00000E+00 0.00000E+00 8.34768E-03 8.33370E-03 2.44106E-02
      905  1.37855E-06 2.07508E-06-9.89402E-04 0.00000E+00 0.00000E+00 0.00000E+00 0.00000E+00 0.00000E+00 0.00000E+00 7.70478E-03 7.69338E-03 2.44106E-02
      906  5.42876E-07 2.08109E-06-9.89402E-04 0.00000E+00 0.00000E+00 0.00000E+00 0.00000E+00 0.00000E+00 0.00000E+00 4.44924E-03 1.09236E-02 2.44106E-02
      908  6.28533E-07 1.95754E-06-9.89402E-04 0.00000E+00 0.00000E+00 0.00000E+00 0.00000E+00 0.00000E+00 0.00000E+00 4.11283E-03 1.00811E-02 2.44106E-02
      909  0.00000E+00 3.97683E-06-9.89402E-04 0.00000E+00 0.00000E+00 0.00000E+00 0.00000E+00 0.00000E+00 0.00000E+00 7.22100E-19 1.17969E-02 2.44106E-02
      911  0.00000E+00 3.92451E-06-9.89402E-04 0.00000E+00 0.00000E+00 0.00000E+00 0.00000E+00 0.00000E+00 0.00000E+00 6.66600E-19 1.08896E-02 2.44106E-02
     1012  6.00383E-07 1.94339E-06-9.89402E-04 0.00000E+00 0.00000E+00 0.00000E+00 0.00000E+00 0.00000E+00 0.00000E+00 6.71070E-03 2.76594E-03 2.44106E-02
     1013  7.64804E-07 2.14022E-06-9.89402E-04 0.00000E+00 0.00000E+00 0.00000E+00 0.00000E+00 0.00000E+00 0.00000E+00 5.13356E-03 5.13254E-03 2.44106E-02
     1014  4.91408E-07 2.22415E-06-9.89402E-04 0.00000E+00 0.00000E+00 0.00000E+00 0.00000E+00 0.00000E+00 0.00000E+00 2.76669E-03 6.71142E-03 2.44106E-02
     1015  0.00000E+00 4.49763E-06-9.89402E-04 0.00000E+00 0.00000E+00 0.00000E+00 0.00000E+00 0.00000E+00 0.00000E+00 4.44400E-19 7.26160E-03 2.44106E-02
     1060  7.43444E-07 1.55117E-06-9.89402E-04 0.00000E+00 0.00000E+00 0.00000E+00 0.00000E+00 0.00000E+00 0.00000E+00 1.17712E-02 4.77075E-03 2.44106E-02
     1061  9.70789E-07 2.02364E-06-9.89402E-04 0.00000E+00 0.00000E+00 0.00000E+00 0.00000E+00 0.00000E+00 0.00000E+00 8.98967E-03 8.97382E-03 2.44106E-02
     1062  7.34817E-07 2.61638E-06-9.89402E-04 0.00000E+00 0.00000E+00 0.00000E+00 0.00000E+00 0.00000E+00 0.00000E+00 4.78593E-03 1.17666E-02 2.44106E-02
     1063  0.00000E+00 4.42539E-06-9.89402E-04 0.00000E+00 0.00000E+00 0.00000E+00 0.00000E+00 0.00000E+00 0.00000E+00 7.77700E-19 1.27044E-02 2.44106E-02



 n o d a l   p r i n t   o u t   f o r   t i m e  s t e p     922                              ( at time 1.0000000E+02 )

 nodal point  x-disp     y-disp      z-disp      x-vel       y-vel       z-vel      x-accl      y-accl      z-accl      x-coor      y-coor      z-coor
        1  0.00000E+00 0.00000E+00 0.00000E+00 0.00000E+00 0.00000E+00 0.00000E+00 0.00000E+00 0.00000E+00 0.00000E+00 0.00000E+00 0.00000E+00 0.00000E+00
        2  7.66618E-04 0.00000E+00 0.00000E+00 0.00000E+00 0.00000E+00 0.00000E+00 0.00000E+00 0.00000E+00 0.00000E+00 1.56037E-03 0.00000E+00 0.00000E+00
        3  1.37132E-03 0.00000E+00 0.00000E+00 0.00000E+00 0.00000E+00 0.00000E+00 0.00000E+00 0.00000E+00 0.00000E+00 2.95882E-03 0.00000E+00 0.00000E+00
        4  1.73426E-03 0.00000E+00 0.00000E+00 0.00000E+00 0.00000E+00 0.00000E+00 0.00000E+00 0.00000E+00 0.00000E+00 4.11556E-03 0.00000E+00 0.00000E+00
        5  2.06282E-03 0.00000E+00 0.00000E+00 0.00000E+00 0.00000E+00 0.00000E+00 0.00000E+00 0.00000E+00 0.00000E+00 5.23782E-03 0.00000E+00 0.00000E+00
        6  1.72188E-03 6.55803E-04 0.00000E+00 0.00000E+00 0.00000E+00 0.00000E+00 0.00000E+00 0.00000E+00 0.00000E+00 4.65518E-03 1.87080E-03-1.78000E-18
        7  1.09402E-03 1.08432E-03 0.00000E+00 0.00000E+00 0.00000E+00 0.00000E+00 0.00000E+00 0.00000E+00 0.00000E+00 3.33912E-03 3.32942E-03-1.78000E-18
        8  6.29618E-04 1.35976E-03 0.00000E+00 0.00000E+00 0.00000E+00 0.00000E+00 0.00000E+00 0.00000E+00 0.00000E+00 1.84462E-03 4.29306E-03-1.78000E-18
        9  0.00000E+00 1.55628E-03 0.00000E+00 0.00000E+00 0.00000E+00 0.00000E+00 0.00000E+00 0.00000E+00 0.00000E+00 1.94400E-19 4.73128E-03-1.78000E-18
       10  0.00000E+00 1.16328E-03 0.00000E+00 0.00000E+00 0.00000E+00 0.00000E+00 0.00000E+00 0.00000E+00 0.00000E+00 1.45800E-19 3.54458E-03 0.00000E+00
       11  0.00000E+00 7.42889E-04 0.00000E+00 0.00000E+00 0.00000E+00 0.00000E+00 0.00000E+00 0.00000E+00 0.00000E+00 9.72100E-20 2.33039E-03 0.00000E+00
       12  0.00000E+00 3.61461E-04 0.00000E+00 0.00000E+00 0.00000E+00 0.00000E+00 0.00000E+00 0.00000E+00 0.00000E+00 4.86000E-20 1.15521E-03 0.00000E+00
       13  9.08383E-04 5.61674E-04 0.00000E+00 0.00000E+00 0.00000E+00 0.00000E+00 0.00000E+00 0.00000E+00 0.00000E+00 2.26028E-03 1.86997E-03 0.00000E+00
       14  1.18151E-03 3.49772E-04 0.00000E+00 0.00000E+00 0.00000E+00 0.00000E+00 0.00000E+00 0.00000E+00 0.00000E+00 2.68841E-03 1.01935E-03 0.00000E+00
       15  1.05404E-03 7.57394E-04 0.00000E+00 0.00000E+00 0.00000E+00 0.00000E+00 0.00000E+00 0.00000E+00 0.00000E+00 2.82154E-03 2.49369E-03 0.00000E+00
       16  1.53666E-03 4.17850E-04 0.00000E+00 0.00000E+00 0.00000E+00 0.00000E+00 0.00000E+00 0.00000E+00 0.00000E+00 3.72776E-03 1.33798E-03 0.00000E+00
       17  4.71698E-04 7.23043E-04 0.00000E+00 0.00000E+00 0.00000E+00 0.00000E+00 0.00000E+00 0.00000E+00 0.00000E+00 1.17867E-03 2.21134E-03 0.00000E+00
       18  5.78463E-04 1.03905E-03 0.00000E+00 0.00000E+00 0.00000E+00 0.00000E+00 0.00000E+00 0.00000E+00 0.00000E+00 1.52932E-03 3.20235E-03 0.00000E+00
       19  5.78577E-04 3.94018E-04 0.00000E+00 0.00000E+00 0.00000E+00 0.00000E+00 0.00000E+00 0.00000E+00 0.00000E+00 1.36103E-03 1.14781E-03 0.00000E+00
      179  1.00076E-06 2.34827E-06-1.00000E-03 0.00000E+00 0.00000E+00 0.00000E+00 0.00000E+00 0.00000E+00 0.00000E+00 4.49110E-03 4.49245E-03 2.44000E-02
      180  5.87699E-07 1.95589E-06-1.00000E-03 0.00000E+00 0.00000E+00 0.00000E+00 0.00000E+00 0.00000E+00 0.00000E+00 3.53359E-03 3.47266E-03 2.44000E-02
      181  4.81431E-07 1.71850E-06-1.00000E-03 0.00000E+00 0.00000E+00 0.00000E+00 0.00000E+00 0.00000E+00 0.00000E+00 4.38028E-03 1.84092E-03 2.44000E-02
      182  8.46467E-07 1.88904E-06-1.00000E-03 0.00000E+00 0.00000E+00 0.00000E+00 0.00000E+00 0.00000E+00 0.00000E+00 5.86755E-03 2.43169E-03 2.44000E-02
      247  8.76762E-07 0.00000E+00-1.00000E-03 0.00000E+00 0.00000E+00 0.00000E+00 0.00000E+00 0.00000E+00 0.00000E+00 1.58838E-03 0.00000E+00 2.44000E-02
      248  5.21419E-07-3.32366E-08-1.00000E-03 0.00000E+00 0.00000E+00 0.00000E+00 0.00000E+00 0.00000E+00 0.00000E+00 1.56442E-03 1.50637E-03 2.44000E-02
      249  0.00000E+00 1.82033E-06-1.00000E-03 0.00000E+00 0.00000E+00 0.00000E+00 0.00000E+00 0.00000E+00 0.00000E+00 9.72100E-20 1.58932E-03 2.44000E-02
      250  0.00000E+00 0.00000E+00-1.00000E-03 0.00000E+00 0.00000E+00 0.00000E+00 0.00000E+00 0.00000E+00 0.00000E+00 0.00000E+00 0.00000E+00 2.44000E-02
      283 -1.23237E-06 0.00000E+00-1.00000E-03 0.00000E+00 0.00000E+00 0.00000E+00 0.00000E+00 0.00000E+00 0.00000E+00 3.17377E-03 0.00000E+00 2.44000E-02
      284  4.92379E-07 2.56786E-07-1.00000E-03 0.00000E+00 0.00000E+00 0.00000E+00 0.00000E+00 0.00000E+00 0.00000E+00 3.01229E-03 1.33836E-03 2.44000E-02
      333  4.19932E-07 1.14358E-06-1.00000E-03 0.00000E+00 0.00000E+00 0.00000E+00 0.00000E+00 0.00000E+00 0.00000E+00 1.41372E-03 2.97644E-03 2.44000E-02
      334  7.34204E-07 8.43319E-07-1.00000E-03 0.00000E+00 0.00000E+00 0.00000E+00 0.00000E+00 0.00000E+00 0.00000E+00 2.70343E-03 2.61634E-03 2.44000E-02
      335  3.13144E-07 1.68544E-06-1.00000E-03 0.00000E+00 0.00000E+00 0.00000E+00 0.00000E+00 0.00000E+00 0.00000E+00 1.90081E-03 4.32559E-03 2.44000E-02
      368  0.00000E+00 3.26641E-06-1.00000E-03 0.00000E+00 0.00000E+00 0.00000E+00 0.00000E+00 0.00000E+00 0.00000E+00 1.94400E-19 3.17827E-03 2.44000E-02
      369  0.00000E+00 4.20555E-06-1.00000E-03 0.00000E+00 0.00000E+00 0.00000E+00 0.00000E+00 0.00000E+00 0.00000E+00 2.91600E-19 4.76671E-03 2.44000E-02
      386 -9.34322E-07 0.00000E+00-1.00000E-03 0.00000E+00 0.00000E+00 0.00000E+00 0.00000E+00 0.00000E+00 0.00000E+00 4.76157E-03 0.00000E+00 2.44000E-02
      403 -2.94499E-07 0.00000E+00-1.00000E-03 0.00000E+00 0.00000E+00 0.00000E+00 0.00000E+00 0.00000E+00 0.00000E+00 6.34971E-03 0.00000E+00 2.44000E-02
      436  5.05825E-07 2.41184E-06-1.00000E-03 0.00000E+00 0.00000E+00 0.00000E+00 0.00000E+00 0.00000E+00 0.00000E+00 2.43031E-03 5.86911E-03 2.44000E-02
      437  0.00000E+00 5.03651E-06-1.00000E-03 0.00000E+00 0.00000E+00 0.00000E+00 0.00000E+00 0.00000E+00 0.00000E+00 3.88800E-19 6.35504E-03 2.44000E-02
      438 -5.50635E-08 0.00000E+00-1.00000E-03 0.00000E+00 0.00000E+00 0.00000E+00 0.00000E+00 0.00000E+00 0.00000E+00 7.25704E-03 0.00000E+00 2.44000E-02
      439  1.63822E-07 0.00000E+00-1.00000E-03 0.00000E+00 0.00000E+00 0.00000E+00 0.00000E+00 0.00000E+00 0.00000E+00 8.16446E-03 0.00000E+00 2.44000E-02
      440  2.94133E-07 0.00000E+00-1.00000E-03 0.00000E+00 0.00000E+00 0.00000E+00 0.00000E+00 0.00000E+00 0.00000E+00 9.07169E-03 0.00000E+00 2.44000E-02
      441  3.83107E-07 0.00000E+00-1.00000E-03 0.00000E+00 0.00000E+00 0.00000E+00 0.00000E+00 0.00000E+00 0.00000E+00 9.97898E-03 0.00000E+00 2.44000E-02
      442  4.35006E-07 0.00000E+00-1.00000E-03 0.00000E+00 0.00000E+00 0.00000E+00 0.00000E+00 0.00000E+00 0.00000E+00 1.08861E-02 0.00000E+00 2.44000E-02
      443  3.99647E-07 0.00000E+00-1.00000E-03 0.00000E+00 0.00000E+00 0.00000E+00 0.00000E+00 0.00000E+00 0.00000E+00 1.17933E-02 0.00000E+00 2.44000E-02
      444  6.67489E-08 0.00000E+00-1.00000E-03 0.00000E+00 0.00000E+00 0.00000E+00 0.00000E+00 0.00000E+00 0.00000E+00 1.27001E-02 0.00000E+00 2.44000E-02
      628  1.03707E-06 2.12614E-06-1.00000E-03 0.00000E+00 0.00000E+00 0.00000E+00 0.00000E+00 0.00000E+00 0.00000E+00 8.39794E-03 3.43453E-03 2.44000E-02
      631  9.30240E-07 2.05324E-06-1.00000E-03 0.00000E+00 0.00000E+00 0.00000E+00 0.00000E+00 0.00000E+00 0.00000E+00 7.55443E-03 3.10025E-03 2.44000E-02
      632  1.24105E-06 2.30424E-06-1.00000E-03 0.00000E+00 0.00000E+00 0.00000E+00 0.00000E+00 0.00000E+00 0.00000E+00 6.41934E-03 6.41320E-03 2.44000E-02
      635  1.08572E-06 2.30863E-06-1.00000E-03 0.00000E+00 0.00000E+00 0.00000E+00 0.00000E+00 0.00000E+00 0.00000E+00 5.77649E-03 5.77291E-03 2.44000E-02
      636  7.23426E-07 2.44444E-06-1.00000E-03 0.00000E+00 0.00000E+00 0.00000E+00 0.00000E+00 0.00000E+00 0.00000E+00 3.43992E-03 8.39664E-03 2.44000E-02
      639  6.63025E-07 2.47408E-06-1.00000E-03 0.00000E+00 0.00000E+00 0.00000E+00 0.00000E+00 0.00000E+00 0.00000E+00 3.10336E-03 7.55417E-03 2.44000E-02
      640  0.00000E+00 4.55191E-06-1.00000E-03 0.00000E+00 0.00000E+00 0.00000E+00 0.00000E+00 0.00000E+00 0.00000E+00 5.55500E-19 9.07595E-03 2.44000E-02
      643  0.00000E+00 4.70381E-06-1.00000E-03 0.00000E+00 0.00000E+00 0.00000E+00 0.00000E+00 0.00000E+00 0.00000E+00 4.99900E-19 8.16900E-03 2.44000E-02
      692  1.16976E-06 2.15615E-06-1.00000E-03 0.00000E+00 0.00000E+00 0.00000E+00 0.00000E+00 0.00000E+00 0.00000E+00 9.24147E-03 3.76876E-03 2.44000E-02
      694  1.41880E-06 2.31178E-06-1.00000E-03 0.00000E+00 0.00000E+00 0.00000E+00 0.00000E+00 0.00000E+00 0.00000E+00 7.06212E-03 7.05341E-03 2.44000E-02
      696  7.53626E-07 2.40022E-06-1.00000E-03 0.00000E+00 0.00000E+00 0.00000E+00 0.00000E+00 0.00000E+00 0.00000E+00 3.77645E-03 9.23900E-03 2.44000E-02
      698  0.00000E+00 4.41841E-06-1.00000E-03 0.00000E+00 0.00000E+00 0.00000E+00 0.00000E+00 0.00000E+00 0.00000E+00 6.11000E-19 9.98302E-03 2.44000E-02
      900  1.39370E-06 1.98927E-06-1.00000E-03 0.00000E+00 0.00000E+00 0.00000E+00 0.00000E+00 0.00000E+00 0.00000E+00 1.09285E-02 4.43699E-03 2.44000E-02
      902  1.29862E-06 2.13021E-06-1.00000E-03 0.00000E+00 0.00000E+00 0.00000E+00 0.00000E+00 0.00000E+00 0.00000E+00 1.00850E-02 4.10293E-03 2.44000E-02
      903  1.83440E-06 2.39228E-06-1.00000E-03 0.00000E+00 0.00000E+00 0.00000E+00 0.00000E+00 0.00000E+00 0.00000E+00 8.34793E-03 8.33399E-03 2.44000E-02
      905  1.62028E-06 2.34402E-06-1.00000E-03 0.00000E+00 0.00000E+00 0.00000E+00 0.00000E+00 0.00000E+00 0.00000E+00 7.70502E-03 7.69364E-03 2.44000E-02
      906  6.95393E-07 2.55019E-06-1.00000E-03 0.00000E+00 0.00000E+00 0.00000E+00 0.00000E+00 0.00000E+00 0.00000E+00 4.44940E-03 1.09241E-02 2.44000E-02
      908  7.65900E-07 2.39174E-06-1.00000E-03 0.00000E+00 0.00000E+00 0.00000E+00 0.00000E+00 0.00000E+00 0.00000E+00 4.11297E-03 1.00815E-02 2.44000E-02
      909  0.00000E+00 4.43407E-06-1.00000E-03 0.00000E+00 0.00000E+00 0.00000E+00 0.00000E+00 0.00000E+00 0.00000E+00 7.22100E-19 1.17973E-02 2.44000E-02
      911  0.00000E+00 4.34573E-06-1.00000E-03 0.00000E+00 0.00000E+00 0.00000E+00 0.00000E+00 0.00000E+00 0.00000E+00 6.66600E-19 1.08900E-02 2.44000E-02
     1012  8.64081E-07 1.99037E-06-1.00000E-03 0.00000E+00 0.00000E+00 0.00000E+00 0.00000E+00 0.00000E+00 0.00000E+00 6.71096E-03 2.76599E-03 2.44000E-02
     1013  9.59263E-07 2.28980E-06-1.00000E-03 0.00000E+00 0.00000E+00 0.00000E+00 0.00000E+00 0.00000E+00 0.00000E+00 5.13376E-03 5.13269E-03 2.44000E-02
     1014  5.83043E-07 2.50758E-06-1.00000E-03 0.00000E+00 0.00000E+00 0.00000E+00 0.00000E+00 0.00000E+00 0.00000E+00 2.76678E-03 6.71171E-03 2.44000E-02
     1015  0.00000E+00 4.86016E-06-1.00000E-03 0.00000E+00 0.00000E+00 0.00000E+00 0.00000E+00 0.00000E+00 0.00000E+00 4.44400E-19 7.26196E-03 2.44000E-02
     1060  1.14660E-06 1.67740E-06-1.00000E-03 0.00000E+00 0.00000E+00 0.00000E+00 0.00000E+00 0.00000E+00 0.00000E+00 1.17716E-02 4.77088E-03 2.44000E-02
     1061  1.24887E-06 2.34915E-06-1.00000E-03 0.00000E+00 0.00000E+00 0.00000E+00 0.00000E+00 0.00000E+00 0.00000E+00 8.98995E-03 8.97415E-03 2.44000E-02
     1062  9.14988E-07 3.13643E-06-1.00000E-03 0.00000E+00 0.00000E+00 0.00000E+00 0.00000E+00 0.00000E+00 0.00000E+00 4.78611E-03 1.17671E-02 2.44000E-02
     1063  0.00000E+00 4.85866E-06-1.00000E-03 0.00000E+00 0.00000E+00 0.00000E+00 0.00000E+00 0.00000E+00 0.00000E+00 7.77700E-19 1.27049E-02 2.44000E-02
