 LS-DYNA keyword deck by LS-PrePost                                      
                    ls-dyna smp d R14 R14.1.1s_1_ef50e1 date 06/16/2024

 n o d a l   f o r c e/e n e r g y    o u t p u t  t=   0.00000E+00

 velocity boundary condition forces/rigid body moments 

 nd#     179  xforce=   0.0000E+00   yforce=   0.0000E+00  zforce=   0.0000E+00   energy=   0.0000E+00   setid =     179 xmoment=   0.0000E+00 ymoment=   0.0000E+00 zmoment=   0.0000E+00
 nd#     180  xforce=   0.0000E+00   yforce=   0.0000E+00  zforce=   0.0000E+00   energy=   0.0000E+00   setid =     180 xmoment=   0.0000E+00 ymoment=   0.0000E+00 zmoment=   0.0000E+00
 nd#     181  xforce=   0.0000E+00   yforce=   0.0000E+00  zforce=   0.0000E+00   energy=   0.0000E+00   setid =     181 xmoment=   0.0000E+00 ymoment=   0.0000E+00 zmoment=   0.0000E+00
 nd#     182  xforce=   0.0000E+00   yforce=   0.0000E+00  zforce=   0.0000E+00   energy=   0.0000E+00   setid =     182 xmoment=   0.0000E+00 ymoment=   0.0000E+00 zmoment=   0.0000E+00
 nd#     247  xforce=   0.0000E+00   yforce=   0.0000E+00  zforce=   0.0000E+00   energy=   0.0000E+00   setid =     247 xmoment=   0.0000E+00 ymoment=   0.0000E+00 zmoment=   0.0000E+00
 nd#     248  xforce=   0.0000E+00   yforce=   0.0000E+00  zforce=   0.0000E+00   energy=   0.0000E+00   setid =     248 xmoment=   0.0000E+00 ymoment=   0.0000E+00 zmoment=   0.0000E+00
 nd#     249  xforce=   0.0000E+00   yforce=   0.0000E+00  zforce=   0.0000E+00   energy=   0.0000E+00   setid =     249 xmoment=   0.0000E+00 ymoment=   0.0000E+00 zmoment=   0.0000E+00
 nd#     250  xforce=   0.0000E+00   yforce=   0.0000E+00  zforce=   0.0000E+00   energy=   0.0000E+00   setid =     250 xmoment=   0.0000E+00 ymoment=   0.0000E+00 zmoment=   0.0000E+00
 nd#     283  xforce=   0.0000E+00   yforce=   0.0000E+00  zforce=   0.0000E+00   energy=   0.0000E+00   setid =     283 xmoment=   0.0000E+00 ymoment=   0.0000E+00 zmoment=   0.0000E+00
 nd#     284  xforce=   0.0000E+00   yforce=   0.0000E+00  zforce=   0.0000E+00   energy=   0.0000E+00   setid =     284 xmoment=   0.0000E+00 ymoment=   0.0000E+00 zmoment=   0.0000E+00
 nd#     333  xforce=   0.0000E+00   yforce=   0.0000E+00  zforce=   0.0000E+00   energy=   0.0000E+00   setid =     333 xmoment=   0.0000E+00 ymoment=   0.0000E+00 zmoment=   0.0000E+00
 nd#     334  xforce=   0.0000E+00   yforce=   0.0000E+00  zforce=   0.0000E+00   energy=   0.0000E+00   setid =     334 xmoment=   0.0000E+00 ymoment=   0.0000E+00 zmoment=   0.0000E+00
 nd#     335  xforce=   0.0000E+00   yforce=   0.0000E+00  zforce=   0.0000E+00   energy=   0.0000E+00   setid =     335 xmoment=   0.0000E+00 ymoment=   0.0000E+00 zmoment=   0.0000E+00
 nd#     368  xforce=   0.0000E+00   yforce=   0.0000E+00  zforce=   0.0000E+00   energy=   0.0000E+00   setid =     368 xmoment=   0.0000E+00 ymoment=   0.0000E+00 zmoment=   0.0000E+00
 nd#     369  xforce=   0.0000E+00   yforce=   0.0000E+00  zforce=   0.0000E+00   energy=   0.0000E+00   setid =     369 xmoment=   0.0000E+00 ymoment=   0.0000E+00 zmoment=   0.0000E+00
 nd#     386  xforce=   0.0000E+00   yforce=   0.0000E+00  zforce=   0.0000E+00   energy=   0.0000E+00   setid =     386 xmoment=   0.0000E+00 ymoment=   0.0000E+00 zmoment=   0.0000E+00
 nd#     403  xforce=   0.0000E+00   yforce=   0.0000E+00  zforce=   0.0000E+00   energy=   0.0000E+00   setid =     403 xmoment=   0.0000E+00 ymoment=   0.0000E+00 zmoment=   0.0000E+00
 nd#     436  xforce=   0.0000E+00   yforce=   0.0000E+00  zforce=   0.0000E+00   energy=   0.0000E+00   setid =     436 xmoment=   0.0000E+00 ymoment=   0.0000E+00 zmoment=   0.0000E+00
 nd#     437  xforce=   0.0000E+00   yforce=   0.0000E+00  zforce=   0.0000E+00   energy=   0.0000E+00   setid =     437 xmoment=   0.0000E+00 ymoment=   0.0000E+00 zmoment=   0.0000E+00
 nd#     438  xforce=   0.0000E+00   yforce=   0.0000E+00  zforce=   0.0000E+00   energy=   0.0000E+00   setid =     438 xmoment=   0.0000E+00 ymoment=   0.0000E+00 zmoment=   0.0000E+00
 nd#     439  xforce=   0.0000E+00   yforce=   0.0000E+00  zforce=   0.0000E+00   energy=   0.0000E+00   setid =     439 xmoment=   0.0000E+00 ymoment=   0.0000E+00 zmoment=   0.0000E+00
 nd#     440  xforce=   0.0000E+00   yforce=   0.0000E+00  zforce=   0.0000E+00   energy=   0.0000E+00   setid =     440 xmoment=   0.0000E+00 ymoment=   0.0000E+00 zmoment=   0.0000E+00
 nd#     441  xforce=   0.0000E+00   yforce=   0.0000E+00  zforce=   0.0000E+00   energy=   0.0000E+00   setid =     441 xmoment=   0.0000E+00 ymoment=   0.0000E+00 zmoment=   0.0000E+00
 nd#     442  xforce=   0.0000E+00   yforce=   0.0000E+00  zforce=   0.0000E+00   energy=   0.0000E+00   setid =     442 xmoment=   0.0000E+00 ymoment=   0.0000E+00 zmoment=   0.0000E+00
 nd#     443  xforce=   0.0000E+00   yforce=   0.0000E+00  zforce=   0.0000E+00   energy=   0.0000E+00   setid =     443 xmoment=   0.0000E+00 ymoment=   0.0000E+00 zmoment=   0.0000E+00
 nd#     444  xforce=   0.0000E+00   yforce=   0.0000E+00  zforce=   0.0000E+00   energy=   0.0000E+00   setid =     444 xmoment=   0.0000E+00 ymoment=   0.0000E+00 zmoment=   0.0000E+00
 nd#     628  xforce=   0.0000E+00   yforce=   0.0000E+00  zforce=   0.0000E+00   energy=   0.0000E+00   setid =     628 xmoment=   0.0000E+00 ymoment=   0.0000E+00 zmoment=   0.0000E+00
 nd#     631  xforce=   0.0000E+00   yforce=   0.0000E+00  zforce=   0.0000E+00   energy=   0.0000E+00   setid =     631 xmoment=   0.0000E+00 ymoment=   0.0000E+00 zmoment=   0.0000E+00
 nd#     632  xforce=   0.0000E+00   yforce=   0.0000E+00  zforce=   0.0000E+00   energy=   0.0000E+00   setid =     632 xmoment=   0.0000E+00 ymoment=   0.0000E+00 zmoment=   0.0000E+00
 nd#     635  xforce=   0.0000E+00   yforce=   0.0000E+00  zforce=   0.0000E+00   energy=   0.0000E+00   setid =     635 xmoment=   0.0000E+00 ymoment=   0.0000E+00 zmoment=   0.0000E+00
 nd#     636  xforce=   0.0000E+00   yforce=   0.0000E+00  zforce=   0.0000E+00   energy=   0.0000E+00   setid =     636 xmoment=   0.0000E+00 ymoment=   0.0000E+00 zmoment=   0.0000E+00
 nd#     639  xforce=   0.0000E+00   yforce=   0.0000E+00  zforce=   0.0000E+00   energy=   0.0000E+00   setid =     639 xmoment=   0.0000E+00 ymoment=   0.0000E+00 zmoment=   0.0000E+00
 nd#     640  xforce=   0.0000E+00   yforce=   0.0000E+00  zforce=   0.0000E+00   energy=   0.0000E+00   setid =     640 xmoment=   0.0000E+00 ymoment=   0.0000E+00 zmoment=   0.0000E+00
 nd#     643  xforce=   0.0000E+00   yforce=   0.0000E+00  zforce=   0.0000E+00   energy=   0.0000E+00   setid =     643 xmoment=   0.0000E+00 ymoment=   0.0000E+00 zmoment=   0.0000E+00
 nd#     692  xforce=   0.0000E+00   yforce=   0.0000E+00  zforce=   0.0000E+00   energy=   0.0000E+00   setid =     692 xmoment=   0.0000E+00 ymoment=   0.0000E+00 zmoment=   0.0000E+00
 nd#     694  xforce=   0.0000E+00   yforce=   0.0000E+00  zforce=   0.0000E+00   energy=   0.0000E+00   setid =     694 xmoment=   0.0000E+00 ymoment=   0.0000E+00 zmoment=   0.0000E+00
 nd#     696  xforce=   0.0000E+00   yforce=   0.0000E+00  zforce=   0.0000E+00   energy=   0.0000E+00   setid =     696 xmoment=   0.0000E+00 ymoment=   0.0000E+00 zmoment=   0.0000E+00
 nd#     698  xforce=   0.0000E+00   yforce=   0.0000E+00  zforce=   0.0000E+00   energy=   0.0000E+00   setid =     698 xmoment=   0.0000E+00 ymoment=   0.0000E+00 zmoment=   0.0000E+00
 nd#     900  xforce=   0.0000E+00   yforce=   0.0000E+00  zforce=   0.0000E+00   energy=   0.0000E+00   setid =     900 xmoment=   0.0000E+00 ymoment=   0.0000E+00 zmoment=   0.0000E+00
 nd#     902  xforce=   0.0000E+00   yforce=   0.0000E+00  zforce=   0.0000E+00   energy=   0.0000E+00   setid =     902 xmoment=   0.0000E+00 ymoment=   0.0000E+00 zmoment=   0.0000E+00
 nd#     903  xforce=   0.0000E+00   yforce=   0.0000E+00  zforce=   0.0000E+00   energy=   0.0000E+00   setid =     903 xmoment=   0.0000E+00 ymoment=   0.0000E+00 zmoment=   0.0000E+00
 nd#     905  xforce=   0.0000E+00   yforce=   0.0000E+00  zforce=   0.0000E+00   energy=   0.0000E+00   setid =     905 xmoment=   0.0000E+00 ymoment=   0.0000E+00 zmoment=   0.0000E+00
 nd#     906  xforce=   0.0000E+00   yforce=   0.0000E+00  zforce=   0.0000E+00   energy=   0.0000E+00   setid =     906 xmoment=   0.0000E+00 ymoment=   0.0000E+00 zmoment=   0.0000E+00
 nd#     908  xforce=   0.0000E+00   yforce=   0.0000E+00  zforce=   0.0000E+00   energy=   0.0000E+00   setid =     908 xmoment=   0.0000E+00 ymoment=   0.0000E+00 zmoment=   0.0000E+00
 nd#     909  xforce=   0.0000E+00   yforce=   0.0000E+00  zforce=   0.0000E+00   energy=   0.0000E+00   setid =     909 xmoment=   0.0000E+00 ymoment=   0.0000E+00 zmoment=   0.0000E+00
 nd#     911  xforce=   0.0000E+00   yforce=   0.0000E+00  zforce=   0.0000E+00   energy=   0.0000E+00   setid =     911 xmoment=   0.0000E+00 ymoment=   0.0000E+00 zmoment=   0.0000E+00
 nd#    1012  xforce=   0.0000E+00   yforce=   0.0000E+00  zforce=   0.0000E+00   energy=   0.0000E+00   setid =    1012 xmoment=   0.0000E+00 ymoment=   0.0000E+00 zmoment=   0.0000E+00
 nd#    1013  xforce=   0.0000E+00   yforce=   0.0000E+00  zforce=   0.0000E+00   energy=   0.0000E+00   setid =    1013 xmoment=   0.0000E+00 ymoment=   0.0000E+00 zmoment=   0.0000E+00
 nd#    1014  xforce=   0.0000E+00   yforce=   0.0000E+00  zforce=   0.0000E+00   energy=   0.0000E+00   setid =    1014 xmoment=   0.0000E+00 ymoment=   0.0000E+00 zmoment=   0.0000E+00
 nd#    1015  xforce=   0.0000E+00   yforce=   0.0000E+00  zforce=   0.0000E+00   energy=   0.0000E+00   setid =    1015 xmoment=   0.0000E+00 ymoment=   0.0000E+00 zmoment=   0.0000E+00
 nd#    1060  xforce=   0.0000E+00   yforce=   0.0000E+00  zforce=   0.0000E+00   energy=   0.0000E+00   setid =    1060 xmoment=   0.0000E+00 ymoment=   0.0000E+00 zmoment=   0.0000E+00
 nd#    1061  xforce=   0.0000E+00   yforce=   0.0000E+00  zforce=   0.0000E+00   energy=   0.0000E+00   setid =    1061 xmoment=   0.0000E+00 ymoment=   0.0000E+00 zmoment=   0.0000E+00
 nd#    1062  xforce=   0.0000E+00   yforce=   0.0000E+00  zforce=   0.0000E+00   energy=   0.0000E+00   setid =    1062 xmoment=   0.0000E+00 ymoment=   0.0000E+00 zmoment=   0.0000E+00
 nd#    1063  xforce=   0.0000E+00   yforce=   0.0000E+00  zforce=   0.0000E+00   energy=   0.0000E+00   setid =    1063 xmoment=   0.0000E+00 ymoment=   0.0000E+00 zmoment=   0.0000E+00
              xtotal=   0.0000E+00   ytotal=   0.0000E+00  ztotal=   0.0000E+00   etotal=   0.0000E+00

 n o d a l   f o r c e/e n e r g y    o u t p u t  t=   1.29245E+00

 velocity boundary condition forces/rigid body moments 

 nd#     179  xforce=   0.0000E+00   yforce=   0.0000E+00  zforce=  -5.9613E+01   energy=   7.7927E-04   setid =     179 xmoment=   0.0000E+00 ymoment=   0.0000E+00 zmoment=   0.0000E+00
 nd#     180  xforce=   0.0000E+00   yforce=   0.0000E+00  zforce=  -5.6763E+01   energy=   7.4716E-04   setid =     180 xmoment=   0.0000E+00 ymoment=   0.0000E+00 zmoment=   0.0000E+00
 nd#     181  xforce=   0.0000E+00   yforce=   0.0000E+00  zforce=  -6.7776E+01   energy=   8.8165E-04   setid =     181 xmoment=   0.0000E+00 ymoment=   0.0000E+00 zmoment=   0.0000E+00
 nd#     182  xforce=   0.0000E+00   yforce=   0.0000E+00  zforce=  -6.2970E+01   energy=   8.1982E-04   setid =     182 xmoment=   0.0000E+00 ymoment=   0.0000E+00 zmoment=   0.0000E+00
 nd#     247  xforce=   0.0000E+00   yforce=   0.0000E+00  zforce=  -3.2997E+01   energy=   4.0875E-04   setid =     247 xmoment=   0.0000E+00 ymoment=   0.0000E+00 zmoment=   0.0000E+00
 nd#     248  xforce=   0.0000E+00   yforce=   0.0000E+00  zforce=  -5.2752E+01   energy=   6.9116E-04   setid =     248 xmoment=   0.0000E+00 ymoment=   0.0000E+00 zmoment=   0.0000E+00
 nd#     249  xforce=   0.0000E+00   yforce=   0.0000E+00  zforce=  -3.7487E+01   energy=   4.6907E-04   setid =     249 xmoment=   0.0000E+00 ymoment=   0.0000E+00 zmoment=   0.0000E+00
 nd#     250  xforce=   0.0000E+00   yforce=   0.0000E+00  zforce=  -2.2483E+01   energy=   2.7256E-04   setid =     250 xmoment=   0.0000E+00 ymoment=   0.0000E+00 zmoment=   0.0000E+00
 nd#     283  xforce=   0.0000E+00   yforce=   0.0000E+00  zforce=  -3.8609E+01   energy=   4.7604E-04   setid =     283 xmoment=   0.0000E+00 ymoment=   0.0000E+00 zmoment=   0.0000E+00
 nd#     284  xforce=   0.0000E+00   yforce=   0.0000E+00  zforce=  -5.2913E+01   energy=   6.9511E-04   setid =     284 xmoment=   0.0000E+00 ymoment=   0.0000E+00 zmoment=   0.0000E+00
 nd#     333  xforce=   0.0000E+00   yforce=   0.0000E+00  zforce=  -3.6176E+01   energy=   4.9905E-04   setid =     333 xmoment=   0.0000E+00 ymoment=   0.0000E+00 zmoment=   0.0000E+00
 nd#     334  xforce=   0.0000E+00   yforce=   0.0000E+00  zforce=  -2.6341E+01   energy=   3.5517E-04   setid =     334 xmoment=   0.0000E+00 ymoment=   0.0000E+00 zmoment=   0.0000E+00
 nd#     335  xforce=   0.0000E+00   yforce=   0.0000E+00  zforce=  -5.9064E+01   energy=   7.7666E-04   setid =     335 xmoment=   0.0000E+00 ymoment=   0.0000E+00 zmoment=   0.0000E+00
 nd#     368  xforce=   0.0000E+00   yforce=   0.0000E+00  zforce=  -2.9060E+01   energy=   3.7341E-04   setid =     368 xmoment=   0.0000E+00 ymoment=   0.0000E+00 zmoment=   0.0000E+00
 nd#     369  xforce=   0.0000E+00   yforce=   0.0000E+00  zforce=  -3.6967E+01   energy=   4.7387E-04   setid =     369 xmoment=   0.0000E+00 ymoment=   0.0000E+00 zmoment=   0.0000E+00
 nd#     386  xforce=   0.0000E+00   yforce=   0.0000E+00  zforce=  -4.0725E+01   energy=   5.1206E-04   setid =     386 xmoment=   0.0000E+00 ymoment=   0.0000E+00 zmoment=   0.0000E+00
 nd#     403  xforce=   0.0000E+00   yforce=   0.0000E+00  zforce=  -3.4514E+01   energy=   4.4120E-04   setid =     403 xmoment=   0.0000E+00 ymoment=   0.0000E+00 zmoment=   0.0000E+00
 nd#     436  xforce=   0.0000E+00   yforce=   0.0000E+00  zforce=  -6.1649E+01   energy=   8.0360E-04   setid =     436 xmoment=   0.0000E+00 ymoment=   0.0000E+00 zmoment=   0.0000E+00
 nd#     437  xforce=   0.0000E+00   yforce=   0.0000E+00  zforce=  -3.6766E+01   energy=   4.7159E-04   setid =     437 xmoment=   0.0000E+00 ymoment=   0.0000E+00 zmoment=   0.0000E+00
 nd#     438  xforce=   0.0000E+00   yforce=   0.0000E+00  zforce=  -3.0261E+01   energy=   3.9024E-04   setid =     438 xmoment=   0.0000E+00 ymoment=   0.0000E+00 zmoment=   0.0000E+00
 nd#     439  xforce=   0.0000E+00   yforce=   0.0000E+00  zforce=  -3.2014E+01   energy=   4.1475E-04   setid =     439 xmoment=   0.0000E+00 ymoment=   0.0000E+00 zmoment=   0.0000E+00
 nd#     440  xforce=   0.0000E+00   yforce=   0.0000E+00  zforce=  -3.3431E+01   energy=   4.3517E-04   setid =     440 xmoment=   0.0000E+00 ymoment=   0.0000E+00 zmoment=   0.0000E+00
 nd#     441  xforce=   0.0000E+00   yforce=   0.0000E+00  zforce=  -3.4617E+01   energy=   4.5277E-04   setid =     441 xmoment=   0.0000E+00 ymoment=   0.0000E+00 zmoment=   0.0000E+00
 nd#     442  xforce=   0.0000E+00   yforce=   0.0000E+00  zforce=  -3.5643E+01   energy=   4.6865E-04   setid =     442 xmoment=   0.0000E+00 ymoment=   0.0000E+00 zmoment=   0.0000E+00
 nd#     443  xforce=   0.0000E+00   yforce=   0.0000E+00  zforce=  -3.5674E+01   energy=   4.7251E-04   setid =     443 xmoment=   0.0000E+00 ymoment=   0.0000E+00 zmoment=   0.0000E+00
 nd#     444  xforce=   0.0000E+00   yforce=   0.0000E+00  zforce=  -6.8187E+00   energy=   9.4611E-05   setid =     444 xmoment=   0.0000E+00 ymoment=   0.0000E+00 zmoment=   0.0000E+00
 nd#     628  xforce=   0.0000E+00   yforce=   0.0000E+00  zforce=  -6.6251E+01   energy=   8.6725E-04   setid =     628 xmoment=   0.0000E+00 ymoment=   0.0000E+00 zmoment=   0.0000E+00
 nd#     631  xforce=   0.0000E+00   yforce=   0.0000E+00  zforce=  -6.2684E+01   energy=   8.1883E-04   setid =     631 xmoment=   0.0000E+00 ymoment=   0.0000E+00 zmoment=   0.0000E+00
 nd#     632  xforce=   0.0000E+00   yforce=   0.0000E+00  zforce=  -6.5784E+01   energy=   8.6061E-04   setid =     632 xmoment=   0.0000E+00 ymoment=   0.0000E+00 zmoment=   0.0000E+00
 nd#     635  xforce=   0.0000E+00   yforce=   0.0000E+00  zforce=  -6.1380E+01   energy=   8.0210E-04   setid =     635 xmoment=   0.0000E+00 ymoment=   0.0000E+00 zmoment=   0.0000E+00
 nd#     636  xforce=   0.0000E+00   yforce=   0.0000E+00  zforce=  -6.6691E+01   energy=   8.6971E-04   setid =     636 xmoment=   0.0000E+00 ymoment=   0.0000E+00 zmoment=   0.0000E+00
 nd#     639  xforce=   0.0000E+00   yforce=   0.0000E+00  zforce=  -6.1968E+01   energy=   8.0765E-04   setid =     639 xmoment=   0.0000E+00 ymoment=   0.0000E+00 zmoment=   0.0000E+00
 nd#     640  xforce=   0.0000E+00   yforce=   0.0000E+00  zforce=  -3.4905E+01   energy=   4.5200E-04   setid =     640 xmoment=   0.0000E+00 ymoment=   0.0000E+00 zmoment=   0.0000E+00
 nd#     643  xforce=   0.0000E+00   yforce=   0.0000E+00  zforce=  -3.2864E+01   energy=   4.2461E-04   setid =     643 xmoment=   0.0000E+00 ymoment=   0.0000E+00 zmoment=   0.0000E+00
 nd#     692  xforce=   0.0000E+00   yforce=   0.0000E+00  zforce=  -6.9235E+01   energy=   9.0874E-04   setid =     692 xmoment=   0.0000E+00 ymoment=   0.0000E+00 zmoment=   0.0000E+00
 nd#     694  xforce=   0.0000E+00   yforce=   0.0000E+00  zforce=  -6.9569E+01   energy=   9.1167E-04   setid =     694 xmoment=   0.0000E+00 ymoment=   0.0000E+00 zmoment=   0.0000E+00
 nd#     696  xforce=   0.0000E+00   yforce=   0.0000E+00  zforce=  -7.0770E+01   energy=   9.2389E-04   setid =     696 xmoment=   0.0000E+00 ymoment=   0.0000E+00 zmoment=   0.0000E+00
 nd#     698  xforce=   0.0000E+00   yforce=   0.0000E+00  zforce=  -3.6656E+01   energy=   4.7584E-04   setid =     698 xmoment=   0.0000E+00 ymoment=   0.0000E+00 zmoment=   0.0000E+00
 nd#     900  xforce=   0.0000E+00   yforce=   0.0000E+00  zforce=  -7.2210E+01   energy=   9.5684E-04   setid =     900 xmoment=   0.0000E+00 ymoment=   0.0000E+00 zmoment=   0.0000E+00
 nd#     902  xforce=   0.0000E+00   yforce=   0.0000E+00  zforce=  -7.1743E+01   energy=   9.4492E-04   setid =     902 xmoment=   0.0000E+00 ymoment=   0.0000E+00 zmoment=   0.0000E+00
 nd#     903  xforce=   0.0000E+00   yforce=   0.0000E+00  zforce=  -7.3771E+01   energy=   9.7417E-04   setid =     903 xmoment=   0.0000E+00 ymoment=   0.0000E+00 zmoment=   0.0000E+00
 nd#     905  xforce=   0.0000E+00   yforce=   0.0000E+00  zforce=  -7.2737E+01   energy=   9.5563E-04   setid =     905 xmoment=   0.0000E+00 ymoment=   0.0000E+00 zmoment=   0.0000E+00
 nd#     906  xforce=   0.0000E+00   yforce=   0.0000E+00  zforce=  -7.5533E+01   energy=   9.9278E-04   setid =     906 xmoment=   0.0000E+00 ymoment=   0.0000E+00 zmoment=   0.0000E+00
 nd#     908  xforce=   0.0000E+00   yforce=   0.0000E+00  zforce=  -7.4322E+01   energy=   9.7203E-04   setid =     908 xmoment=   0.0000E+00 ymoment=   0.0000E+00 zmoment=   0.0000E+00
 nd#     909  xforce=   0.0000E+00   yforce=   0.0000E+00  zforce=  -3.8565E+01   energy=   5.0512E-04   setid =     909 xmoment=   0.0000E+00 ymoment=   0.0000E+00 zmoment=   0.0000E+00
 nd#     911  xforce=   0.0000E+00   yforce=   0.0000E+00  zforce=  -3.8209E+01   energy=   4.9742E-04   setid =     911 xmoment=   0.0000E+00 ymoment=   0.0000E+00 zmoment=   0.0000E+00
 nd#    1012  xforce=   0.0000E+00   yforce=   0.0000E+00  zforce=  -5.8608E+01   energy=   7.6437E-04   setid =    1012 xmoment=   0.0000E+00 ymoment=   0.0000E+00 zmoment=   0.0000E+00
 nd#    1013  xforce=   0.0000E+00   yforce=   0.0000E+00  zforce=  -5.6639E+01   energy=   7.3944E-04   setid =    1013 xmoment=   0.0000E+00 ymoment=   0.0000E+00 zmoment=   0.0000E+00
 nd#    1014  xforce=   0.0000E+00   yforce=   0.0000E+00  zforce=  -5.7288E+01   energy=   7.4595E-04   setid =    1014 xmoment=   0.0000E+00 ymoment=   0.0000E+00 zmoment=   0.0000E+00
 nd#    1015  xforce=   0.0000E+00   yforce=   0.0000E+00  zforce=  -3.0888E+01   energy=   3.9788E-04   setid =    1015 xmoment=   0.0000E+00 ymoment=   0.0000E+00 zmoment=   0.0000E+00
 nd#    1060  xforce=   0.0000E+00   yforce=   0.0000E+00  zforce=  -1.1764E+01   energy=   1.6973E-04   setid =    1060 xmoment=   0.0000E+00 ymoment=   0.0000E+00 zmoment=   0.0000E+00
 nd#    1061  xforce=   0.0000E+00   yforce=   0.0000E+00  zforce=  -7.7708E+00   energy=   1.2407E-04   setid =    1061 xmoment=   0.0000E+00 ymoment=   0.0000E+00 zmoment=   0.0000E+00
 nd#    1062  xforce=   0.0000E+00   yforce=   0.0000E+00  zforce=  -3.1687E+00   energy=   7.3198E-05   setid =    1062 xmoment=   0.0000E+00 ymoment=   0.0000E+00 zmoment=   0.0000E+00
 nd#    1063  xforce=   0.0000E+00   yforce=   0.0000E+00  zforce=  -8.7545E-01   energy=   3.0215E-05   setid =    1063 xmoment=   0.0000E+00 ymoment=   0.0000E+00 zmoment=   0.0000E+00
              xtotal=   0.0000E+00   ytotal=   0.0000E+00  ztotal=  -2.4969E+03   etotal=   3.2643E-02

 n o d a l   f o r c e/e n e r g y    o u t p u t  t=   2.45836E+00

 velocity boundary condition forces/rigid body moments 

 nd#     179  xforce=   0.0000E+00   yforce=   0.0000E+00  zforce=  -9.5408E+01   energy=   2.8712E-03   setid =     179 xmoment=   0.0000E+00 ymoment=   0.0000E+00 zmoment=   0.0000E+00
 nd#     180  xforce=   0.0000E+00   yforce=   0.0000E+00  zforce=  -1.5255E+02   energy=   3.8936E-03   setid =     180 xmoment=   0.0000E+00 ymoment=   0.0000E+00 zmoment=   0.0000E+00
 nd#     181  xforce=   0.0000E+00   yforce=   0.0000E+00  zforce=  -2.9295E+01   energy=   1.5630E-03   setid =     181 xmoment=   0.0000E+00 ymoment=   0.0000E+00 zmoment=   0.0000E+00
 nd#     182  xforce=   0.0000E+00   yforce=   0.0000E+00  zforce=  -1.2246E+01   energy=   1.0980E-03   setid =     182 xmoment=   0.0000E+00 ymoment=   0.0000E+00 zmoment=   0.0000E+00
 nd#     247  xforce=   0.0000E+00   yforce=   0.0000E+00  zforce=  -2.1812E+02   energy=   4.3714E-03   setid =     247 xmoment=   0.0000E+00 ymoment=   0.0000E+00 zmoment=   0.0000E+00
 nd#     248  xforce=   0.0000E+00   yforce=   0.0000E+00  zforce=   8.2998E+01   energy=  -7.6613E-04   setid =     248 xmoment=   0.0000E+00 ymoment=   0.0000E+00 zmoment=   0.0000E+00
 nd#     249  xforce=   0.0000E+00   yforce=   0.0000E+00  zforce=  -3.8563E+01   energy=   1.1754E-03   setid =     249 xmoment=   0.0000E+00 ymoment=   0.0000E+00 zmoment=   0.0000E+00
 nd#     250  xforce=   0.0000E+00   yforce=   0.0000E+00  zforce=  -1.5015E+02   energy=   3.0042E-03   setid =     250 xmoment=   0.0000E+00 ymoment=   0.0000E+00 zmoment=   0.0000E+00
 nd#     283  xforce=   0.0000E+00   yforce=   0.0000E+00  zforce=  -1.3922E+02   energy=   3.0827E-03   setid =     283 xmoment=   0.0000E+00 ymoment=   0.0000E+00 zmoment=   0.0000E+00
 nd#     284  xforce=   0.0000E+00   yforce=   0.0000E+00  zforce=   2.1098E+02   energy=  -2.8490E-03   setid =     284 xmoment=   0.0000E+00 ymoment=   0.0000E+00 zmoment=   0.0000E+00
 nd#     333  xforce=   0.0000E+00   yforce=   0.0000E+00  zforce=  -5.5622E+01   energy=   1.7345E-03   setid =     333 xmoment=   0.0000E+00 ymoment=   0.0000E+00 zmoment=   0.0000E+00
 nd#     334  xforce=   0.0000E+00   yforce=   0.0000E+00  zforce=  -8.1589E+01   energy=   2.0145E-03   setid =     334 xmoment=   0.0000E+00 ymoment=   0.0000E+00 zmoment=   0.0000E+00
 nd#     335  xforce=   0.0000E+00   yforce=   0.0000E+00  zforce=  -4.2330E+01   energy=   1.7350E-03   setid =     335 xmoment=   0.0000E+00 ymoment=   0.0000E+00 zmoment=   0.0000E+00
 nd#     368  xforce=   0.0000E+00   yforce=   0.0000E+00  zforce=  -1.1367E+02   energy=   2.6173E-03   setid =     368 xmoment=   0.0000E+00 ymoment=   0.0000E+00 zmoment=   0.0000E+00
 nd#     369  xforce=   0.0000E+00   yforce=   0.0000E+00  zforce=  -7.3019E+01   energy=   1.9786E-03   setid =     369 xmoment=   0.0000E+00 ymoment=   0.0000E+00 zmoment=   0.0000E+00
 nd#     386  xforce=   0.0000E+00   yforce=   0.0000E+00  zforce=  -1.6812E+02   energy=   3.7362E-03   setid =     386 xmoment=   0.0000E+00 ymoment=   0.0000E+00 zmoment=   0.0000E+00
 nd#     403  xforce=   0.0000E+00   yforce=   0.0000E+00  zforce=  -8.3004E+01   energy=   2.0652E-03   setid =     403 xmoment=   0.0000E+00 ymoment=   0.0000E+00 zmoment=   0.0000E+00
 nd#     436  xforce=   0.0000E+00   yforce=   0.0000E+00  zforce=  -6.1267E+01   energy=   2.1360E-03   setid =     436 xmoment=   0.0000E+00 ymoment=   0.0000E+00 zmoment=   0.0000E+00
 nd#     437  xforce=   0.0000E+00   yforce=   0.0000E+00  zforce=  -5.8923E+01   energy=   1.7011E-03   setid =     437 xmoment=   0.0000E+00 ymoment=   0.0000E+00 zmoment=   0.0000E+00
 nd#     438  xforce=   0.0000E+00   yforce=   0.0000E+00  zforce=  -6.4688E+01   energy=   1.7343E-03   setid =     438 xmoment=   0.0000E+00 ymoment=   0.0000E+00 zmoment=   0.0000E+00
 nd#     439  xforce=   0.0000E+00   yforce=   0.0000E+00  zforce=  -5.6910E+01   energy=   1.5702E-03   setid =     439 xmoment=   0.0000E+00 ymoment=   0.0000E+00 zmoment=   0.0000E+00
 nd#     440  xforce=   0.0000E+00   yforce=   0.0000E+00  zforce=  -5.2718E+01   energy=   1.4886E-03   setid =     440 xmoment=   0.0000E+00 ymoment=   0.0000E+00 zmoment=   0.0000E+00
 nd#     441  xforce=   0.0000E+00   yforce=   0.0000E+00  zforce=  -4.9432E+01   energy=   1.4791E-03   setid =     441 xmoment=   0.0000E+00 ymoment=   0.0000E+00 zmoment=   0.0000E+00
 nd#     442  xforce=   0.0000E+00   yforce=   0.0000E+00  zforce=  -4.5766E+01   energy=   1.4385E-03   setid =     442 xmoment=   0.0000E+00 ymoment=   0.0000E+00 zmoment=   0.0000E+00
 nd#     443  xforce=   0.0000E+00   yforce=   0.0000E+00  zforce=  -3.5828E+01   energy=   1.2754E-03   setid =     443 xmoment=   0.0000E+00 ymoment=   0.0000E+00 zmoment=   0.0000E+00
 nd#     444  xforce=   0.0000E+00   yforce=   0.0000E+00  zforce=   6.4898E+00   energy=   1.4812E-05   setid =     444 xmoment=   0.0000E+00 ymoment=   0.0000E+00 zmoment=   0.0000E+00
 nd#     628  xforce=   0.0000E+00   yforce=   0.0000E+00  zforce=  -5.4736E+01   energy=   2.0755E-03   setid =     628 xmoment=   0.0000E+00 ymoment=   0.0000E+00 zmoment=   0.0000E+00
 nd#     631  xforce=   0.0000E+00   yforce=   0.0000E+00  zforce=  -5.0218E+01   energy=   1.9357E-03   setid =     631 xmoment=   0.0000E+00 ymoment=   0.0000E+00 zmoment=   0.0000E+00
 nd#     632  xforce=   0.0000E+00   yforce=   0.0000E+00  zforce=  -8.6883E+01   energy=   2.6996E-03   setid =     632 xmoment=   0.0000E+00 ymoment=   0.0000E+00 zmoment=   0.0000E+00
 nd#     635  xforce=   0.0000E+00   yforce=   0.0000E+00  zforce=  -9.0025E+01   energy=   2.7029E-03   setid =     635 xmoment=   0.0000E+00 ymoment=   0.0000E+00 zmoment=   0.0000E+00
 nd#     636  xforce=   0.0000E+00   yforce=   0.0000E+00  zforce=  -8.4673E+01   energy=   2.6219E-03   setid =     636 xmoment=   0.0000E+00 ymoment=   0.0000E+00 zmoment=   0.0000E+00
 nd#     639  xforce=   0.0000E+00   yforce=   0.0000E+00  zforce=  -7.5458E+01   energy=   2.3708E-03   setid =     639 xmoment=   0.0000E+00 ymoment=   0.0000E+00 zmoment=   0.0000E+00
 nd#     640  xforce=   0.0000E+00   yforce=   0.0000E+00  zforce=  -5.1552E+01   energy=   1.5027E-03   setid =     640 xmoment=   0.0000E+00 ymoment=   0.0000E+00 zmoment=   0.0000E+00
 nd#     643  xforce=   0.0000E+00   yforce=   0.0000E+00  zforce=  -5.4475E+01   energy=   1.5094E-03   setid =     643 xmoment=   0.0000E+00 ymoment=   0.0000E+00 zmoment=   0.0000E+00
 nd#     692  xforce=   0.0000E+00   yforce=   0.0000E+00  zforce=  -6.0676E+01   energy=   2.3337E-03   setid =     692 xmoment=   0.0000E+00 ymoment=   0.0000E+00 zmoment=   0.0000E+00
 nd#     694  xforce=   0.0000E+00   yforce=   0.0000E+00  zforce=  -8.6735E+01   energy=   2.8003E-03   setid =     694 xmoment=   0.0000E+00 ymoment=   0.0000E+00 zmoment=   0.0000E+00
 nd#     696  xforce=   0.0000E+00   yforce=   0.0000E+00  zforce=  -9.3590E+01   energy=   2.8529E-03   setid =     696 xmoment=   0.0000E+00 ymoment=   0.0000E+00 zmoment=   0.0000E+00
 nd#     698  xforce=   0.0000E+00   yforce=   0.0000E+00  zforce=  -4.9924E+01   energy=   1.4969E-03   setid =     698 xmoment=   0.0000E+00 ymoment=   0.0000E+00 zmoment=   0.0000E+00
 nd#     900  xforce=   0.0000E+00   yforce=   0.0000E+00  zforce=  -5.2745E+01   energy=   2.1943E-03   setid =     900 xmoment=   0.0000E+00 ymoment=   0.0000E+00 zmoment=   0.0000E+00
 nd#     902  xforce=   0.0000E+00   yforce=   0.0000E+00  zforce=  -6.6781E+01   energy=   2.4763E-03   setid =     902 xmoment=   0.0000E+00 ymoment=   0.0000E+00 zmoment=   0.0000E+00
 nd#     903  xforce=   0.0000E+00   yforce=   0.0000E+00  zforce=  -7.7744E+01   energy=   2.5899E-03   setid =     903 xmoment=   0.0000E+00 ymoment=   0.0000E+00 zmoment=   0.0000E+00
 nd#     905  xforce=   0.0000E+00   yforce=   0.0000E+00  zforce=  -8.5539E+01   energy=   2.7994E-03   setid =     905 xmoment=   0.0000E+00 ymoment=   0.0000E+00 zmoment=   0.0000E+00
 nd#     906  xforce=   0.0000E+00   yforce=   0.0000E+00  zforce=  -9.6832E+01   energy=   3.0317E-03   setid =     906 xmoment=   0.0000E+00 ymoment=   0.0000E+00 zmoment=   0.0000E+00
 nd#     908  xforce=   0.0000E+00   yforce=   0.0000E+00  zforce=  -9.9419E+01   energy=   3.0837E-03   setid =     908 xmoment=   0.0000E+00 ymoment=   0.0000E+00 zmoment=   0.0000E+00
 nd#     909  xforce=   0.0000E+00   yforce=   0.0000E+00  zforce=  -2.0221E+01   energy=   1.0478E-03   setid =     909 xmoment=   0.0000E+00 ymoment=   0.0000E+00 zmoment=   0.0000E+00
 nd#     911  xforce=   0.0000E+00   yforce=   0.0000E+00  zforce=  -4.3837E+01   energy=   1.3947E-03   setid =     911 xmoment=   0.0000E+00 ymoment=   0.0000E+00 zmoment=   0.0000E+00
 nd#    1012  xforce=   0.0000E+00   yforce=   0.0000E+00  zforce=  -4.6604E+01   energy=   1.8158E-03   setid =    1012 xmoment=   0.0000E+00 ymoment=   0.0000E+00 zmoment=   0.0000E+00
 nd#    1013  xforce=   0.0000E+00   yforce=   0.0000E+00  zforce=  -9.7270E+01   energy=   2.8111E-03   setid =    1013 xmoment=   0.0000E+00 ymoment=   0.0000E+00 zmoment=   0.0000E+00
 nd#    1014  xforce=   0.0000E+00   yforce=   0.0000E+00  zforce=  -6.6387E+01   energy=   2.0975E-03   setid =    1014 xmoment=   0.0000E+00 ymoment=   0.0000E+00 zmoment=   0.0000E+00
 nd#    1015  xforce=   0.0000E+00   yforce=   0.0000E+00  zforce=  -5.9537E+01   energy=   1.5450E-03   setid =    1015 xmoment=   0.0000E+00 ymoment=   0.0000E+00 zmoment=   0.0000E+00
 nd#    1060  xforce=   0.0000E+00   yforce=   0.0000E+00  zforce=   3.5717E+01   energy=  -3.9834E-04   setid =    1060 xmoment=   0.0000E+00 ymoment=   0.0000E+00 zmoment=   0.0000E+00
 nd#    1061  xforce=   0.0000E+00   yforce=   0.0000E+00  zforce=   4.3499E+01   energy=  -5.2685E-04   setid =    1061 xmoment=   0.0000E+00 ymoment=   0.0000E+00 zmoment=   0.0000E+00
 nd#    1062  xforce=   0.0000E+00   yforce=   0.0000E+00  zforce=   5.8912E+01   energy=  -9.7688E-04   setid =    1062 xmoment=   0.0000E+00 ymoment=   0.0000E+00 zmoment=   0.0000E+00
 nd#    1063  xforce=   0.0000E+00   yforce=   0.0000E+00  zforce=   5.8212E+01   energy=  -1.0302E-03   setid =    1063 xmoment=   0.0000E+00 ymoment=   0.0000E+00 zmoment=   0.0000E+00
              xtotal=   0.0000E+00   ytotal=   0.0000E+00  ztotal=  -3.0335E+03   etotal=   9.7021E-02

 n o d a l   f o r c e/e n e r g y    o u t p u t  t=   3.38229E+00

 velocity boundary condition forces/rigid body moments 

 nd#     179  xforce=   0.0000E+00   yforce=   0.0000E+00  zforce=  -1.1276E+02   energy=   4.7945E-03   setid =     179 xmoment=   0.0000E+00 ymoment=   0.0000E+00 zmoment=   0.0000E+00
 nd#     180  xforce=   0.0000E+00   yforce=   0.0000E+00  zforce=  -1.8037E+02   energy=   6.9696E-03   setid =     180 xmoment=   0.0000E+00 ymoment=   0.0000E+00 zmoment=   0.0000E+00
 nd#     181  xforce=   0.0000E+00   yforce=   0.0000E+00  zforce=  -2.3333E+01   energy=   2.0493E-03   setid =     181 xmoment=   0.0000E+00 ymoment=   0.0000E+00 zmoment=   0.0000E+00
 nd#     182  xforce=   0.0000E+00   yforce=   0.0000E+00  zforce=  -9.0370E+00   energy=   1.2946E-03   setid =     182 xmoment=   0.0000E+00 ymoment=   0.0000E+00 zmoment=   0.0000E+00
 nd#     247  xforce=   0.0000E+00   yforce=   0.0000E+00  zforce=  -2.5063E+02   energy=   8.7023E-03   setid =     247 xmoment=   0.0000E+00 ymoment=   0.0000E+00 zmoment=   0.0000E+00
 nd#     248  xforce=   0.0000E+00   yforce=   0.0000E+00  zforce=   1.0300E+02   energy=  -2.4846E-03   setid =     248 xmoment=   0.0000E+00 ymoment=   0.0000E+00 zmoment=   0.0000E+00
 nd#     249  xforce=   0.0000E+00   yforce=   0.0000E+00  zforce=  -4.3982E+01   energy=   1.9381E-03   setid =     249 xmoment=   0.0000E+00 ymoment=   0.0000E+00 zmoment=   0.0000E+00
 nd#     250  xforce=   0.0000E+00   yforce=   0.0000E+00  zforce=  -1.7121E+02   energy=   5.9733E-03   setid =     250 xmoment=   0.0000E+00 ymoment=   0.0000E+00 zmoment=   0.0000E+00
 nd#     283  xforce=   0.0000E+00   yforce=   0.0000E+00  zforce=  -1.6213E+02   energy=   5.8670E-03   setid =     283 xmoment=   0.0000E+00 ymoment=   0.0000E+00 zmoment=   0.0000E+00
 nd#     284  xforce=   0.0000E+00   yforce=   0.0000E+00  zforce=   2.5323E+02   energy=  -7.1379E-03   setid =     284 xmoment=   0.0000E+00 ymoment=   0.0000E+00 zmoment=   0.0000E+00
 nd#     333  xforce=   0.0000E+00   yforce=   0.0000E+00  zforce=  -6.1842E+01   energy=   2.8198E-03   setid =     333 xmoment=   0.0000E+00 ymoment=   0.0000E+00 zmoment=   0.0000E+00
 nd#     334  xforce=   0.0000E+00   yforce=   0.0000E+00  zforce=  -9.7128E+01   energy=   3.6658E-03   setid =     334 xmoment=   0.0000E+00 ymoment=   0.0000E+00 zmoment=   0.0000E+00
 nd#     335  xforce=   0.0000E+00   yforce=   0.0000E+00  zforce=  -4.6596E+01   energy=   2.5566E-03   setid =     335 xmoment=   0.0000E+00 ymoment=   0.0000E+00 zmoment=   0.0000E+00
 nd#     368  xforce=   0.0000E+00   yforce=   0.0000E+00  zforce=  -1.2186E+02   energy=   4.7934E-03   setid =     368 xmoment=   0.0000E+00 ymoment=   0.0000E+00 zmoment=   0.0000E+00
 nd#     369  xforce=   0.0000E+00   yforce=   0.0000E+00  zforce=  -7.5653E+01   energy=   3.3523E-03   setid =     369 xmoment=   0.0000E+00 ymoment=   0.0000E+00 zmoment=   0.0000E+00
 nd#     386  xforce=   0.0000E+00   yforce=   0.0000E+00  zforce=  -1.8544E+02   energy=   7.0027E-03   setid =     386 xmoment=   0.0000E+00 ymoment=   0.0000E+00 zmoment=   0.0000E+00
 nd#     403  xforce=   0.0000E+00   yforce=   0.0000E+00  zforce=  -8.7623E+01   energy=   3.6416E-03   setid =     403 xmoment=   0.0000E+00 ymoment=   0.0000E+00 zmoment=   0.0000E+00
 nd#     436  xforce=   0.0000E+00   yforce=   0.0000E+00  zforce=  -6.5767E+01   energy=   3.3097E-03   setid =     436 xmoment=   0.0000E+00 ymoment=   0.0000E+00 zmoment=   0.0000E+00
 nd#     437  xforce=   0.0000E+00   yforce=   0.0000E+00  zforce=  -6.5841E+01   energy=   2.8538E-03   setid =     437 xmoment=   0.0000E+00 ymoment=   0.0000E+00 zmoment=   0.0000E+00
 nd#     438  xforce=   0.0000E+00   yforce=   0.0000E+00  zforce=  -6.5586E+01   energy=   2.9379E-03   setid =     438 xmoment=   0.0000E+00 ymoment=   0.0000E+00 zmoment=   0.0000E+00
 nd#     439  xforce=   0.0000E+00   yforce=   0.0000E+00  zforce=  -6.0065E+01   energy=   2.6509E-03   setid =     439 xmoment=   0.0000E+00 ymoment=   0.0000E+00 zmoment=   0.0000E+00
 nd#     440  xforce=   0.0000E+00   yforce=   0.0000E+00  zforce=  -5.6654E+01   energy=   2.4991E-03   setid =     440 xmoment=   0.0000E+00 ymoment=   0.0000E+00 zmoment=   0.0000E+00
 nd#     441  xforce=   0.0000E+00   yforce=   0.0000E+00  zforce=  -5.3776E+01   energy=   2.4327E-03   setid =     441 xmoment=   0.0000E+00 ymoment=   0.0000E+00 zmoment=   0.0000E+00
 nd#     442  xforce=   0.0000E+00   yforce=   0.0000E+00  zforce=  -5.0199E+01   energy=   2.3252E-03   setid =     442 xmoment=   0.0000E+00 ymoment=   0.0000E+00 zmoment=   0.0000E+00
 nd#     443  xforce=   0.0000E+00   yforce=   0.0000E+00  zforce=  -4.1557E+01   energy=   1.9904E-03   setid =     443 xmoment=   0.0000E+00 ymoment=   0.0000E+00 zmoment=   0.0000E+00
 nd#     444  xforce=   0.0000E+00   yforce=   0.0000E+00  zforce=   7.3557E+00   energy=  -1.1311E-04   setid =     444 xmoment=   0.0000E+00 ymoment=   0.0000E+00 zmoment=   0.0000E+00
 nd#     628  xforce=   0.0000E+00   yforce=   0.0000E+00  zforce=  -6.2865E+01   energy=   3.1620E-03   setid =     628 xmoment=   0.0000E+00 ymoment=   0.0000E+00 zmoment=   0.0000E+00
 nd#     631  xforce=   0.0000E+00   yforce=   0.0000E+00  zforce=  -5.7707E+01   energy=   2.9328E-03   setid =     631 xmoment=   0.0000E+00 ymoment=   0.0000E+00 zmoment=   0.0000E+00
 nd#     632  xforce=   0.0000E+00   yforce=   0.0000E+00  zforce=  -9.9994E+01   energy=   4.4262E-03   setid =     632 xmoment=   0.0000E+00 ymoment=   0.0000E+00 zmoment=   0.0000E+00
 nd#     635  xforce=   0.0000E+00   yforce=   0.0000E+00  zforce=  -1.0360E+02   energy=   4.4919E-03   setid =     635 xmoment=   0.0000E+00 ymoment=   0.0000E+00 zmoment=   0.0000E+00
 nd#     636  xforce=   0.0000E+00   yforce=   0.0000E+00  zforce=  -9.3568E+01   energy=   4.2688E-03   setid =     636 xmoment=   0.0000E+00 ymoment=   0.0000E+00 zmoment=   0.0000E+00
 nd#     639  xforce=   0.0000E+00   yforce=   0.0000E+00  zforce=  -8.1875E+01   energy=   3.8244E-03   setid =     639 xmoment=   0.0000E+00 ymoment=   0.0000E+00 zmoment=   0.0000E+00
 nd#     640  xforce=   0.0000E+00   yforce=   0.0000E+00  zforce=  -5.6744E+01   energy=   2.5033E-03   setid =     640 xmoment=   0.0000E+00 ymoment=   0.0000E+00 zmoment=   0.0000E+00
 nd#     643  xforce=   0.0000E+00   yforce=   0.0000E+00  zforce=  -5.7881E+01   energy=   2.5474E-03   setid =     643 xmoment=   0.0000E+00 ymoment=   0.0000E+00 zmoment=   0.0000E+00
 nd#     692  xforce=   0.0000E+00   yforce=   0.0000E+00  zforce=  -7.0409E+01   energy=   3.5448E-03   setid =     692 xmoment=   0.0000E+00 ymoment=   0.0000E+00 zmoment=   0.0000E+00
 nd#     694  xforce=   0.0000E+00   yforce=   0.0000E+00  zforce=  -9.8980E+01   energy=   4.5162E-03   setid =     694 xmoment=   0.0000E+00 ymoment=   0.0000E+00 zmoment=   0.0000E+00
 nd#     696  xforce=   0.0000E+00   yforce=   0.0000E+00  zforce=  -1.0441E+02   energy=   4.6823E-03   setid =     696 xmoment=   0.0000E+00 ymoment=   0.0000E+00 zmoment=   0.0000E+00
 nd#     698  xforce=   0.0000E+00   yforce=   0.0000E+00  zforce=  -5.4676E+01   energy=   2.4633E-03   setid =     698 xmoment=   0.0000E+00 ymoment=   0.0000E+00 zmoment=   0.0000E+00
 nd#     900  xforce=   0.0000E+00   yforce=   0.0000E+00  zforce=  -6.2597E+01   energy=   3.2599E-03   setid =     900 xmoment=   0.0000E+00 ymoment=   0.0000E+00 zmoment=   0.0000E+00
 nd#     902  xforce=   0.0000E+00   yforce=   0.0000E+00  zforce=  -7.5681E+01   energy=   3.7926E-03   setid =     902 xmoment=   0.0000E+00 ymoment=   0.0000E+00 zmoment=   0.0000E+00
 nd#     903  xforce=   0.0000E+00   yforce=   0.0000E+00  zforce=  -8.8694E+01   energy=   4.1276E-03   setid =     903 xmoment=   0.0000E+00 ymoment=   0.0000E+00 zmoment=   0.0000E+00
 nd#     905  xforce=   0.0000E+00   yforce=   0.0000E+00  zforce=  -9.6048E+01   energy=   4.4771E-03   setid =     905 xmoment=   0.0000E+00 ymoment=   0.0000E+00 zmoment=   0.0000E+00
 nd#     906  xforce=   0.0000E+00   yforce=   0.0000E+00  zforce=  -1.1127E+02   energy=   4.9545E-03   setid =     906 xmoment=   0.0000E+00 ymoment=   0.0000E+00 zmoment=   0.0000E+00
 nd#     908  xforce=   0.0000E+00   yforce=   0.0000E+00  zforce=  -1.1224E+02   energy=   5.0392E-03   setid =     908 xmoment=   0.0000E+00 ymoment=   0.0000E+00 zmoment=   0.0000E+00
 nd#     909  xforce=   0.0000E+00   yforce=   0.0000E+00  zforce=  -2.2288E+01   energy=   1.4406E-03   setid =     909 xmoment=   0.0000E+00 ymoment=   0.0000E+00 zmoment=   0.0000E+00
 nd#     911  xforce=   0.0000E+00   yforce=   0.0000E+00  zforce=  -4.6757E+01   energy=   2.2317E-03   setid =     911 xmoment=   0.0000E+00 ymoment=   0.0000E+00 zmoment=   0.0000E+00
 nd#    1012  xforce=   0.0000E+00   yforce=   0.0000E+00  zforce=  -4.7197E+01   energy=   2.6825E-03   setid =    1012 xmoment=   0.0000E+00 ymoment=   0.0000E+00 zmoment=   0.0000E+00
 nd#    1013  xforce=   0.0000E+00   yforce=   0.0000E+00  zforce=  -1.1129E+02   energy=   4.7381E-03   setid =    1013 xmoment=   0.0000E+00 ymoment=   0.0000E+00 zmoment=   0.0000E+00
 nd#    1014  xforce=   0.0000E+00   yforce=   0.0000E+00  zforce=  -7.0739E+01   energy=   3.3644E-03   setid =    1014 xmoment=   0.0000E+00 ymoment=   0.0000E+00 zmoment=   0.0000E+00
 nd#    1015  xforce=   0.0000E+00   yforce=   0.0000E+00  zforce=  -6.0735E+01   energy=   2.6562E-03   setid =    1015 xmoment=   0.0000E+00 ymoment=   0.0000E+00 zmoment=   0.0000E+00
 nd#    1060  xforce=   0.0000E+00   yforce=   0.0000E+00  zforce=   3.9166E+01   energy=  -1.0902E-03   setid =    1060 xmoment=   0.0000E+00 ymoment=   0.0000E+00 zmoment=   0.0000E+00
 nd#    1061  xforce=   0.0000E+00   yforce=   0.0000E+00  zforce=   4.2840E+01   energy=  -1.3246E-03   setid =    1061 xmoment=   0.0000E+00 ymoment=   0.0000E+00 zmoment=   0.0000E+00
 nd#    1062  xforce=   0.0000E+00   yforce=   0.0000E+00  zforce=   6.0518E+01   energy=  -2.0803E-03   setid =    1062 xmoment=   0.0000E+00 ymoment=   0.0000E+00 zmoment=   0.0000E+00
 nd#    1063  xforce=   0.0000E+00   yforce=   0.0000E+00  zforce=   5.8407E+01   energy=  -2.1076E-03   setid =    1063 xmoment=   0.0000E+00 ymoment=   0.0000E+00 zmoment=   0.0000E+00
              xtotal=   0.0000E+00   ytotal=   0.0000E+00  ztotal=  -3.3728E+03   etotal=   1.5621E-01

 n o d a l   f o r c e/e n e r g y    o u t p u t  t=   4.30621E+00

 velocity boundary condition forces/rigid body moments 

 nd#     179  xforce=   0.0000E+00   yforce=   0.0000E+00  zforce=  -1.2040E+02   energy=   6.9488E-03   setid =     179 xmoment=   0.0000E+00 ymoment=   0.0000E+00 zmoment=   0.0000E+00
 nd#     180  xforce=   0.0000E+00   yforce=   0.0000E+00  zforce=  -1.8072E+02   energy=   1.0306E-02   setid =     180 xmoment=   0.0000E+00 ymoment=   0.0000E+00 zmoment=   0.0000E+00
 nd#     181  xforce=   0.0000E+00   yforce=   0.0000E+00  zforce=  -2.4385E+01   energy=   2.4901E-03   setid =     181 xmoment=   0.0000E+00 ymoment=   0.0000E+00 zmoment=   0.0000E+00
 nd#     182  xforce=   0.0000E+00   yforce=   0.0000E+00  zforce=  -1.9423E+01   energy=   1.5576E-03   setid =     182 xmoment=   0.0000E+00 ymoment=   0.0000E+00 zmoment=   0.0000E+00
 nd#     247  xforce=   0.0000E+00   yforce=   0.0000E+00  zforce=  -2.5884E+02   energy=   1.3409E-02   setid =     247 xmoment=   0.0000E+00 ymoment=   0.0000E+00 zmoment=   0.0000E+00
 nd#     248  xforce=   0.0000E+00   yforce=   0.0000E+00  zforce=   9.2599E+01   energy=  -4.2919E-03   setid =     248 xmoment=   0.0000E+00 ymoment=   0.0000E+00 zmoment=   0.0000E+00
 nd#     249  xforce=   0.0000E+00   yforce=   0.0000E+00  zforce=  -5.5269E+01   energy=   2.8551E-03   setid =     249 xmoment=   0.0000E+00 ymoment=   0.0000E+00 zmoment=   0.0000E+00
 nd#     250  xforce=   0.0000E+00   yforce=   0.0000E+00  zforce=  -1.7623E+02   energy=   9.1833E-03   setid =     250 xmoment=   0.0000E+00 ymoment=   0.0000E+00 zmoment=   0.0000E+00
 nd#     283  xforce=   0.0000E+00   yforce=   0.0000E+00  zforce=  -1.7341E+02   energy=   8.9671E-03   setid =     283 xmoment=   0.0000E+00 ymoment=   0.0000E+00 zmoment=   0.0000E+00
 nd#     284  xforce=   0.0000E+00   yforce=   0.0000E+00  zforce=   2.4170E+02   energy=  -1.1711E-02   setid =     284 xmoment=   0.0000E+00 ymoment=   0.0000E+00 zmoment=   0.0000E+00
 nd#     333  xforce=   0.0000E+00   yforce=   0.0000E+00  zforce=  -5.0821E+01   energy=   3.8607E-03   setid =     333 xmoment=   0.0000E+00 ymoment=   0.0000E+00 zmoment=   0.0000E+00
 nd#     334  xforce=   0.0000E+00   yforce=   0.0000E+00  zforce=  -8.8248E+01   energy=   5.3785E-03   setid =     334 xmoment=   0.0000E+00 ymoment=   0.0000E+00 zmoment=   0.0000E+00
 nd#     335  xforce=   0.0000E+00   yforce=   0.0000E+00  zforce=  -4.7491E+01   energy=   3.4259E-03   setid =     335 xmoment=   0.0000E+00 ymoment=   0.0000E+00 zmoment=   0.0000E+00
 nd#     368  xforce=   0.0000E+00   yforce=   0.0000E+00  zforce=  -1.1752E+02   energy=   7.0050E-03   setid =     368 xmoment=   0.0000E+00 ymoment=   0.0000E+00 zmoment=   0.0000E+00
 nd#     369  xforce=   0.0000E+00   yforce=   0.0000E+00  zforce=  -7.6971E+01   energy=   4.7624E-03   setid =     369 xmoment=   0.0000E+00 ymoment=   0.0000E+00 zmoment=   0.0000E+00
 nd#     386  xforce=   0.0000E+00   yforce=   0.0000E+00  zforce=  -1.8829E+02   energy=   1.0456E-02   setid =     386 xmoment=   0.0000E+00 ymoment=   0.0000E+00 zmoment=   0.0000E+00
 nd#     403  xforce=   0.0000E+00   yforce=   0.0000E+00  zforce=  -9.1874E+01   energy=   5.3001E-03   setid =     403 xmoment=   0.0000E+00 ymoment=   0.0000E+00 zmoment=   0.0000E+00
 nd#     436  xforce=   0.0000E+00   yforce=   0.0000E+00  zforce=  -7.0625E+01   energy=   4.5699E-03   setid =     436 xmoment=   0.0000E+00 ymoment=   0.0000E+00 zmoment=   0.0000E+00
 nd#     437  xforce=   0.0000E+00   yforce=   0.0000E+00  zforce=  -6.8740E+01   energy=   4.0973E-03   setid =     437 xmoment=   0.0000E+00 ymoment=   0.0000E+00 zmoment=   0.0000E+00
 nd#     438  xforce=   0.0000E+00   yforce=   0.0000E+00  zforce=  -6.8287E+01   energy=   4.1748E-03   setid =     438 xmoment=   0.0000E+00 ymoment=   0.0000E+00 zmoment=   0.0000E+00
 nd#     439  xforce=   0.0000E+00   yforce=   0.0000E+00  zforce=  -6.1554E+01   energy=   3.7746E-03   setid =     439 xmoment=   0.0000E+00 ymoment=   0.0000E+00 zmoment=   0.0000E+00
 nd#     440  xforce=   0.0000E+00   yforce=   0.0000E+00  zforce=  -5.7834E+01   energy=   3.5569E-03   setid =     440 xmoment=   0.0000E+00 ymoment=   0.0000E+00 zmoment=   0.0000E+00
 nd#     441  xforce=   0.0000E+00   yforce=   0.0000E+00  zforce=  -5.4884E+01   energy=   3.4366E-03   setid =     441 xmoment=   0.0000E+00 ymoment=   0.0000E+00 zmoment=   0.0000E+00
 nd#     442  xforce=   0.0000E+00   yforce=   0.0000E+00  zforce=  -5.1098E+01   energy=   3.2611E-03   setid =     442 xmoment=   0.0000E+00 ymoment=   0.0000E+00 zmoment=   0.0000E+00
 nd#     443  xforce=   0.0000E+00   yforce=   0.0000E+00  zforce=  -4.0354E+01   energy=   2.7472E-03   setid =     443 xmoment=   0.0000E+00 ymoment=   0.0000E+00 zmoment=   0.0000E+00
 nd#     444  xforce=   0.0000E+00   yforce=   0.0000E+00  zforce=   7.6235E+00   energy=  -2.5151E-04   setid =     444 xmoment=   0.0000E+00 ymoment=   0.0000E+00 zmoment=   0.0000E+00
 nd#     628  xforce=   0.0000E+00   yforce=   0.0000E+00  zforce=  -6.8691E+01   energy=   4.3775E-03   setid =     628 xmoment=   0.0000E+00 ymoment=   0.0000E+00 zmoment=   0.0000E+00
 nd#     631  xforce=   0.0000E+00   yforce=   0.0000E+00  zforce=  -6.3833E+01   energy=   4.0558E-03   setid =     631 xmoment=   0.0000E+00 ymoment=   0.0000E+00 zmoment=   0.0000E+00
 nd#     632  xforce=   0.0000E+00   yforce=   0.0000E+00  zforce=  -1.0294E+02   energy=   6.3011E-03   setid =     632 xmoment=   0.0000E+00 ymoment=   0.0000E+00 zmoment=   0.0000E+00
 nd#     635  xforce=   0.0000E+00   yforce=   0.0000E+00  zforce=  -1.0788E+02   energy=   6.4457E-03   setid =     635 xmoment=   0.0000E+00 ymoment=   0.0000E+00 zmoment=   0.0000E+00
 nd#     636  xforce=   0.0000E+00   yforce=   0.0000E+00  zforce=  -9.6130E+01   energy=   6.0214E-03   setid =     636 xmoment=   0.0000E+00 ymoment=   0.0000E+00 zmoment=   0.0000E+00
 nd#     639  xforce=   0.0000E+00   yforce=   0.0000E+00  zforce=  -8.5118E+01   energy=   5.3673E-03   setid =     639 xmoment=   0.0000E+00 ymoment=   0.0000E+00 zmoment=   0.0000E+00
 nd#     640  xforce=   0.0000E+00   yforce=   0.0000E+00  zforce=  -5.8462E+01   energy=   3.5677E-03   setid =     640 xmoment=   0.0000E+00 ymoment=   0.0000E+00 zmoment=   0.0000E+00
 nd#     643  xforce=   0.0000E+00   yforce=   0.0000E+00  zforce=  -6.0335E+01   energy=   3.6397E-03   setid =     643 xmoment=   0.0000E+00 ymoment=   0.0000E+00 zmoment=   0.0000E+00
 nd#     692  xforce=   0.0000E+00   yforce=   0.0000E+00  zforce=  -7.4610E+01   energy=   4.8847E-03   setid =     692 xmoment=   0.0000E+00 ymoment=   0.0000E+00 zmoment=   0.0000E+00
 nd#     694  xforce=   0.0000E+00   yforce=   0.0000E+00  zforce=  -1.0324E+02   energy=   6.3845E-03   setid =     694 xmoment=   0.0000E+00 ymoment=   0.0000E+00 zmoment=   0.0000E+00
 nd#     696  xforce=   0.0000E+00   yforce=   0.0000E+00  zforce=  -1.0717E+02   energy=   6.6372E-03   setid =     696 xmoment=   0.0000E+00 ymoment=   0.0000E+00 zmoment=   0.0000E+00
 nd#     698  xforce=   0.0000E+00   yforce=   0.0000E+00  zforce=  -5.6455E+01   energy=   3.4900E-03   setid =     698 xmoment=   0.0000E+00 ymoment=   0.0000E+00 zmoment=   0.0000E+00
 nd#     900  xforce=   0.0000E+00   yforce=   0.0000E+00  zforce=  -6.2384E+01   energy=   4.4147E-03   setid =     900 xmoment=   0.0000E+00 ymoment=   0.0000E+00 zmoment=   0.0000E+00
 nd#     902  xforce=   0.0000E+00   yforce=   0.0000E+00  zforce=  -7.9877E+01   energy=   5.2298E-03   setid =     902 xmoment=   0.0000E+00 ymoment=   0.0000E+00 zmoment=   0.0000E+00
 nd#     903  xforce=   0.0000E+00   yforce=   0.0000E+00  zforce=  -8.9039E+01   energy=   5.7698E-03   setid =     903 xmoment=   0.0000E+00 ymoment=   0.0000E+00 zmoment=   0.0000E+00
 nd#     905  xforce=   0.0000E+00   yforce=   0.0000E+00  zforce=  -1.0209E+02   energy=   6.3078E-03   setid =     905 xmoment=   0.0000E+00 ymoment=   0.0000E+00 zmoment=   0.0000E+00
 nd#     906  xforce=   0.0000E+00   yforce=   0.0000E+00  zforce=  -1.1300E+02   energy=   7.0266E-03   setid =     906 xmoment=   0.0000E+00 ymoment=   0.0000E+00 zmoment=   0.0000E+00
 nd#     908  xforce=   0.0000E+00   yforce=   0.0000E+00  zforce=  -1.2066E+02   energy=   7.1911E-03   setid =     908 xmoment=   0.0000E+00 ymoment=   0.0000E+00 zmoment=   0.0000E+00
 nd#     909  xforce=   0.0000E+00   yforce=   0.0000E+00  zforce=  -2.4238E+01   energy=   1.8704E-03   setid =     909 xmoment=   0.0000E+00 ymoment=   0.0000E+00 zmoment=   0.0000E+00
 nd#     911  xforce=   0.0000E+00   yforce=   0.0000E+00  zforce=  -4.9206E+01   energy=   3.1184E-03   setid =     911 xmoment=   0.0000E+00 ymoment=   0.0000E+00 zmoment=   0.0000E+00
 nd#    1012  xforce=   0.0000E+00   yforce=   0.0000E+00  zforce=  -5.5447E+01   energy=   3.6308E-03   setid =    1012 xmoment=   0.0000E+00 ymoment=   0.0000E+00 zmoment=   0.0000E+00
 nd#    1013  xforce=   0.0000E+00   yforce=   0.0000E+00  zforce=  -1.1767E+02   energy=   6.8535E-03   setid =    1013 xmoment=   0.0000E+00 ymoment=   0.0000E+00 zmoment=   0.0000E+00
 nd#    1014  xforce=   0.0000E+00   yforce=   0.0000E+00  zforce=  -7.4040E+01   energy=   4.7021E-03   setid =    1014 xmoment=   0.0000E+00 ymoment=   0.0000E+00 zmoment=   0.0000E+00
 nd#    1015  xforce=   0.0000E+00   yforce=   0.0000E+00  zforce=  -6.3987E+01   energy=   3.8085E-03   setid =    1015 xmoment=   0.0000E+00 ymoment=   0.0000E+00 zmoment=   0.0000E+00
 nd#    1060  xforce=   0.0000E+00   yforce=   0.0000E+00  zforce=   4.1070E+01   energy=  -1.8315E-03   setid =    1060 xmoment=   0.0000E+00 ymoment=   0.0000E+00 zmoment=   0.0000E+00
 nd#    1061  xforce=   0.0000E+00   yforce=   0.0000E+00  zforce=   4.7734E+01   energy=  -2.1614E-03   setid =    1061 xmoment=   0.0000E+00 ymoment=   0.0000E+00 zmoment=   0.0000E+00
 nd#    1062  xforce=   0.0000E+00   yforce=   0.0000E+00  zforce=   7.7216E+01   energy=  -3.3529E-03   setid =    1062 xmoment=   0.0000E+00 ymoment=   0.0000E+00 zmoment=   0.0000E+00
 nd#    1063  xforce=   0.0000E+00   yforce=   0.0000E+00  zforce=   6.1504E+01   energy=  -3.2155E-03   setid =    1063 xmoment=   0.0000E+00 ymoment=   0.0000E+00 zmoment=   0.0000E+00
              xtotal=   0.0000E+00   ytotal=   0.0000E+00  ztotal=  -3.5103E+03   etotal=   2.1980E-01

 n o d a l   f o r c e/e n e r g y    o u t p u t  t=   5.77053E+00

 velocity boundary condition forces/rigid body moments 

 nd#     179  xforce=   0.0000E+00   yforce=   0.0000E+00  zforce=  -1.2442E+02   energy=   1.0534E-02   setid =     179 xmoment=   0.0000E+00 ymoment=   0.0000E+00 zmoment=   0.0000E+00
 nd#     180  xforce=   0.0000E+00   yforce=   0.0000E+00  zforce=  -1.7763E+02   energy=   1.5553E-02   setid =     180 xmoment=   0.0000E+00 ymoment=   0.0000E+00 zmoment=   0.0000E+00
 nd#     181  xforce=   0.0000E+00   yforce=   0.0000E+00  zforce=  -5.0119E+01   energy=   3.5811E-03   setid =     181 xmoment=   0.0000E+00 ymoment=   0.0000E+00 zmoment=   0.0000E+00
 nd#     182  xforce=   0.0000E+00   yforce=   0.0000E+00  zforce=  -4.4640E+01   energy=   2.4957E-03   setid =     182 xmoment=   0.0000E+00 ymoment=   0.0000E+00 zmoment=   0.0000E+00
 nd#     247  xforce=   0.0000E+00   yforce=   0.0000E+00  zforce=  -1.9842E+02   energy=   2.0105E-02   setid =     247 xmoment=   0.0000E+00 ymoment=   0.0000E+00 zmoment=   0.0000E+00
 nd#     248  xforce=   0.0000E+00   yforce=   0.0000E+00  zforce=   3.4076E+01   energy=  -6.1468E-03   setid =     248 xmoment=   0.0000E+00 ymoment=   0.0000E+00 zmoment=   0.0000E+00
 nd#     249  xforce=   0.0000E+00   yforce=   0.0000E+00  zforce=  -9.1882E+01   energy=   5.0099E-03   setid =     249 xmoment=   0.0000E+00 ymoment=   0.0000E+00 zmoment=   0.0000E+00
 nd#     250  xforce=   0.0000E+00   yforce=   0.0000E+00  zforce=  -1.4749E+02   energy=   1.3924E-02   setid =     250 xmoment=   0.0000E+00 ymoment=   0.0000E+00 zmoment=   0.0000E+00
 nd#     283  xforce=   0.0000E+00   yforce=   0.0000E+00  zforce=  -1.3838E+02   energy=   1.3533E-02   setid =     283 xmoment=   0.0000E+00 ymoment=   0.0000E+00 zmoment=   0.0000E+00
 nd#     284  xforce=   0.0000E+00   yforce=   0.0000E+00  zforce=   1.6062E+02   energy=  -1.7602E-02   setid =     284 xmoment=   0.0000E+00 ymoment=   0.0000E+00 zmoment=   0.0000E+00
 nd#     333  xforce=   0.0000E+00   yforce=   0.0000E+00  zforce=  -2.2948E+01   energy=   4.9409E-03   setid =     333 xmoment=   0.0000E+00 ymoment=   0.0000E+00 zmoment=   0.0000E+00
 nd#     334  xforce=   0.0000E+00   yforce=   0.0000E+00  zforce=  -8.4047E+01   energy=   7.9014E-03   setid =     334 xmoment=   0.0000E+00 ymoment=   0.0000E+00 zmoment=   0.0000E+00
 nd#     335  xforce=   0.0000E+00   yforce=   0.0000E+00  zforce=  -6.8090E+01   energy=   5.1184E-03   setid =     335 xmoment=   0.0000E+00 ymoment=   0.0000E+00 zmoment=   0.0000E+00
 nd#     368  xforce=   0.0000E+00   yforce=   0.0000E+00  zforce=  -8.6778E+01   energy=   9.9966E-03   setid =     368 xmoment=   0.0000E+00 ymoment=   0.0000E+00 zmoment=   0.0000E+00
 nd#     369  xforce=   0.0000E+00   yforce=   0.0000E+00  zforce=  -7.6308E+01   energy=   7.0069E-03   setid =     369 xmoment=   0.0000E+00 ymoment=   0.0000E+00 zmoment=   0.0000E+00
 nd#     386  xforce=   0.0000E+00   yforce=   0.0000E+00  zforce=  -1.4982E+02   energy=   1.5407E-02   setid =     386 xmoment=   0.0000E+00 ymoment=   0.0000E+00 zmoment=   0.0000E+00
 nd#     403  xforce=   0.0000E+00   yforce=   0.0000E+00  zforce=  -8.1602E+01   energy=   7.8403E-03   setid =     403 xmoment=   0.0000E+00 ymoment=   0.0000E+00 zmoment=   0.0000E+00
 nd#     436  xforce=   0.0000E+00   yforce=   0.0000E+00  zforce=  -8.2647E+01   energy=   6.8143E-03   setid =     436 xmoment=   0.0000E+00 ymoment=   0.0000E+00 zmoment=   0.0000E+00
 nd#     437  xforce=   0.0000E+00   yforce=   0.0000E+00  zforce=  -6.6720E+01   energy=   6.0808E-03   setid =     437 xmoment=   0.0000E+00 ymoment=   0.0000E+00 zmoment=   0.0000E+00
 nd#     438  xforce=   0.0000E+00   yforce=   0.0000E+00  zforce=  -6.2865E+01   energy=   6.0953E-03   setid =     438 xmoment=   0.0000E+00 ymoment=   0.0000E+00 zmoment=   0.0000E+00
 nd#     439  xforce=   0.0000E+00   yforce=   0.0000E+00  zforce=  -5.7401E+01   energy=   5.5165E-03   setid =     439 xmoment=   0.0000E+00 ymoment=   0.0000E+00 zmoment=   0.0000E+00
 nd#     440  xforce=   0.0000E+00   yforce=   0.0000E+00  zforce=  -5.4944E+01   energy=   5.2083E-03   setid =     440 xmoment=   0.0000E+00 ymoment=   0.0000E+00 zmoment=   0.0000E+00
 nd#     441  xforce=   0.0000E+00   yforce=   0.0000E+00  zforce=  -5.3463E+01   energy=   5.0232E-03   setid =     441 xmoment=   0.0000E+00 ymoment=   0.0000E+00 zmoment=   0.0000E+00
 nd#     442  xforce=   0.0000E+00   yforce=   0.0000E+00  zforce=  -5.0936E+01   energy=   4.7552E-03   setid =     442 xmoment=   0.0000E+00 ymoment=   0.0000E+00 zmoment=   0.0000E+00
 nd#     443  xforce=   0.0000E+00   yforce=   0.0000E+00  zforce=  -4.1415E+01   energy=   3.9446E-03   setid =     443 xmoment=   0.0000E+00 ymoment=   0.0000E+00 zmoment=   0.0000E+00
 nd#     444  xforce=   0.0000E+00   yforce=   0.0000E+00  zforce=   8.6001E+00   energy=  -4.8907E-04   setid =     444 xmoment=   0.0000E+00 ymoment=   0.0000E+00 zmoment=   0.0000E+00
 nd#     628  xforce=   0.0000E+00   yforce=   0.0000E+00  zforce=  -7.7658E+01   energy=   6.5205E-03   setid =     628 xmoment=   0.0000E+00 ymoment=   0.0000E+00 zmoment=   0.0000E+00
 nd#     631  xforce=   0.0000E+00   yforce=   0.0000E+00  zforce=  -7.2634E+01   energy=   6.0541E-03   setid =     631 xmoment=   0.0000E+00 ymoment=   0.0000E+00 zmoment=   0.0000E+00
 nd#     632  xforce=   0.0000E+00   yforce=   0.0000E+00  zforce=  -1.0851E+02   energy=   9.3975E-03   setid =     632 xmoment=   0.0000E+00 ymoment=   0.0000E+00 zmoment=   0.0000E+00
 nd#     635  xforce=   0.0000E+00   yforce=   0.0000E+00  zforce=  -1.1021E+02   energy=   9.6393E-03   setid =     635 xmoment=   0.0000E+00 ymoment=   0.0000E+00 zmoment=   0.0000E+00
 nd#     636  xforce=   0.0000E+00   yforce=   0.0000E+00  zforce=  -1.0399E+02   energy=   8.9518E-03   setid =     636 xmoment=   0.0000E+00 ymoment=   0.0000E+00 zmoment=   0.0000E+00
 nd#     639  xforce=   0.0000E+00   yforce=   0.0000E+00  zforce=  -9.2634E+01   energy=   7.9702E-03   setid =     639 xmoment=   0.0000E+00 ymoment=   0.0000E+00 zmoment=   0.0000E+00
 nd#     640  xforce=   0.0000E+00   yforce=   0.0000E+00  zforce=  -5.9754E+01   energy=   5.2988E-03   setid =     640 xmoment=   0.0000E+00 ymoment=   0.0000E+00 zmoment=   0.0000E+00
 nd#     643  xforce=   0.0000E+00   yforce=   0.0000E+00  zforce=  -6.1264E+01   energy=   5.4203E-03   setid =     643 xmoment=   0.0000E+00 ymoment=   0.0000E+00 zmoment=   0.0000E+00
 nd#     692  xforce=   0.0000E+00   yforce=   0.0000E+00  zforce=  -8.2992E+01   energy=   7.1925E-03   setid =     692 xmoment=   0.0000E+00 ymoment=   0.0000E+00 zmoment=   0.0000E+00
 nd#     694  xforce=   0.0000E+00   yforce=   0.0000E+00  zforce=  -1.0829E+02   energy=   9.4820E-03   setid =     694 xmoment=   0.0000E+00 ymoment=   0.0000E+00 zmoment=   0.0000E+00
 nd#     696  xforce=   0.0000E+00   yforce=   0.0000E+00  zforce=  -1.1282E+02   energy=   9.8586E-03   setid =     696 xmoment=   0.0000E+00 ymoment=   0.0000E+00 zmoment=   0.0000E+00
 nd#     698  xforce=   0.0000E+00   yforce=   0.0000E+00  zforce=  -5.8224E+01   energy=   5.1693E-03   setid =     698 xmoment=   0.0000E+00 ymoment=   0.0000E+00 zmoment=   0.0000E+00
 nd#     900  xforce=   0.0000E+00   yforce=   0.0000E+00  zforce=  -6.8681E+01   energy=   6.3339E-03   setid =     900 xmoment=   0.0000E+00 ymoment=   0.0000E+00 zmoment=   0.0000E+00
 nd#     902  xforce=   0.0000E+00   yforce=   0.0000E+00  zforce=  -8.6896E+01   energy=   7.6719E-03   setid =     902 xmoment=   0.0000E+00 ymoment=   0.0000E+00 zmoment=   0.0000E+00
 nd#     903  xforce=   0.0000E+00   yforce=   0.0000E+00  zforce=  -9.4783E+01   energy=   8.4615E-03   setid =     903 xmoment=   0.0000E+00 ymoment=   0.0000E+00 zmoment=   0.0000E+00
 nd#     905  xforce=   0.0000E+00   yforce=   0.0000E+00  zforce=  -1.0689E+02   energy=   9.3680E-03   setid =     905 xmoment=   0.0000E+00 ymoment=   0.0000E+00 zmoment=   0.0000E+00
 nd#     906  xforce=   0.0000E+00   yforce=   0.0000E+00  zforce=  -1.1653E+02   energy=   1.0388E-02   setid =     906 xmoment=   0.0000E+00 ymoment=   0.0000E+00 zmoment=   0.0000E+00
 nd#     908  xforce=   0.0000E+00   yforce=   0.0000E+00  zforce=  -1.2499E+02   energy=   1.0788E-02   setid =     908 xmoment=   0.0000E+00 ymoment=   0.0000E+00 zmoment=   0.0000E+00
 nd#     909  xforce=   0.0000E+00   yforce=   0.0000E+00  zforce=  -2.4287E+01   energy=   2.5810E-03   setid =     909 xmoment=   0.0000E+00 ymoment=   0.0000E+00 zmoment=   0.0000E+00
 nd#     911  xforce=   0.0000E+00   yforce=   0.0000E+00  zforce=  -5.0133E+01   energy=   4.5730E-03   setid =     911 xmoment=   0.0000E+00 ymoment=   0.0000E+00 zmoment=   0.0000E+00
 nd#    1012  xforce=   0.0000E+00   yforce=   0.0000E+00  zforce=  -6.6978E+01   energy=   5.4235E-03   setid =    1012 xmoment=   0.0000E+00 ymoment=   0.0000E+00 zmoment=   0.0000E+00
 nd#    1013  xforce=   0.0000E+00   yforce=   0.0000E+00  zforce=  -1.1625E+02   energy=   1.0279E-02   setid =    1013 xmoment=   0.0000E+00 ymoment=   0.0000E+00 zmoment=   0.0000E+00
 nd#    1014  xforce=   0.0000E+00   yforce=   0.0000E+00  zforce=  -8.2724E+01   energy=   6.9976E-03   setid =    1014 xmoment=   0.0000E+00 ymoment=   0.0000E+00 zmoment=   0.0000E+00
 nd#    1015  xforce=   0.0000E+00   yforce=   0.0000E+00  zforce=  -6.2999E+01   energy=   5.6680E-03   setid =    1015 xmoment=   0.0000E+00 ymoment=   0.0000E+00 zmoment=   0.0000E+00
 nd#    1060  xforce=   0.0000E+00   yforce=   0.0000E+00  zforce=   4.3242E+01   energy=  -3.0661E-03   setid =    1060 xmoment=   0.0000E+00 ymoment=   0.0000E+00 zmoment=   0.0000E+00
 nd#    1061  xforce=   0.0000E+00   yforce=   0.0000E+00  zforce=   5.0959E+01   energy=  -3.6066E-03   setid =    1061 xmoment=   0.0000E+00 ymoment=   0.0000E+00 zmoment=   0.0000E+00
 nd#    1062  xforce=   0.0000E+00   yforce=   0.0000E+00  zforce=   7.8677E+01   energy=  -5.6357E-03   setid =    1062 xmoment=   0.0000E+00 ymoment=   0.0000E+00 zmoment=   0.0000E+00
 nd#    1063  xforce=   0.0000E+00   yforce=   0.0000E+00  zforce=   5.9284E+01   energy=  -4.9843E-03   setid =    1063 xmoment=   0.0000E+00 ymoment=   0.0000E+00 zmoment=   0.0000E+00
              xtotal=   0.0000E+00   ytotal=   0.0000E+00  ztotal=  -3.6286E+03   etotal=   3.2434E-01

 n o d a l   f o r c e/e n e r g y    o u t p u t  t=   7.23486E+00

 velocity boundary condition forces/rigid body moments 

 nd#     179  xforce=   0.0000E+00   yforce=   0.0000E+00  zforce=  -1.3403E+02   energy=   1.4318E-02   setid =     179 xmoment=   0.0000E+00 ymoment=   0.0000E+00 zmoment=   0.0000E+00
 nd#     180  xforce=   0.0000E+00   yforce=   0.0000E+00  zforce=  -1.8937E+02   energy=   2.0927E-02   setid =     180 xmoment=   0.0000E+00 ymoment=   0.0000E+00 zmoment=   0.0000E+00
 nd#     181  xforce=   0.0000E+00   yforce=   0.0000E+00  zforce=  -4.7301E+01   energy=   5.0077E-03   setid =     181 xmoment=   0.0000E+00 ymoment=   0.0000E+00 zmoment=   0.0000E+00
 nd#     182  xforce=   0.0000E+00   yforce=   0.0000E+00  zforce=  -4.0340E+01   energy=   3.7400E-03   setid =     182 xmoment=   0.0000E+00 ymoment=   0.0000E+00 zmoment=   0.0000E+00
 nd#     247  xforce=   0.0000E+00   yforce=   0.0000E+00  zforce=  -2.1800E+02   energy=   2.6203E-02   setid =     247 xmoment=   0.0000E+00 ymoment=   0.0000E+00 zmoment=   0.0000E+00
 nd#     248  xforce=   0.0000E+00   yforce=   0.0000E+00  zforce=   4.7408E+01   energy=  -7.3400E-03   setid =     248 xmoment=   0.0000E+00 ymoment=   0.0000E+00 zmoment=   0.0000E+00
 nd#     249  xforce=   0.0000E+00   yforce=   0.0000E+00  zforce=  -9.3137E+01   energy=   7.7191E-03   setid =     249 xmoment=   0.0000E+00 ymoment=   0.0000E+00 zmoment=   0.0000E+00
 nd#     250  xforce=   0.0000E+00   yforce=   0.0000E+00  zforce=  -1.6277E+02   energy=   1.8467E-02   setid =     250 xmoment=   0.0000E+00 ymoment=   0.0000E+00 zmoment=   0.0000E+00
 nd#     283  xforce=   0.0000E+00   yforce=   0.0000E+00  zforce=  -1.4931E+02   energy=   1.7745E-02   setid =     283 xmoment=   0.0000E+00 ymoment=   0.0000E+00 zmoment=   0.0000E+00
 nd#     284  xforce=   0.0000E+00   yforce=   0.0000E+00  zforce=   1.8992E+02   energy=  -2.2735E-02   setid =     284 xmoment=   0.0000E+00 ymoment=   0.0000E+00 zmoment=   0.0000E+00
 nd#     333  xforce=   0.0000E+00   yforce=   0.0000E+00  zforce=  -3.0916E+01   energy=   5.7297E-03   setid =     333 xmoment=   0.0000E+00 ymoment=   0.0000E+00 zmoment=   0.0000E+00
 nd#     334  xforce=   0.0000E+00   yforce=   0.0000E+00  zforce=  -8.5705E+01   energy=   1.0387E-02   setid =     334 xmoment=   0.0000E+00 ymoment=   0.0000E+00 zmoment=   0.0000E+00
 nd#     335  xforce=   0.0000E+00   yforce=   0.0000E+00  zforce=  -6.3487E+01   energy=   7.0451E-03   setid =     335 xmoment=   0.0000E+00 ymoment=   0.0000E+00 zmoment=   0.0000E+00
 nd#     368  xforce=   0.0000E+00   yforce=   0.0000E+00  zforce=  -1.0082E+02   energy=   1.2744E-02   setid =     368 xmoment=   0.0000E+00 ymoment=   0.0000E+00 zmoment=   0.0000E+00
 nd#     369  xforce=   0.0000E+00   yforce=   0.0000E+00  zforce=  -7.9766E+01   energy=   9.2923E-03   setid =     369 xmoment=   0.0000E+00 ymoment=   0.0000E+00 zmoment=   0.0000E+00
 nd#     386  xforce=   0.0000E+00   yforce=   0.0000E+00  zforce=  -1.7076E+02   energy=   2.0101E-02   setid =     386 xmoment=   0.0000E+00 ymoment=   0.0000E+00 zmoment=   0.0000E+00
 nd#     403  xforce=   0.0000E+00   yforce=   0.0000E+00  zforce=  -8.7474E+01   energy=   1.0316E-02   setid =     403 xmoment=   0.0000E+00 ymoment=   0.0000E+00 zmoment=   0.0000E+00
 nd#     436  xforce=   0.0000E+00   yforce=   0.0000E+00  zforce=  -8.4702E+01   energy=   9.2648E-03   setid =     436 xmoment=   0.0000E+00 ymoment=   0.0000E+00 zmoment=   0.0000E+00
 nd#     437  xforce=   0.0000E+00   yforce=   0.0000E+00  zforce=  -7.1101E+01   energy=   8.0990E-03   setid =     437 xmoment=   0.0000E+00 ymoment=   0.0000E+00 zmoment=   0.0000E+00
 nd#     438  xforce=   0.0000E+00   yforce=   0.0000E+00  zforce=  -6.7443E+01   energy=   8.0034E-03   setid =     438 xmoment=   0.0000E+00 ymoment=   0.0000E+00 zmoment=   0.0000E+00
 nd#     439  xforce=   0.0000E+00   yforce=   0.0000E+00  zforce=  -6.2309E+01   energy=   7.2694E-03   setid =     439 xmoment=   0.0000E+00 ymoment=   0.0000E+00 zmoment=   0.0000E+00
 nd#     440  xforce=   0.0000E+00   yforce=   0.0000E+00  zforce=  -5.9032E+01   energy=   6.8773E-03   setid =     440 xmoment=   0.0000E+00 ymoment=   0.0000E+00 zmoment=   0.0000E+00
 nd#     441  xforce=   0.0000E+00   yforce=   0.0000E+00  zforce=  -5.6564E+01   energy=   6.6343E-03   setid =     441 xmoment=   0.0000E+00 ymoment=   0.0000E+00 zmoment=   0.0000E+00
 nd#     442  xforce=   0.0000E+00   yforce=   0.0000E+00  zforce=  -5.2796E+01   energy=   6.2741E-03   setid =     442 xmoment=   0.0000E+00 ymoment=   0.0000E+00 zmoment=   0.0000E+00
 nd#     443  xforce=   0.0000E+00   yforce=   0.0000E+00  zforce=  -4.1132E+01   energy=   5.1534E-03   setid =     443 xmoment=   0.0000E+00 ymoment=   0.0000E+00 zmoment=   0.0000E+00
 nd#     444  xforce=   0.0000E+00   yforce=   0.0000E+00  zforce=   9.6572E+00   energy=  -7.5642E-04   setid =     444 xmoment=   0.0000E+00 ymoment=   0.0000E+00 zmoment=   0.0000E+00
 nd#     628  xforce=   0.0000E+00   yforce=   0.0000E+00  zforce=  -7.8294E+01   energy=   8.8041E-03   setid =     628 xmoment=   0.0000E+00 ymoment=   0.0000E+00 zmoment=   0.0000E+00
 nd#     631  xforce=   0.0000E+00   yforce=   0.0000E+00  zforce=  -7.2359E+01   energy=   8.1772E-03   setid =     631 xmoment=   0.0000E+00 ymoment=   0.0000E+00 zmoment=   0.0000E+00
 nd#     632  xforce=   0.0000E+00   yforce=   0.0000E+00  zforce=  -1.1441E+02   energy=   1.2662E-02   setid =     632 xmoment=   0.0000E+00 ymoment=   0.0000E+00 zmoment=   0.0000E+00
 nd#     635  xforce=   0.0000E+00   yforce=   0.0000E+00  zforce=  -1.1754E+02   energy=   1.2974E-02   setid =     635 xmoment=   0.0000E+00 ymoment=   0.0000E+00 zmoment=   0.0000E+00
 nd#     636  xforce=   0.0000E+00   yforce=   0.0000E+00  zforce=  -1.0630E+02   energy=   1.2031E-02   setid =     636 xmoment=   0.0000E+00 ymoment=   0.0000E+00 zmoment=   0.0000E+00
 nd#     639  xforce=   0.0000E+00   yforce=   0.0000E+00  zforce=  -9.6472E+01   energy=   1.0739E-02   setid =     639 xmoment=   0.0000E+00 ymoment=   0.0000E+00 zmoment=   0.0000E+00
 nd#     640  xforce=   0.0000E+00   yforce=   0.0000E+00  zforce=  -6.1662E+01   energy=   7.0767E-03   setid =     640 xmoment=   0.0000E+00 ymoment=   0.0000E+00 zmoment=   0.0000E+00
 nd#     643  xforce=   0.0000E+00   yforce=   0.0000E+00  zforce=  -6.2798E+01   energy=   7.2370E-03   setid =     643 xmoment=   0.0000E+00 ymoment=   0.0000E+00 zmoment=   0.0000E+00
 nd#     692  xforce=   0.0000E+00   yforce=   0.0000E+00  zforce=  -8.3694E+01   energy=   9.6333E-03   setid =     692 xmoment=   0.0000E+00 ymoment=   0.0000E+00 zmoment=   0.0000E+00
 nd#     694  xforce=   0.0000E+00   yforce=   0.0000E+00  zforce=  -1.1326E+02   energy=   1.2726E-02   setid =     694 xmoment=   0.0000E+00 ymoment=   0.0000E+00 zmoment=   0.0000E+00
 nd#     696  xforce=   0.0000E+00   yforce=   0.0000E+00  zforce=  -1.1678E+02   energy=   1.3221E-02   setid =     696 xmoment=   0.0000E+00 ymoment=   0.0000E+00 zmoment=   0.0000E+00
 nd#     698  xforce=   0.0000E+00   yforce=   0.0000E+00  zforce=  -6.0418E+01   energy=   6.9066E-03   setid =     698 xmoment=   0.0000E+00 ymoment=   0.0000E+00 zmoment=   0.0000E+00
 nd#     900  xforce=   0.0000E+00   yforce=   0.0000E+00  zforce=  -6.9429E+01   energy=   8.3563E-03   setid =     900 xmoment=   0.0000E+00 ymoment=   0.0000E+00 zmoment=   0.0000E+00
 nd#     902  xforce=   0.0000E+00   yforce=   0.0000E+00  zforce=  -8.8632E+01   energy=   1.0242E-02   setid =     902 xmoment=   0.0000E+00 ymoment=   0.0000E+00 zmoment=   0.0000E+00
 nd#     903  xforce=   0.0000E+00   yforce=   0.0000E+00  zforce=  -9.8459E+01   energy=   1.1291E-02   setid =     903 xmoment=   0.0000E+00 ymoment=   0.0000E+00 zmoment=   0.0000E+00
 nd#     905  xforce=   0.0000E+00   yforce=   0.0000E+00  zforce=  -1.1219E+02   energy=   1.2576E-02   setid =     905 xmoment=   0.0000E+00 ymoment=   0.0000E+00 zmoment=   0.0000E+00
 nd#     906  xforce=   0.0000E+00   yforce=   0.0000E+00  zforce=  -1.1733E+02   energy=   1.3812E-02   setid =     906 xmoment=   0.0000E+00 ymoment=   0.0000E+00 zmoment=   0.0000E+00
 nd#     908  xforce=   0.0000E+00   yforce=   0.0000E+00  zforce=  -1.2885E+02   energy=   1.4505E-02   setid =     908 xmoment=   0.0000E+00 ymoment=   0.0000E+00 zmoment=   0.0000E+00
 nd#     909  xforce=   0.0000E+00   yforce=   0.0000E+00  zforce=  -2.4731E+01   energy=   3.2988E-03   setid =     909 xmoment=   0.0000E+00 ymoment=   0.0000E+00 zmoment=   0.0000E+00
 nd#     911  xforce=   0.0000E+00   yforce=   0.0000E+00  zforce=  -5.2136E+01   energy=   6.0705E-03   setid =     911 xmoment=   0.0000E+00 ymoment=   0.0000E+00 zmoment=   0.0000E+00
 nd#    1012  xforce=   0.0000E+00   yforce=   0.0000E+00  zforce=  -6.4855E+01   energy=   7.3540E-03   setid =    1012 xmoment=   0.0000E+00 ymoment=   0.0000E+00 zmoment=   0.0000E+00
 nd#    1013  xforce=   0.0000E+00   yforce=   0.0000E+00  zforce=  -1.2434E+02   energy=   1.3802E-02   setid =    1013 xmoment=   0.0000E+00 ymoment=   0.0000E+00 zmoment=   0.0000E+00
 nd#    1014  xforce=   0.0000E+00   yforce=   0.0000E+00  zforce=  -8.6310E+01   energy=   9.4728E-03   setid =    1014 xmoment=   0.0000E+00 ymoment=   0.0000E+00 zmoment=   0.0000E+00
 nd#    1015  xforce=   0.0000E+00   yforce=   0.0000E+00  zforce=  -6.4849E+01   energy=   7.5401E-03   setid =    1015 xmoment=   0.0000E+00 ymoment=   0.0000E+00 zmoment=   0.0000E+00
 nd#    1060  xforce=   0.0000E+00   yforce=   0.0000E+00  zforce=   4.5747E+01   energy=  -4.3692E-03   setid =    1060 xmoment=   0.0000E+00 ymoment=   0.0000E+00 zmoment=   0.0000E+00
 nd#    1061  xforce=   0.0000E+00   yforce=   0.0000E+00  zforce=   5.2579E+01   energy=  -5.1227E-03   setid =    1061 xmoment=   0.0000E+00 ymoment=   0.0000E+00 zmoment=   0.0000E+00
 nd#    1062  xforce=   0.0000E+00   yforce=   0.0000E+00  zforce=   8.4615E+01   energy=  -8.0268E-03   setid =    1062 xmoment=   0.0000E+00 ymoment=   0.0000E+00 zmoment=   0.0000E+00
 nd#    1063  xforce=   0.0000E+00   yforce=   0.0000E+00  zforce=   6.1798E+01   energy=  -6.7573E-03   setid =    1063 xmoment=   0.0000E+00 ymoment=   0.0000E+00 zmoment=   0.0000E+00
              xtotal=   0.0000E+00   ytotal=   0.0000E+00  ztotal=  -3.7726E+03   etotal=   4.3272E-01

 n o d a l   f o r c e/e n e r g y    o u t p u t  t=   8.69918E+00

 velocity boundary condition forces/rigid body moments 

 nd#     179  xforce=   0.0000E+00   yforce=   0.0000E+00  zforce=  -1.4232E+02   energy=   1.8365E-02   setid =     179 xmoment=   0.0000E+00 ymoment=   0.0000E+00 zmoment=   0.0000E+00
 nd#     180  xforce=   0.0000E+00   yforce=   0.0000E+00  zforce=  -2.0415E+02   energy=   2.6689E-02   setid =     180 xmoment=   0.0000E+00 ymoment=   0.0000E+00 zmoment=   0.0000E+00
 nd#     181  xforce=   0.0000E+00   yforce=   0.0000E+00  zforce=  -4.0229E+01   energy=   6.2894E-03   setid =     181 xmoment=   0.0000E+00 ymoment=   0.0000E+00 zmoment=   0.0000E+00
 nd#     182  xforce=   0.0000E+00   yforce=   0.0000E+00  zforce=  -3.3751E+01   energy=   4.8250E-03   setid =     182 xmoment=   0.0000E+00 ymoment=   0.0000E+00 zmoment=   0.0000E+00
 nd#     247  xforce=   0.0000E+00   yforce=   0.0000E+00  zforce=  -2.4032E+02   energy=   3.2914E-02   setid =     247 xmoment=   0.0000E+00 ymoment=   0.0000E+00 zmoment=   0.0000E+00
 nd#     248  xforce=   0.0000E+00   yforce=   0.0000E+00  zforce=   6.8104E+01   energy=  -9.0315E-03   setid =     248 xmoment=   0.0000E+00 ymoment=   0.0000E+00 zmoment=   0.0000E+00
 nd#     249  xforce=   0.0000E+00   yforce=   0.0000E+00  zforce=  -8.4164E+01   energy=   1.0315E-02   setid =     249 xmoment=   0.0000E+00 ymoment=   0.0000E+00 zmoment=   0.0000E+00
 nd#     250  xforce=   0.0000E+00   yforce=   0.0000E+00  zforce=  -1.7477E+02   energy=   2.3409E-02   setid =     250 xmoment=   0.0000E+00 ymoment=   0.0000E+00 zmoment=   0.0000E+00
 nd#     283  xforce=   0.0000E+00   yforce=   0.0000E+00  zforce=  -1.5917E+02   energy=   2.2262E-02   setid =     283 xmoment=   0.0000E+00 ymoment=   0.0000E+00 zmoment=   0.0000E+00
 nd#     284  xforce=   0.0000E+00   yforce=   0.0000E+00  zforce=   2.1574E+02   energy=  -2.8675E-02   setid =     284 xmoment=   0.0000E+00 ymoment=   0.0000E+00 zmoment=   0.0000E+00
 nd#     333  xforce=   0.0000E+00   yforce=   0.0000E+00  zforce=  -4.2441E+01   energy=   6.8039E-03   setid =     333 xmoment=   0.0000E+00 ymoment=   0.0000E+00 zmoment=   0.0000E+00
 nd#     334  xforce=   0.0000E+00   yforce=   0.0000E+00  zforce=  -9.5342E+01   energy=   1.3038E-02   setid =     334 xmoment=   0.0000E+00 ymoment=   0.0000E+00 zmoment=   0.0000E+00
 nd#     335  xforce=   0.0000E+00   yforce=   0.0000E+00  zforce=  -6.8355E+01   energy=   8.9757E-03   setid =     335 xmoment=   0.0000E+00 ymoment=   0.0000E+00 zmoment=   0.0000E+00
 nd#     368  xforce=   0.0000E+00   yforce=   0.0000E+00  zforce=  -1.0667E+02   energy=   1.5782E-02   setid =     368 xmoment=   0.0000E+00 ymoment=   0.0000E+00 zmoment=   0.0000E+00
 nd#     369  xforce=   0.0000E+00   yforce=   0.0000E+00  zforce=  -8.1592E+01   energy=   1.1655E-02   setid =     369 xmoment=   0.0000E+00 ymoment=   0.0000E+00 zmoment=   0.0000E+00
 nd#     386  xforce=   0.0000E+00   yforce=   0.0000E+00  zforce=  -1.7871E+02   energy=   2.5218E-02   setid =     386 xmoment=   0.0000E+00 ymoment=   0.0000E+00 zmoment=   0.0000E+00
 nd#     403  xforce=   0.0000E+00   yforce=   0.0000E+00  zforce=  -9.1691E+01   energy=   1.2940E-02   setid =     403 xmoment=   0.0000E+00 ymoment=   0.0000E+00 zmoment=   0.0000E+00
 nd#     436  xforce=   0.0000E+00   yforce=   0.0000E+00  zforce=  -8.7522E+01   energy=   1.1787E-02   setid =     436 xmoment=   0.0000E+00 ymoment=   0.0000E+00 zmoment=   0.0000E+00
 nd#     437  xforce=   0.0000E+00   yforce=   0.0000E+00  zforce=  -7.1450E+01   energy=   1.0186E-02   setid =     437 xmoment=   0.0000E+00 ymoment=   0.0000E+00 zmoment=   0.0000E+00
 nd#     438  xforce=   0.0000E+00   yforce=   0.0000E+00  zforce=  -6.9341E+01   energy=   1.0006E-02   setid =     438 xmoment=   0.0000E+00 ymoment=   0.0000E+00 zmoment=   0.0000E+00
 nd#     439  xforce=   0.0000E+00   yforce=   0.0000E+00  zforce=  -6.5085E+01   energy=   9.1349E-03   setid =     439 xmoment=   0.0000E+00 ymoment=   0.0000E+00 zmoment=   0.0000E+00
 nd#     440  xforce=   0.0000E+00   yforce=   0.0000E+00  zforce=  -6.1045E+01   energy=   8.6356E-03   setid =     440 xmoment=   0.0000E+00 ymoment=   0.0000E+00 zmoment=   0.0000E+00
 nd#     441  xforce=   0.0000E+00   yforce=   0.0000E+00  zforce=  -5.8265E+01   energy=   8.3158E-03   setid =     441 xmoment=   0.0000E+00 ymoment=   0.0000E+00 zmoment=   0.0000E+00
 nd#     442  xforce=   0.0000E+00   yforce=   0.0000E+00  zforce=  -5.4372E+01   energy=   7.8434E-03   setid =     442 xmoment=   0.0000E+00 ymoment=   0.0000E+00 zmoment=   0.0000E+00
 nd#     443  xforce=   0.0000E+00   yforce=   0.0000E+00  zforce=  -4.1792E+01   energy=   6.3676E-03   setid =     443 xmoment=   0.0000E+00 ymoment=   0.0000E+00 zmoment=   0.0000E+00
 nd#     444  xforce=   0.0000E+00   yforce=   0.0000E+00  zforce=   1.1096E+01   energy=  -1.0603E-03   setid =     444 xmoment=   0.0000E+00 ymoment=   0.0000E+00 zmoment=   0.0000E+00
 nd#     628  xforce=   0.0000E+00   yforce=   0.0000E+00  zforce=  -8.1969E+01   energy=   1.1151E-02   setid =     628 xmoment=   0.0000E+00 ymoment=   0.0000E+00 zmoment=   0.0000E+00
 nd#     631  xforce=   0.0000E+00   yforce=   0.0000E+00  zforce=  -7.4497E+01   energy=   1.0328E-02   setid =     631 xmoment=   0.0000E+00 ymoment=   0.0000E+00 zmoment=   0.0000E+00
 nd#     632  xforce=   0.0000E+00   yforce=   0.0000E+00  zforce=  -1.2060E+02   energy=   1.6103E-02   setid =     632 xmoment=   0.0000E+00 ymoment=   0.0000E+00 zmoment=   0.0000E+00
 nd#     635  xforce=   0.0000E+00   yforce=   0.0000E+00  zforce=  -1.2337E+02   energy=   1.6502E-02   setid =     635 xmoment=   0.0000E+00 ymoment=   0.0000E+00 zmoment=   0.0000E+00
 nd#     636  xforce=   0.0000E+00   yforce=   0.0000E+00  zforce=  -1.1065E+02   energy=   1.5208E-02   setid =     636 xmoment=   0.0000E+00 ymoment=   0.0000E+00 zmoment=   0.0000E+00
 nd#     639  xforce=   0.0000E+00   yforce=   0.0000E+00  zforce=  -9.9855E+01   energy=   1.3614E-02   setid =     639 xmoment=   0.0000E+00 ymoment=   0.0000E+00 zmoment=   0.0000E+00
 nd#     640  xforce=   0.0000E+00   yforce=   0.0000E+00  zforce=  -6.2655E+01   energy=   8.8971E-03   setid =     640 xmoment=   0.0000E+00 ymoment=   0.0000E+00 zmoment=   0.0000E+00
 nd#     643  xforce=   0.0000E+00   yforce=   0.0000E+00  zforce=  -6.3022E+01   energy=   9.0794E-03   setid =     643 xmoment=   0.0000E+00 ymoment=   0.0000E+00 zmoment=   0.0000E+00
 nd#     692  xforce=   0.0000E+00   yforce=   0.0000E+00  zforce=  -8.9588E+01   energy=   1.2171E-02   setid =     692 xmoment=   0.0000E+00 ymoment=   0.0000E+00 zmoment=   0.0000E+00
 nd#     694  xforce=   0.0000E+00   yforce=   0.0000E+00  zforce=  -1.2042E+02   energy=   1.6148E-02   setid =     694 xmoment=   0.0000E+00 ymoment=   0.0000E+00 zmoment=   0.0000E+00
 nd#     696  xforce=   0.0000E+00   yforce=   0.0000E+00  zforce=  -1.2162E+02   energy=   1.6712E-02   setid =     696 xmoment=   0.0000E+00 ymoment=   0.0000E+00 zmoment=   0.0000E+00
 nd#     698  xforce=   0.0000E+00   yforce=   0.0000E+00  zforce=  -6.0485E+01   energy=   8.6770E-03   setid =     698 xmoment=   0.0000E+00 ymoment=   0.0000E+00 zmoment=   0.0000E+00
 nd#     900  xforce=   0.0000E+00   yforce=   0.0000E+00  zforce=  -7.2399E+01   energy=   1.0433E-02   setid =     900 xmoment=   0.0000E+00 ymoment=   0.0000E+00 zmoment=   0.0000E+00
[...]
 nd#     182  xforce=   0.0000E+00   yforce=   0.0000E+00  zforce=  -1.3703E+02   energy=   9.1078E-02   setid =     182 xmoment=   0.0000E+00 ymoment=   0.0000E+00 zmoment=   0.0000E+00
 nd#     247  xforce=   0.0000E+00   yforce=   0.0000E+00  zforce=   2.4280E+02   energy=   1.8243E-01   setid =     247 xmoment=   0.0000E+00 ymoment=   0.0000E+00 zmoment=   0.0000E+00
 nd#     248  xforce=   0.0000E+00   yforce=   0.0000E+00  zforce=  -1.6469E+02   energy=  -1.8134E-02   setid =     248 xmoment=   0.0000E+00 ymoment=   0.0000E+00 zmoment=   0.0000E+00
 nd#     249  xforce=   0.0000E+00   yforce=   0.0000E+00  zforce=  -7.2724E+01   energy=   1.2427E-01   setid =     249 xmoment=   0.0000E+00 ymoment=   0.0000E+00 zmoment=   0.0000E+00
 nd#     250  xforce=   0.0000E+00   yforce=   0.0000E+00  zforce=   1.5328E+02   energy=   1.5528E-01   setid =     250 xmoment=   0.0000E+00 ymoment=   0.0000E+00 zmoment=   0.0000E+00
 nd#     283  xforce=   0.0000E+00   yforce=   0.0000E+00  zforce=   1.0491E+02   energy=   1.2992E-01   setid =     283 xmoment=   0.0000E+00 ymoment=   0.0000E+00 zmoment=   0.0000E+00
 nd#     284  xforce=   0.0000E+00   yforce=   0.0000E+00  zforce=  -4.5563E+02   energy=  -9.9757E-02   setid =     284 xmoment=   0.0000E+00 ymoment=   0.0000E+00 zmoment=   0.0000E+00
 nd#     333  xforce=   0.0000E+00   yforce=   0.0000E+00  zforce=   1.4351E+02   energy=   1.1025E-02   setid =     333 xmoment=   0.0000E+00 ymoment=   0.0000E+00 zmoment=   0.0000E+00
 nd#     334  xforce=   0.0000E+00   yforce=   0.0000E+00  zforce=   6.6493E+01   energy=   9.6672E-02   setid =     334 xmoment=   0.0000E+00 ymoment=   0.0000E+00 zmoment=   0.0000E+00
 nd#     335  xforce=   0.0000E+00   yforce=   0.0000E+00  zforce=  -8.3184E+01   energy=   9.0142E-02   setid =     335 xmoment=   0.0000E+00 ymoment=   0.0000E+00 zmoment=   0.0000E+00
 nd#     368  xforce=   0.0000E+00   yforce=   0.0000E+00  zforce=   1.3975E+02   energy=   8.8321E-02   setid =     368 xmoment=   0.0000E+00 ymoment=   0.0000E+00 zmoment=   0.0000E+00
 nd#     369  xforce=   0.0000E+00   yforce=   0.0000E+00  zforce=   3.1714E+01   energy=   8.8775E-02   setid =     369 xmoment=   0.0000E+00 ymoment=   0.0000E+00 zmoment=   0.0000E+00
 nd#     386  xforce=   0.0000E+00   yforce=   0.0000E+00  zforce=   1.7095E+02   energy=   1.5275E-01   setid =     386 xmoment=   0.0000E+00 ymoment=   0.0000E+00 zmoment=   0.0000E+00
 nd#     403  xforce=   0.0000E+00   yforce=   0.0000E+00  zforce=   5.1951E+01   energy=   8.4817E-02   setid =     403 xmoment=   0.0000E+00 ymoment=   0.0000E+00 zmoment=   0.0000E+00
 nd#     436  xforce=   0.0000E+00   yforce=   0.0000E+00  zforce=  -5.8352E+01   energy=   1.1704E-01   setid =     436 xmoment=   0.0000E+00 ymoment=   0.0000E+00 zmoment=   0.0000E+00
 nd#     437  xforce=   0.0000E+00   yforce=   0.0000E+00  zforce=   4.3767E+00   energy=   8.4778E-02   setid =     437 xmoment=   0.0000E+00 ymoment=   0.0000E+00 zmoment=   0.0000E+00
 nd#     438  xforce=   0.0000E+00   yforce=   0.0000E+00  zforce=   4.1738E+01   energy=   6.6755E-02   setid =     438 xmoment=   0.0000E+00 ymoment=   0.0000E+00 zmoment=   0.0000E+00
 nd#     439  xforce=   0.0000E+00   yforce=   0.0000E+00  zforce=   3.5674E+01   energy=   6.2995E-02   setid =     439 xmoment=   0.0000E+00 ymoment=   0.0000E+00 zmoment=   0.0000E+00
 nd#     440  xforce=   0.0000E+00   yforce=   0.0000E+00  zforce=   2.8224E+01   energy=   6.2095E-02   setid =     440 xmoment=   0.0000E+00 ymoment=   0.0000E+00 zmoment=   0.0000E+00
 nd#     441  xforce=   0.0000E+00   yforce=   0.0000E+00  zforce=   2.7436E+01   energy=   6.0465E-02   setid =     441 xmoment=   0.0000E+00 ymoment=   0.0000E+00 zmoment=   0.0000E+00
 nd#     442  xforce=   0.0000E+00   yforce=   0.0000E+00  zforce=   2.4589E+01   energy=   5.7044E-02   setid =     442 xmoment=   0.0000E+00 ymoment=   0.0000E+00 zmoment=   0.0000E+00
 nd#     443  xforce=   0.0000E+00   yforce=   0.0000E+00  zforce=   2.6390E+01   energy=   4.0817E-02   setid =     443 xmoment=   0.0000E+00 ymoment=   0.0000E+00 zmoment=   0.0000E+00
 nd#     444  xforce=   0.0000E+00   yforce=   0.0000E+00  zforce=   6.1779E+00   energy=  -1.2801E-02   setid =     444 xmoment=   0.0000E+00 ymoment=   0.0000E+00 zmoment=   0.0000E+00
 nd#     628  xforce=   0.0000E+00   yforce=   0.0000E+00  zforce=  -4.5386E+01   energy=   1.2539E-01   setid =     628 xmoment=   0.0000E+00 ymoment=   0.0000E+00 zmoment=   0.0000E+00
 nd#     631  xforce=   0.0000E+00   yforce=   0.0000E+00  zforce=  -4.8594E+01   energy=   1.1794E-01   setid =     631 xmoment=   0.0000E+00 ymoment=   0.0000E+00 zmoment=   0.0000E+00
 nd#     632  xforce=   0.0000E+00   yforce=   0.0000E+00  zforce=  -7.6809E+00   energy=   1.4823E-01   setid =     632 xmoment=   0.0000E+00 ymoment=   0.0000E+00 zmoment=   0.0000E+00
 nd#     635  xforce=   0.0000E+00   yforce=   0.0000E+00  zforce=  -4.4223E-01   energy=   1.4680E-01   setid =     635 xmoment=   0.0000E+00 ymoment=   0.0000E+00 zmoment=   0.0000E+00
 nd#     636  xforce=   0.0000E+00   yforce=   0.0000E+00  zforce=  -1.8071E+01   energy=   1.4113E-01   setid =     636 xmoment=   0.0000E+00 ymoment=   0.0000E+00 zmoment=   0.0000E+00
 nd#     639  xforce=   0.0000E+00   yforce=   0.0000E+00  zforce=  -2.3831E+01   energy=   1.2755E-01   setid =     639 xmoment=   0.0000E+00 ymoment=   0.0000E+00 zmoment=   0.0000E+00
 nd#     640  xforce=   0.0000E+00   yforce=   0.0000E+00  zforce=   1.4422E+01   energy=   7.3063E-02   setid =     640 xmoment=   0.0000E+00 ymoment=   0.0000E+00 zmoment=   0.0000E+00
 nd#     643  xforce=   0.0000E+00   yforce=   0.0000E+00  zforce=   1.5498E+01   energy=   7.4178E-02   setid =     643 xmoment=   0.0000E+00 ymoment=   0.0000E+00 zmoment=   0.0000E+00
 nd#     692  xforce=   0.0000E+00   yforce=   0.0000E+00  zforce=  -3.6725E+01   energy=   1.3144E-01   setid =     692 xmoment=   0.0000E+00 ymoment=   0.0000E+00 zmoment=   0.0000E+00
 nd#     694  xforce=   0.0000E+00   yforce=   0.0000E+00  zforce=  -9.2895E+00   energy=   1.5116E-01   setid =     694 xmoment=   0.0000E+00 ymoment=   0.0000E+00 zmoment=   0.0000E+00
 nd#     696  xforce=   0.0000E+00   yforce=   0.0000E+00  zforce=  -1.1589E+01   energy=   1.5480E-01   setid =     696 xmoment=   0.0000E+00 ymoment=   0.0000E+00 zmoment=   0.0000E+00
 nd#     698  xforce=   0.0000E+00   yforce=   0.0000E+00  zforce=   2.2133E+01   energy=   6.9316E-02   setid =     698 xmoment=   0.0000E+00 ymoment=   0.0000E+00 zmoment=   0.0000E+00
 nd#     900  xforce=   0.0000E+00   yforce=   0.0000E+00  zforce=  -1.1960E+01   energy=   1.0333E-01   setid =     900 xmoment=   0.0000E+00 ymoment=   0.0000E+00 zmoment=   0.0000E+00
 nd#     902  xforce=   0.0000E+00   yforce=   0.0000E+00  zforce=  -2.9358E+01   energy=   1.3365E-01   setid =     902 xmoment=   0.0000E+00 ymoment=   0.0000E+00 zmoment=   0.0000E+00
 nd#     903  xforce=   0.0000E+00   yforce=   0.0000E+00  zforce=   6.2865E+00   energy=   1.2752E-01   setid =     903 xmoment=   0.0000E+00 ymoment=   0.0000E+00 zmoment=   0.0000E+00
 nd#     905  xforce=   0.0000E+00   yforce=   0.0000E+00  zforce=  -1.9626E+01   energy=   1.5437E-01   setid =     905 xmoment=   0.0000E+00 ymoment=   0.0000E+00 zmoment=   0.0000E+00
 nd#     906  xforce=   0.0000E+00   yforce=   0.0000E+00  zforce=   2.6934E+01   energy=   1.3406E-01   setid =     906 xmoment=   0.0000E+00 ymoment=   0.0000E+00 zmoment=   0.0000E+00
 nd#     908  xforce=   0.0000E+00   yforce=   0.0000E+00  zforce=  -1.3609E+01   energy=   1.6792E-01   setid =     908 xmoment=   0.0000E+00 ymoment=   0.0000E+00 zmoment=   0.0000E+00
 nd#     909  xforce=   0.0000E+00   yforce=   0.0000E+00  zforce=   1.1897E+01   energy=   2.5913E-02   setid =     909 xmoment=   0.0000E+00 ymoment=   0.0000E+00 zmoment=   0.0000E+00
 nd#     911  xforce=   0.0000E+00   yforce=   0.0000E+00  zforce=   1.4231E+01   energy=   6.0672E-02   setid =     911 xmoment=   0.0000E+00 ymoment=   0.0000E+00 zmoment=   0.0000E+00
 nd#    1012  xforce=   0.0000E+00   yforce=   0.0000E+00  zforce=  -5.0318E+01   energy=   1.0853E-01   setid =    1012 xmoment=   0.0000E+00 ymoment=   0.0000E+00 zmoment=   0.0000E+00
 nd#    1013  xforce=   0.0000E+00   yforce=   0.0000E+00  zforce=  -7.9547E-01   energy=   1.5400E-01   setid =    1013 xmoment=   0.0000E+00 ymoment=   0.0000E+00 zmoment=   0.0000E+00
 nd#    1014  xforce=   0.0000E+00   yforce=   0.0000E+00  zforce=  -3.9079E+01   energy=   1.1386E-01   setid =    1014 xmoment=   0.0000E+00 ymoment=   0.0000E+00 zmoment=   0.0000E+00
 nd#    1015  xforce=   0.0000E+00   yforce=   0.0000E+00  zforce=   2.0716E+01   energy=   7.4996E-02   setid =    1015 xmoment=   0.0000E+00 ymoment=   0.0000E+00 zmoment=   0.0000E+00
 nd#    1060  xforce=   0.0000E+00   yforce=   0.0000E+00  zforce=  -1.1083E+01   energy=  -4.1352E-02   setid =    1060 xmoment=   0.0000E+00 ymoment=   0.0000E+00 zmoment=   0.0000E+00
 nd#    1061  xforce=   0.0000E+00   yforce=   0.0000E+00  zforce=  -2.7221E+00   energy=  -5.9001E-02   setid =    1061 xmoment=   0.0000E+00 ymoment=   0.0000E+00 zmoment=   0.0000E+00
 nd#    1062  xforce=   0.0000E+00   yforce=   0.0000E+00  zforce=   3.1224E+01   energy=  -1.0161E-01   setid =    1062 xmoment=   0.0000E+00 ymoment=   0.0000E+00 zmoment=   0.0000E+00
 nd#    1063  xforce=   0.0000E+00   yforce=   0.0000E+00  zforce=  -3.9001E+01   energy=  -5.0845E-02   setid =    1063 xmoment=   0.0000E+00 ymoment=   0.0000E+00 zmoment=   0.0000E+00
              xtotal=   0.0000E+00   ytotal=   0.0000E+00  ztotal=  -8.7330E+01   etotal=   4.7680E+00

 n o d a l   f o r c e/e n e r g y    o u t p u t  t=   6.46513E+01

 velocity boundary condition forces/rigid body moments 

 nd#     179  xforce=   0.0000E+00   yforce=   0.0000E+00  zforce=   5.4263E+00   energy=   1.6238E-01   setid =     179 xmoment=   0.0000E+00 ymoment=   0.0000E+00 zmoment=   0.0000E+00
 nd#     180  xforce=   0.0000E+00   yforce=   0.0000E+00  zforce=   4.0947E+01   energy=   2.1676E-01   setid =     180 xmoment=   0.0000E+00 ymoment=   0.0000E+00 zmoment=   0.0000E+00
 nd#     181  xforce=   0.0000E+00   yforce=   0.0000E+00  zforce=  -1.2502E+02   energy=   1.0733E-01   setid =     181 xmoment=   0.0000E+00 ymoment=   0.0000E+00 zmoment=   0.0000E+00
 nd#     182  xforce=   0.0000E+00   yforce=   0.0000E+00  zforce=  -1.0742E+02   energy=   9.3336E-02   setid =     182 xmoment=   0.0000E+00 ymoment=   0.0000E+00 zmoment=   0.0000E+00
 nd#     247  xforce=   0.0000E+00   yforce=   0.0000E+00  zforce=   1.2142E+02   energy=   1.7906E-01   setid =     247 xmoment=   0.0000E+00 ymoment=   0.0000E+00 zmoment=   0.0000E+00
 nd#     248  xforce=   0.0000E+00   yforce=   0.0000E+00  zforce=  -1.4262E+02   energy=  -1.5295E-02   setid =     248 xmoment=   0.0000E+00 ymoment=   0.0000E+00 zmoment=   0.0000E+00
 nd#     249  xforce=   0.0000E+00   yforce=   0.0000E+00  zforce=  -3.3373E+01   energy=   1.2525E-01   setid =     249 xmoment=   0.0000E+00 ymoment=   0.0000E+00 zmoment=   0.0000E+00
 nd#     250  xforce=   0.0000E+00   yforce=   0.0000E+00  zforce=   9.1603E+01   energy=   1.5302E-01   setid =     250 xmoment=   0.0000E+00 ymoment=   0.0000E+00 zmoment=   0.0000E+00
 nd#     283  xforce=   0.0000E+00   yforce=   0.0000E+00  zforce=   1.1630E+01   energy=   1.2884E-01   setid =     283 xmoment=   0.0000E+00 ymoment=   0.0000E+00 zmoment=   0.0000E+00
 nd#     284  xforce=   0.0000E+00   yforce=   0.0000E+00  zforce=  -4.4045E+02   energy=  -9.1478E-02   setid =     284 xmoment=   0.0000E+00 ymoment=   0.0000E+00 zmoment=   0.0000E+00
 nd#     333  xforce=   0.0000E+00   yforce=   0.0000E+00  zforce=   1.2641E+02   energy=   8.5309E-03   setid =     333 xmoment=   0.0000E+00 ymoment=   0.0000E+00 zmoment=   0.0000E+00
 nd#     334  xforce=   0.0000E+00   yforce=   0.0000E+00  zforce=   4.0953E+01   energy=   9.5679E-02   setid =     334 xmoment=   0.0000E+00 ymoment=   0.0000E+00 zmoment=   0.0000E+00
 nd#     335  xforce=   0.0000E+00   yforce=   0.0000E+00  zforce=  -6.1051E+01   energy=   9.1474E-02   setid =     335 xmoment=   0.0000E+00 ymoment=   0.0000E+00 zmoment=   0.0000E+00
 nd#     368  xforce=   0.0000E+00   yforce=   0.0000E+00  zforce=   1.5830E+02   energy=   8.5568E-02   setid =     368 xmoment=   0.0000E+00 ymoment=   0.0000E+00 zmoment=   0.0000E+00
 nd#     369  xforce=   0.0000E+00   yforce=   0.0000E+00  zforce=   5.5162E+01   energy=   8.7973E-02   setid =     369 xmoment=   0.0000E+00 ymoment=   0.0000E+00 zmoment=   0.0000E+00
 nd#     386  xforce=   0.0000E+00   yforce=   0.0000E+00  zforce=   1.4956E+02   energy=   1.4978E-01   setid =     386 xmoment=   0.0000E+00 ymoment=   0.0000E+00 zmoment=   0.0000E+00
 nd#     403  xforce=   0.0000E+00   yforce=   0.0000E+00  zforce=   6.2466E+01   energy=   8.3760E-02   setid =     403 xmoment=   0.0000E+00 ymoment=   0.0000E+00 zmoment=   0.0000E+00
 nd#     436  xforce=   0.0000E+00   yforce=   0.0000E+00  zforce=  -2.7334E+01   energy=   1.1783E-01   setid =     436 xmoment=   0.0000E+00 ymoment=   0.0000E+00 zmoment=   0.0000E+00
 nd#     437  xforce=   0.0000E+00   yforce=   0.0000E+00  zforce=   2.1570E+01   energy=   8.4538E-02   setid =     437 xmoment=   0.0000E+00 ymoment=   0.0000E+00 zmoment=   0.0000E+00
 nd#     438  xforce=   0.0000E+00   yforce=   0.0000E+00  zforce=   5.6590E+01   energy=   6.5846E-02   setid =     438 xmoment=   0.0000E+00 ymoment=   0.0000E+00 zmoment=   0.0000E+00
 nd#     439  xforce=   0.0000E+00   yforce=   0.0000E+00  zforce=   5.5767E+01   energy=   6.2150E-02   setid =     439 xmoment=   0.0000E+00 ymoment=   0.0000E+00 zmoment=   0.0000E+00
 nd#     440  xforce=   0.0000E+00   yforce=   0.0000E+00  zforce=   4.5625E+01   energy=   6.1413E-02   setid =     440 xmoment=   0.0000E+00 ymoment=   0.0000E+00 zmoment=   0.0000E+00
 nd#     441  xforce=   0.0000E+00   yforce=   0.0000E+00  zforce=   4.3346E+01   energy=   5.9811E-02   setid =     441 xmoment=   0.0000E+00 ymoment=   0.0000E+00 zmoment=   0.0000E+00
 nd#     442  xforce=   0.0000E+00   yforce=   0.0000E+00  zforce=   4.1060E+01   energy=   5.6437E-02   setid =     442 xmoment=   0.0000E+00 ymoment=   0.0000E+00 zmoment=   0.0000E+00
 nd#     443  xforce=   0.0000E+00   yforce=   0.0000E+00  zforce=   4.4710E+01   energy=   4.0160E-02   setid =     443 xmoment=   0.0000E+00 ymoment=   0.0000E+00 zmoment=   0.0000E+00
 nd#     444  xforce=   0.0000E+00   yforce=   0.0000E+00  zforce=   1.6846E+01   energy=  -1.3013E-02   setid =     444 xmoment=   0.0000E+00 ymoment=   0.0000E+00 zmoment=   0.0000E+00
 nd#     628  xforce=   0.0000E+00   yforce=   0.0000E+00  zforce=  -5.7599E+00   energy=   1.2586E-01   setid =     628 xmoment=   0.0000E+00 ymoment=   0.0000E+00 zmoment=   0.0000E+00
 nd#     631  xforce=   0.0000E+00   yforce=   0.0000E+00  zforce=  -1.3163E+01   energy=   1.1851E-01   setid =     631 xmoment=   0.0000E+00 ymoment=   0.0000E+00 zmoment=   0.0000E+00
 nd#     632  xforce=   0.0000E+00   yforce=   0.0000E+00  zforce=   2.1412E+01   energy=   1.4810E-01   setid =     632 xmoment=   0.0000E+00 ymoment=   0.0000E+00 zmoment=   0.0000E+00
 nd#     635  xforce=   0.0000E+00   yforce=   0.0000E+00  zforce=   2.4891E+01   energy=   1.4658E-01   setid =     635 xmoment=   0.0000E+00 ymoment=   0.0000E+00 zmoment=   0.0000E+00
 nd#     636  xforce=   0.0000E+00   yforce=   0.0000E+00  zforce=   1.1296E+01   energy=   1.4119E-01   setid =     636 xmoment=   0.0000E+00 ymoment=   0.0000E+00 zmoment=   0.0000E+00
 nd#     639  xforce=   0.0000E+00   yforce=   0.0000E+00  zforce=   4.2558E+00   energy=   1.2773E-01   setid =     639 xmoment=   0.0000E+00 ymoment=   0.0000E+00 zmoment=   0.0000E+00
 nd#     640  xforce=   0.0000E+00   yforce=   0.0000E+00  zforce=   2.9668E+01   energy=   7.2655E-02   setid =     640 xmoment=   0.0000E+00 ymoment=   0.0000E+00 zmoment=   0.0000E+00
 nd#     643  xforce=   0.0000E+00   yforce=   0.0000E+00  zforce=   3.0946E+01   energy=   7.3748E-02   setid =     643 xmoment=   0.0000E+00 ymoment=   0.0000E+00 zmoment=   0.0000E+00
 nd#     692  xforce=   0.0000E+00   yforce=   0.0000E+00  zforce=   5.7933E+00   energy=   1.3173E-01   setid =     692 xmoment=   0.0000E+00 ymoment=   0.0000E+00 zmoment=   0.0000E+00
 nd#     694  xforce=   0.0000E+00   yforce=   0.0000E+00  zforce=   2.1468E+01   energy=   1.5104E-01   setid =     694 xmoment=   0.0000E+00 ymoment=   0.0000E+00 zmoment=   0.0000E+00
 nd#     696  xforce=   0.0000E+00   yforce=   0.0000E+00  zforce=   2.0461E+01   energy=   1.5472E-01   setid =     696 xmoment=   0.0000E+00 ymoment=   0.0000E+00 zmoment=   0.0000E+00
 nd#     698  xforce=   0.0000E+00   yforce=   0.0000E+00  zforce=   3.7563E+01   energy=   6.8764E-02   setid =     698 xmoment=   0.0000E+00 ymoment=   0.0000E+00 zmoment=   0.0000E+00
 nd#     900  xforce=   0.0000E+00   yforce=   0.0000E+00  zforce=   3.1984E+01   energy=   1.0315E-01   setid =     900 xmoment=   0.0000E+00 ymoment=   0.0000E+00 zmoment=   0.0000E+00
 nd#     902  xforce=   0.0000E+00   yforce=   0.0000E+00  zforce=   1.5833E+01   energy=   1.3377E-01   setid =     902 xmoment=   0.0000E+00 ymoment=   0.0000E+00 zmoment=   0.0000E+00
 nd#     903  xforce=   0.0000E+00   yforce=   0.0000E+00  zforce=   4.4454E+01   energy=   1.2705E-01   setid =     903 xmoment=   0.0000E+00 ymoment=   0.0000E+00 zmoment=   0.0000E+00
 nd#     905  xforce=   0.0000E+00   yforce=   0.0000E+00  zforce=   1.8140E+01   energy=   1.5439E-01   setid =     905 xmoment=   0.0000E+00 ymoment=   0.0000E+00 zmoment=   0.0000E+00
 nd#     906  xforce=   0.0000E+00   yforce=   0.0000E+00  zforce=   6.7702E+01   energy=   1.3319E-01   setid =     906 xmoment=   0.0000E+00 ymoment=   0.0000E+00 zmoment=   0.0000E+00
 nd#     908  xforce=   0.0000E+00   yforce=   0.0000E+00  zforce=   2.2858E+01   energy=   1.6784E-01   setid =     908 xmoment=   0.0000E+00 ymoment=   0.0000E+00 zmoment=   0.0000E+00
 nd#     909  xforce=   0.0000E+00   yforce=   0.0000E+00  zforce=   3.0831E+01   energy=   2.5518E-02   setid =     909 xmoment=   0.0000E+00 ymoment=   0.0000E+00 zmoment=   0.0000E+00
 nd#     911  xforce=   0.0000E+00   yforce=   0.0000E+00  zforce=   3.1498E+01   energy=   6.0250E-02   setid =     911 xmoment=   0.0000E+00 ymoment=   0.0000E+00 zmoment=   0.0000E+00
 nd#    1012  xforce=   0.0000E+00   yforce=   0.0000E+00  zforce=  -2.6338E+01   energy=   1.0924E-01   setid =    1012 xmoment=   0.0000E+00 ymoment=   0.0000E+00 zmoment=   0.0000E+00
 nd#    1013  xforce=   0.0000E+00   yforce=   0.0000E+00  zforce=   3.6112E+01   energy=   1.5368E-01   setid =    1013 xmoment=   0.0000E+00 ymoment=   0.0000E+00 zmoment=   0.0000E+00
 nd#    1014  xforce=   0.0000E+00   yforce=   0.0000E+00  zforce=  -6.9742E+00   energy=   1.1428E-01   setid =    1014 xmoment=   0.0000E+00 ymoment=   0.0000E+00 zmoment=   0.0000E+00
 nd#    1015  xforce=   0.0000E+00   yforce=   0.0000E+00  zforce=   3.6435E+01   energy=   7.4468E-02   setid =    1015 xmoment=   0.0000E+00 ymoment=   0.0000E+00 zmoment=   0.0000E+00
 nd#    1060  xforce=   0.0000E+00   yforce=   0.0000E+00  zforce=   1.2735E+01   energy=  -4.1367E-02   setid =    1060 xmoment=   0.0000E+00 ymoment=   0.0000E+00 zmoment=   0.0000E+00
 nd#    1061  xforce=   0.0000E+00   yforce=   0.0000E+00  zforce=   1.6918E+01   energy=  -5.9132E-02   setid =    1061 xmoment=   0.0000E+00 ymoment=   0.0000E+00 zmoment=   0.0000E+00
 nd#    1062  xforce=   0.0000E+00   yforce=   0.0000E+00  zforce=   4.5824E+01   energy=  -1.0233E-01   setid =    1062 xmoment=   0.0000E+00 ymoment=   0.0000E+00 zmoment=   0.0000E+00
 nd#    1063  xforce=   0.0000E+00   yforce=   0.0000E+00  zforce=  -3.0548E+01   energy=  -5.0202E-02   setid =    1063 xmoment=   0.0000E+00 ymoment=   0.0000E+00 zmoment=   0.0000E+00
              xtotal=   0.0000E+00   ytotal=   0.0000E+00  ztotal=   7.8842E+02   etotal=   4.7616E+00
