 LS-DYNA keyword deck by LS-PrePost                                      
                    ls-dyna smp d R14 R14.1.1s_1_ef50e1 date 06/16/2024



 n o d a l  s t r e s s  c a l c u l a t i o n s   f o r   t i m e  s t e p        1   ( at time 0.00000E+00 )

 node (global)
          stress       sig-xx      sig-yy      sig-zz      sig-xy      sig-yz      sig-zx       plastic
                                                                                                 strain 
       4-
 mid.  surface     4.3884E-06  4.3884E-06  4.3884E-06  0.0000E+00  0.0000E+00  0.0000E+00  0.0000E+00
       5-
 mid.  surface    -2.2719E-05 -2.2719E-05 -2.2719E-05  0.0000E+00  0.0000E+00  0.0000E+00  0.0000E+00
       6-
 mid.  surface    -1.0466E-04 -1.0466E-04 -1.0466E-04  0.0000E+00  0.0000E+00  0.0000E+00  0.0000E+00
       7-
 mid.  surface    -9.3825E-05 -9.3825E-05 -9.3825E-05  0.0000E+00  0.0000E+00  0.0000E+00  0.0000E+00
       8-
 mid.  surface    -6.4921E-05 -6.4921E-05 -6.4921E-05  0.0000E+00  0.0000E+00  0.0000E+00  0.0000E+00
       9-
 mid.  surface    -5.9035E-05 -5.9035E-05 -5.9035E-05  0.0000E+00  0.0000E+00  0.0000E+00  0.0000E+00
      10-
 mid.  surface    -2.1669E-05 -2.1669E-05 -2.1669E-05  0.0000E+00  0.0000E+00  0.0000E+00  0.0000E+00
      15-
 mid.  surface     2.9827E-05  2.9827E-05  2.9827E-05  0.0000E+00  0.0000E+00  0.0000E+00  0.0000E+00
      16-
 mid.  surface    -3.2415E-05 -3.2415E-05 -3.2415E-05  0.0000E+00  0.0000E+00  0.0000E+00  0.0000E+00
      18-
 mid.  surface     2.3031E-05  2.3031E-05  2.3031E-05  0.0000E+00  0.0000E+00  0.0000E+00  0.0000E+00
      40-
 mid.  surface     7.9568E-05  7.9568E-05  7.9568E-05  0.0000E+00  0.0000E+00  0.0000E+00  0.0000E+00
      41-
 mid.  surface     2.0005E-05  2.0005E-05  2.0005E-05  0.0000E+00  0.0000E+00  0.0000E+00  0.0000E+00
      50-
 mid.  surface     2.6276E-05  2.6276E-05  2.6276E-05  0.0000E+00  0.0000E+00  0.0000E+00  0.0000E+00
      51-
 mid.  surface     1.4888E-04  1.4888E-04  1.4888E-04  0.0000E+00  0.0000E+00  0.0000E+00  0.0000E+00
      52-
 mid.  surface     1.4888E-04  1.4888E-04  1.4888E-04  0.0000E+00  0.0000E+00  0.0000E+00  0.0000E+00
      53-
 mid.  surface    -3.2415E-05 -3.2415E-05 -3.2415E-05  0.0000E+00  0.0000E+00  0.0000E+00  0.0000E+00
      72-
 mid.  surface     8.3389E-05  8.3389E-05  8.3389E-05  0.0000E+00  0.0000E+00  0.0000E+00  0.0000E+00
      95-
 mid.  surface    -4.2418E-05 -4.2418E-05 -4.2418E-05  0.0000E+00  0.0000E+00  0.0000E+00  0.0000E+00
     100-
 mid.  surface     2.3031E-05  2.3031E-05  2.3031E-05  0.0000E+00  0.0000E+00  0.0000E+00  0.0000E+00
     110-
 mid.  surface    -2.1669E-05 -2.1669E-05 -2.1669E-05  0.0000E+00  0.0000E+00  0.0000E+00  0.0000E+00



 n o d a l  s t r a i n  c a l c u l a t i o n s   f o r   t i m e  s t e p        1   ( at time 0.00000E+00 )

 node (global)
          strain       eps-xx      eps-yy      eps-zz      eps-xy      eps-yz      eps-zx       
       4-
 mid.  surface     0.0000E+00  0.0000E+00  0.0000E+00  0.0000E+00  0.0000E+00  0.0000E+00
       5-
 mid.  surface     0.0000E+00  0.0000E+00  0.0000E+00  0.0000E+00  0.0000E+00  0.0000E+00
       6-
 mid.  surface     0.0000E+00  0.0000E+00  0.0000E+00  0.0000E+00  0.0000E+00  0.0000E+00
       7-
 mid.  surface     0.0000E+00  0.0000E+00  0.0000E+00  0.0000E+00  0.0000E+00  0.0000E+00
       8-
 mid.  surface     0.0000E+00  0.0000E+00  0.0000E+00  0.0000E+00  0.0000E+00  0.0000E+00
       9-
 mid.  surface     0.0000E+00  0.0000E+00  0.0000E+00  0.0000E+00  0.0000E+00  0.0000E+00
      10-
 mid.  surface     0.0000E+00  0.0000E+00  0.0000E+00  0.0000E+00  0.0000E+00  0.0000E+00
      15-
 mid.  surface     0.0000E+00  0.0000E+00  0.0000E+00  0.0000E+00  0.0000E+00  0.0000E+00
      16-
 mid.  surface     0.0000E+00  0.0000E+00  0.0000E+00  0.0000E+00  0.0000E+00  0.0000E+00
      18-
 mid.  surface     0.0000E+00  0.0000E+00  0.0000E+00  0.0000E+00  0.0000E+00  0.0000E+00
      40-
 mid.  surface     0.0000E+00  0.0000E+00  0.0000E+00  0.0000E+00  0.0000E+00  0.0000E+00
      41-
 mid.  surface     0.0000E+00  0.0000E+00  0.0000E+00  0.0000E+00  0.0000E+00  0.0000E+00
      50-
 mid.  surface     0.0000E+00  0.0000E+00  0.0000E+00  0.0000E+00  0.0000E+00  0.0000E+00
      51-
 mid.  surface     0.0000E+00  0.0000E+00  0.0000E+00  0.0000E+00  0.0000E+00  0.0000E+00
      52-
 mid.  surface     0.0000E+00  0.0000E+00  0.0000E+00  0.0000E+00  0.0000E+00  0.0000E+00
      53-
 mid.  surface     0.0000E+00  0.0000E+00  0.0000E+00  0.0000E+00  0.0000E+00  0.0000E+00
      72-
 mid.  surface     0.0000E+00  0.0000E+00  0.0000E+00  0.0000E+00  0.0000E+00  0.0000E+00
      95-
 mid.  surface     0.0000E+00  0.0000E+00  0.0000E+00  0.0000E+00  0.0000E+00  0.0000E+00
     100-
 mid.  surface     0.0000E+00  0.0000E+00  0.0000E+00  0.0000E+00  0.0000E+00  0.0000E+00
     110-
 mid.  surface     0.0000E+00  0.0000E+00  0.0000E+00  0.0000E+00  0.0000E+00  0.0000E+00



 n o d a l  s t r e s s  c a l c u l a t i o n s   f o r   t i m e  s t e p       10   ( at time 1.29245E+00 )

 node (global)
          stress       sig-xx      sig-yy      sig-zz      sig-xy      sig-yz      sig-zx       plastic
                                                                                                 strain 
       4-
 mid.  surface    -1.0580E+08 -1.1918E+08 -3.5022E+08  3.6091E+07 -8.3041E+05  1.6582E+07  1.2158E-03
       5-
 mid.  surface     1.6398E+07 -2.9866E+07 -2.3475E+08  7.1314E+07 -2.3692E+07 -1.1705E+08  3.0443E-04
       6-
 mid.  surface    -3.2443E+07 -2.8089E+07 -2.2810E+08  3.6344E+07 -1.3102E+08 -7.1169E+07  5.3372E-04
       7-
 mid.  surface    -8.7261E+07 -4.7341E+07 -2.5874E+08  3.2462E+07 -1.4841E+08  5.2806E+06  1.0936E-03
       8-
 mid.  surface    -1.1469E+08 -5.4658E+07 -2.8678E+08  1.0412E+07 -9.5086E+07  3.5855E+07  1.2676E-03
       9-
 mid.  surface    -1.8149E+08 -1.4336E+08 -3.8435E+08 -3.3437E+07 -2.8133E+07  2.8449E+07  1.3094E-03
      10-
 mid.  surface    -2.4794E+07  8.5769E+07 -1.9754E+08 -2.6283E+07  6.8370E+06  1.7705E+07  8.6018E-05
      15-
 mid.  surface     1.6957E+07 -3.0561E+07 -2.1000E+08  3.8711E+07 -6.1584E+07 -2.2299E+07  7.8959E-04
      16-
 mid.  surface    -5.2136E+07 -9.1466E+07 -2.8103E+08 -3.8675E+05 -4.1204E+07  1.0737E+06  1.0638E-03
      18-
 mid.  surface     4.0333E+07  1.0464E+08 -1.5034E+08  4.3953E+07 -5.0630E+07 -1.1374E+07  1.6131E-04
      40-
 mid.  surface    -7.2589E+07 -3.1193E+07 -3.1408E+08  3.4601E+07  2.8159E+07 -8.2991E+06  2.1643E-05
      41-
 mid.  surface    -9.3323E+07 -2.1276E+07 -2.9107E+08  1.9573E+06 -2.9677E+07 -6.6292E+06 -5.5006E-05
      50-
 mid.  surface    -1.9445E+08 -2.1967E+08 -4.6713E+08 -2.9217E+07  5.6909E+07  3.4724E+07  8.4720E-04
      51-
 mid.  surface    -2.8198E+08 -2.4552E+08 -5.3363E+08 -1.4139E+06  7.4621E+07  3.7270E+07  1.0100E-03
      52-
 mid.  surface    -1.9306E+08 -2.2224E+08 -4.4308E+08  3.5459E+07  1.0081E+08 -8.0670E+07  2.5002E-04
      53-
 mid.  surface    -2.0449E+08 -2.2770E+08 -4.6188E+08  9.1331E+06  2.9599E+07 -7.5644E+07  3.0367E-04
      72-
 mid.  surface    -1.1466E+08 -1.8212E+08 -4.2223E+08  2.0824E+07  6.6925E+07  1.0708E+07  5.3057E-04
      95-
 mid.  surface    -1.9999E+08 -2.2630E+08 -4.9318E+08  2.6920E+07  2.3150E+07 -6.9377E+07  5.7933E-04
     100-
 mid.  surface    -1.9634E+08 -1.6931E+08 -4.4618E+08  2.3250E+07 -2.8928E+07 -5.1758E+07  8.7370E-04
     110-
 mid.  surface    -2.4664E+08 -2.2741E+08 -4.5406E+08  1.1433E+06 -6.5168E+07 -4.6334E+07  1.2473E-03



 n o d a l  s t r a i n  c a l c u l a t i o n s   f o r   t i m e  s t e p       10   ( at time 1.29245E+00 )

 node (global)
          strain       eps-xx      eps-yy      eps-zz      eps-xy      eps-yz      eps-zx       
       4-
 mid.  surface     2.3017E-03  1.9095E-03 -6.9338E-03  9.9216E-04 -2.2951E-04 -4.9431E-04
       5-
 mid.  surface     2.3058E-03  5.6983E-04 -4.0515E-03  1.6563E-03 -4.4535E-04 -2.9739E-03
       6-
 mid.  surface     1.8119E-03  1.0723E-03 -4.2585E-03  8.6518E-04 -2.8512E-03 -2.1668E-03
       7-
 mid.  surface     1.9906E-03  2.0512E-03 -5.9253E-03  1.0663E-03 -3.6617E-03 -8.1797E-04
       8-
 mid.  surface     1.5439E-03  2.9420E-03 -6.6673E-03  5.2768E-04 -2.6575E-03  1.7161E-04
       9-
 mid.  surface     1.4892E-03  2.6843E-03 -7.5473E-03 -6.7551E-04 -1.1266E-03  4.0621E-04
      10-
 mid.  surface    -1.9298E-05  2.5369E-03 -3.1553E-03 -3.7372E-04 -9.2701E-05  2.6142E-04
      15-
 mid.  surface     2.2761E-03  1.4467E-03 -4.7827E-03  1.0232E-03 -1.1074E-03 -1.2397E-03
      16-
 mid.  surface     2.2702E-03  1.5609E-03 -5.8421E-03  1.2759E-04 -4.8843E-04 -7.2420E-04
      18-
 mid.  surface     6.4805E-04  2.4232E-03 -3.0919E-03  1.0240E-03 -1.0369E-03 -6.5441E-04
      40-
 mid.  surface     4.8484E-05  1.6024E-03 -3.6306E-03  6.6631E-04 -4.1036E-05  2.4092E-04
      41-
 mid.  surface    -3.5912E-04  1.4514E-03 -3.0083E-03  1.1300E-04 -1.2724E-03  2.4055E-04
      50-
 mid.  surface     1.1731E-03  1.3932E-03 -6.7510E-03 -4.3630E-04  4.0131E-04  9.4792E-04
      51-
 mid.  surface     8.2395E-04  1.9755E-03 -7.8367E-03  2.8872E-04  4.6657E-04  7.7023E-04
      52-
 mid.  surface     9.7330E-04 -1.1259E-04 -4.9367E-03  7.6291E-04  1.9169E-03 -1.7898E-03
      53-
 mid.  surface     1.0865E-03  8.4450E-05 -5.4179E-03  1.9839E-04  4.2954E-04 -1.5399E-03
      72-
 mid.  surface     1.4714E-03  8.2360E-04 -5.7077E-03  4.8430E-04  5.3514E-04  7.0057E-04
      95-
 mid.  surface     1.8800E-03  6.7345E-04 -6.9254E-03  6.8630E-04  4.2574E-04 -1.5048E-03
     100-
 mid.  surface     1.3610E-03  1.9057E-03 -7.1282E-03  5.6442E-04 -8.1847E-04 -1.1794E-03
     110-
 mid.  surface     1.2373E-03  1.7322E-03 -7.3804E-03  2.0464E-04 -2.2248E-03 -9.8403E-04



 n o d a l  s t r e s s  c a l c u l a t i o n s   f o r   t i m e  s t e p      268   ( at time 2.45836E+00 )

 node (global)
          stress       sig-xx      sig-yy      sig-zz      sig-xy      sig-yz      sig-zx       plastic
                                                                                                 strain 
       4-
 mid.  surface    -1.4438E+09 -1.3861E+09 -1.7580E+09  6.8040E+07 -6.0186E+07  2.5995E+08  8.1818E-03
       5-
 mid.  surface    -7.6766E+08 -6.3126E+08 -9.8617E+08  4.6664E+07 -3.3366E+07  2.0010E+08  4.0751E-03
       6-
 mid.  surface     7.3194E+08  7.3448E+08  5.8051E+08  5.7034E+06 -1.9377E+08 -1.1715E+07  2.2723E-02
       7-
 mid.  surface     2.5423E+08  1.9723E+08  1.3704E+07  2.1478E+07 -1.8266E+08 -4.1837E+07  1.4670E-02
       8-
 mid.  surface     4.3041E+07  2.5822E+07 -1.2307E+08  2.0053E+07 -7.2312E+07  3.8358E+06  3.0312E-02
       9-
 mid.  surface    -5.2291E+08 -5.1095E+08 -8.0730E+08 -2.0539E+07  5.0969E+07  7.1314E+05  1.5960E-02
      10-
 mid.  surface     9.9223E+07  1.9465E+08 -1.2699E+08 -3.2453E+07  6.8603E+07  2.0476E+06  7.9769E-03
      15-
 mid.  surface     2.4315E+08  2.9581E+08  8.2733E+07  3.1197E+07 -2.1255E+08 -9.9512E+07  1.9844E-02
      16-
 mid.  surface    -4.0588E+07 -1.3399E+06 -1.9468E+08  3.3321E+07 -2.2310E+08 -3.9101E+07  2.9968E-02
      18-
 mid.  surface     5.2281E+08  5.8975E+08  4.0838E+08  1.0793E+07 -7.5947E+07 -3.9060E+07  2.4482E-02
      40-
 mid.  surface    -4.0138E+07  1.5848E+07 -1.8384E+08  6.0447E+05  2.3181E+07  2.0786E+07  2.4474E-02
      41-
 mid.  surface    -9.0364E+07 -6.5531E+07 -2.9477E+08  1.1119E+07 -1.2841E+08 -2.0781E+07  1.7730E-03
      50-
 mid.  surface    -4.0259E+08 -4.7961E+08 -6.9321E+08  2.6966E+07  1.1241E+08  1.4415E+06  3.1807E-02
      51-
 mid.  surface    -1.3679E+09 -1.4001E+09 -1.5249E+09 -3.9428E+07  2.7216E+08 -2.1982E+08  2.3502E-02
      52-
 mid.  surface    -5.0557E+08 -4.4786E+08 -5.4199E+08 -2.0218E+07  3.0390E+08 -2.4478E+08  2.3751E-02
      53-
 mid.  surface     2.8529E+07 -5.0927E+07 -2.2155E+08  1.1738E+07  1.5388E+08  5.2710E+06  2.7773E-02
      72-
 mid.  surface    -2.8790E+08 -2.4988E+08 -5.9325E+08  4.6328E+07  5.4237E+07  4.4245E+07  1.5470E-02
      95-
 mid.  surface    -3.4219E+08 -4.0473E+08 -7.0188E+08  2.7188E+07  1.0388E+08  5.5971E+07  1.2549E-02
     100-
 mid.  surface    -4.3647E+08 -4.7891E+08 -6.4396E+08  1.2634E+07  3.5141E+07 -4.5545E+06  2.9843E-02
     110-
 mid.  surface    -5.6318E+08 -6.2935E+08 -8.1168E+08  2.9911E+07 -1.3049E+08 -5.5197E+07  1.5453E-02



 n o d a l  s t r a i n  c a l c u l a t i o n s   f o r   t i m e  s t e p      268   ( at time 2.45836E+00 )

 node (global)
          strain       eps-xx      eps-yy      eps-zz      eps-xy      eps-yz      eps-zx       
       4-
 mid.  surface     6.1473E-04  8.6598E-03 -3.0316E-02  3.4288E-03  2.7145E-04  1.9809E-02
       5-
 mid.  surface     9.3751E-04  1.0240E-02 -2.1918E-02  4.4066E-03  1.9752E-05  1.3352E-02
       6-
 mid.  surface     9.7469E-03  7.9142E-03 -8.0264E-03  3.2122E-03 -2.0110E-02 -1.1767E-02
       7-
 mid.  surface     9.6590E-03  5.4860E-03 -1.3066E-02  2.8983E-03 -2.1597E-02 -6.9739E-03
       8-
 mid.  surface     9.6757E-03  1.0862E-02 -2.0833E-02  3.6296E-03 -9.9927E-03 -2.7555E-04
       9-
 mid.  surface     9.6409E-03  1.1279E-02 -2.9703E-02 -2.1489E-03  6.2394E-03  1.5342E-04
      10-
 mid.  surface     2.9459E-03  1.2445E-02 -1.4610E-02 -2.5255E-03  8.1750E-03  2.1452E-05
      15-
 mid.  surface     7.9934E-03  9.1635E-03 -1.4286E-02  2.3835E-03 -1.8487E-02 -1.0473E-02
      16-
 mid.  surface     8.3152E-03  9.2900E-03 -1.8732E-02  2.8277E-03 -1.6516E-02 -1.1134E-02
      18-
 mid.  surface     5.3476E-03  1.2823E-02 -1.0937E-02  2.9036E-03 -8.1461E-03 -4.2578E-03
      40-
 mid.  surface     4.1616E-03  8.4565E-03 -1.3661E-02  9.4356E-04  1.2221E-03  1.6112E-03
      41-
 mid.  surface     2.6560E-03  2.9662E-03 -7.7500E-03  9.5347E-04 -1.4684E-02 -1.8200E-03
      50-
 mid.  surface     1.4814E-02  7.0384E-03 -2.9677E-02  4.1017E-03  9.2229E-03  9.5367E-03
      51-
 mid.  surface     2.1010E-03  2.6373E-03 -2.4999E-02 -5.2167E-03  1.0828E-02 -1.7685E-02
      52-
 mid.  surface     2.9897E-03  4.2683E-03 -1.4341E-02 -5.5376E-04  1.4451E-02 -2.3881E-02
      53-
 mid.  surface     1.5114E-02  5.8517E-03 -2.2525E-02  5.8680E-03  1.0331E-02  6.6067E-03
      72-
 mid.  surface     8.7009E-03  9.7408E-03 -2.4021E-02  3.2352E-03  1.1260E-02  6.4359E-03
      95-
 mid.  surface     1.1089E-02  6.2552E-03 -2.4425E-02  3.0748E-03  1.3133E-02  3.7367E-03
     100-
 mid.  surface     9.9264E-03  6.1695E-03 -2.3570E-02  2.0278E-03  1.8081E-03 -2.2879E-03
     110-
 mid.  surface     9.8705E-03  2.1584E-03 -2.1633E-02  2.8797E-03 -1.6457E-02 -6.4632E-03



 n o d a l  s t r e s s  c a l c u l a t i o n s   f o r   t i m e  s t e p      276   ( at time 3.38229E+00 )

 node (global)
          stress       sig-xx      sig-yy      sig-zz      sig-xy      sig-yz      sig-zx       plastic
                                                                                                 strain 
       4-
 mid.  surface    -1.9516E+09 -1.8781E+09 -2.2307E+09  3.9915E+07 -4.1211E+07  1.8666E+08  2.0879E-02
       5-
 mid.  surface    -9.9184E+08 -8.8594E+08 -1.2174E+09  2.2605E+07 -2.2199E+07  1.4118E+08  1.5159E-02
       6-
 mid.  surface     9.6062E+08  9.6061E+08  7.8771E+08 -9.9939E+06 -1.4353E+08 -2.9787E+07  3.3094E-02
       7-
 mid.  surface     2.6881E+08  2.0465E+08  1.0177E+07  6.1601E+06 -1.4168E+08 -2.8383E+07  2.3684E-02
       8-
 mid.  surface     8.1429E+07  6.2012E+07 -1.2624E+08  1.7561E+07 -7.5805E+07 -3.4184E+06  4.4400E-02
       9-
 mid.  surface    -6.9309E+08 -6.5941E+08 -9.4268E+08 -1.9505E+07  2.7903E+07 -8.7710E+06  3.2598E-02
      10-
 mid.  surface     2.3472E+08  3.3484E+08  2.5619E+07 -2.0555E+07  3.8300E+07 -7.9914E+06  1.9437E-02
      15-
 mid.  surface     2.2278E+08  2.8055E+08  5.0108E+07  1.4336E+07 -2.0185E+08 -1.0016E+08  3.1602E-02
      16-
 mid.  surface    -1.3311E+08 -6.6001E+07 -2.8125E+08  1.7641E+07 -1.8450E+08 -9.2355E+07  4.4062E-02
      18-
 mid.  surface     7.1943E+08  7.7751E+08  5.6112E+08  1.1993E+07 -9.1122E+07 -3.6007E+07  3.5852E-02
      40-
 mid.  surface     6.9140E+06  2.8068E+07 -2.0260E+08  7.2446E+06  9.8953E+06  2.1234E+07  3.5190E-02
      41-
 mid.  surface    -1.5064E+08 -1.4679E+08 -3.7066E+08  5.0658E+06 -8.8991E+07 -1.0795E+07  1.1384E-02
      50-
 mid.  surface    -4.4259E+08 -5.2010E+08 -7.5679E+08  3.5007E+07  8.8341E+07  1.0848E+07  4.6918E-02
      51-
 mid.  surface    -1.9173E+09 -1.9136E+09 -2.0988E+09 -1.7758E+07  1.6326E+08 -2.0111E+08  3.6400E-02
      52-
 mid.  surface    -6.8264E+08 -6.3899E+08 -7.8281E+08  1.2674E+07  1.8822E+08 -2.1882E+08  3.6434E-02
      53-
 mid.  surface     1.9565E+08  1.1037E+08 -8.6033E+07  2.8315E+07  1.4393E+08  4.8246E+07  4.1837E-02
      72-
 mid.  surface    -3.4320E+08 -3.3311E+08 -6.6850E+08  4.3096E+07  4.8656E+07  4.9113E+07  2.6791E-02
      95-
 mid.  surface    -3.5928E+08 -4.1377E+08 -7.0767E+08  1.8822E+07  1.3322E+08  7.2202E+07  2.4219E-02
     100-
 mid.  surface    -5.7566E+08 -6.1846E+08 -8.2592E+08  4.0921E+06  3.6644E+07 -3.6666E+06  4.3542E-02
     110-
 mid.  surface    -8.8107E+08 -9.4687E+08 -1.1411E+09  7.9625E+06 -9.1287E+07 -4.0643E+07  3.0294E-02



 n o d a l  s t r a i n  c a l c u l a t i o n s   f o r   t i m e  s t e p      276   ( at time 3.38229E+00 )

 node (global)
          strain       eps-xx      eps-yy      eps-zz      eps-xy      eps-yz      eps-zx       
       4-
 mid.  surface     2.9355E-03  1.4793E-02 -4.5601E-02  4.7816E-03  3.8452E-04  2.5875E-02
       5-
 mid.  surface     3.3182E-03  1.6334E-02 -3.3672E-02  4.9863E-03  1.4686E-04  1.7373E-02
       6-
 mid.  surface     1.3957E-02  1.2260E-02 -1.3464E-02  3.0697E-03 -2.6550E-02 -1.5468E-02
       7-
 mid.  surface     1.4996E-02  7.6177E-03 -2.0525E-02  3.3049E-03 -2.8052E-02 -8.8828E-03
       8-
 mid.  surface     1.5635E-02  1.6209E-02 -3.1890E-02  4.9129E-03 -1.3992E-02 -5.2574E-04
       9-
 mid.  surface     1.5205E-02  1.9575E-02 -4.5846E-02 -3.3014E-03  6.5192E-03 -6.0848E-04
      10-
 mid.  surface     5.9143E-03  2.1259E-02 -2.4414E-02 -3.2061E-03  9.4855E-03 -5.8209E-04
      15-
 mid.  surface     1.1756E-02  1.4476E-02 -2.3729E-02  2.6429E-03 -2.5101E-02 -1.4401E-02
      16-
 mid.  surface     1.1518E-02  1.5577E-02 -2.9363E-02  3.3846E-03 -2.2327E-02 -1.6880E-02
      18-
 mid.  surface     8.8685E-03  1.9515E-02 -1.8628E-02  4.1437E-03 -1.1469E-02 -5.7610E-03
      40-
 mid.  surface     8.4103E-03  1.3211E-02 -2.2521E-02  1.7884E-03  2.3977E-03  2.8022E-03
      41-
 mid.  surface     6.2594E-03  6.4069E-03 -1.5841E-02  1.1244E-03 -1.8818E-02 -2.1215E-03
      50-
 mid.  surface     2.4131E-02  1.1730E-02 -4.4564E-02  6.0938E-03  1.2606E-02  1.2322E-02
      51-
 mid.  surface     3.9717E-03  6.1526E-03 -3.8160E-02 -6.1813E-03  1.4870E-02 -2.5634E-02
      52-
 mid.  surface     5.3729E-03  7.9626E-03 -2.3378E-02  8.1622E-04  1.9465E-02 -3.3597E-02
      53-
 mid.  surface     2.4014E-02  1.0210E-02 -3.3796E-02  8.5645E-03  1.4422E-02  1.0364E-02
      72-
 mid.  surface     1.5252E-02  1.5057E-02 -3.7051E-02  5.2607E-03  1.5012E-02  9.2506E-03
      95-
 mid.  surface     1.8002E-02  1.0843E-02 -3.6247E-02  4.2877E-03  1.8671E-02  6.1089E-03
     100-
 mid.  surface     1.6017E-02  1.0193E-02 -3.5958E-02  2.2398E-03  2.9533E-03 -2.7127E-03
     110-
 mid.  surface     1.6312E-02  5.2684E-03 -3.5858E-02  2.7301E-03 -2.1538E-02 -8.5753E-03



 n o d a l  s t r e s s  c a l c u l a t i o n s   f o r   t i m e  s t e p      283   ( at time 4.30621E+00 )

 node (global)
          stress       sig-xx      sig-yy      sig-zz      sig-xy      sig-yz      sig-zx       plastic
                                                                                                 strain 
       4-
 mid.  surface    -5.1389E+09 -5.0017E+09 -4.0956E+09  1.5648E+06  1.4764E+08  2.5364E+08 -1.3217E-02
       5-
 mid.  surface    -3.8605E+09 -3.6639E+09 -2.7714E+09 -1.2484E+07  1.5332E+08  1.4740E+08 -2.0890E-02
       6-
 mid.  surface    -3.8836E+08 -2.9478E+08  4.5067E+07 -2.3618E+07 -1.5381E+07  1.6015E+07  1.7029E-02
       7-
 mid.  surface     2.2893E+08  1.7984E+08 -3.9341E+07 -6.6559E+06 -1.2490E+08 -1.0398E+07  3.3537E-02
       8-
 mid.  surface     1.1637E+08  1.0555E+08 -1.4683E+08  1.9707E+07 -7.2307E+07  2.4961E+06  5.7573E-02
       9-
 mid.  surface    -7.2721E+08 -6.9358E+08 -9.5853E+08 -1.7121E+07 -2.6856E+07 -8.1451E+06  4.8715E-02
      10-
 mid.  surface     4.3133E+08  5.2698E+08  2.3543E+08 -2.1620E+07 -2.3010E+07 -5.7168E+06  3.1158E-02
      15-
 mid.  surface     1.6478E+08  2.1072E+08 -4.0348E+07 -8.7575E+06 -1.6990E+08 -8.1103E+07  4.3719E-02
      16-
 mid.  surface    -1.8109E+09 -1.6870E+09 -1.3626E+09 -1.4670E+07 -4.3668E+07 -1.7787E+07  3.1660E-02
      18-
 mid.  surface     9.0812E+08  9.6629E+08  6.9514E+08  1.7010E+07 -9.4089E+07 -2.5424E+07  4.6793E-02
      40-
 mid.  surface     7.2178E+07  1.0478E+08 -1.8202E+08  1.3073E+07  2.2251E+07  1.6574E+07  4.6440E-02
      41-
 mid.  surface    -1.7590E+08 -1.7286E+08 -3.9318E+08  2.1303E+06 -3.0009E+07 -5.3887E+06  2.2958E-02
      50-
 mid.  surface     1.2314E+09  1.0821E+09  1.7298E+08  5.5919E+07 -2.8831E+07 -5.7430E+07  8.9843E-02
      51-
 mid.  surface     1.0155E+09  8.3498E+08 -6.4438E+08  1.4795E+07 -9.0236E+07 -2.1481E+08  1.0771E-01
      52-
 mid.  surface     2.5921E+09  2.4636E+09  1.0020E+09  3.3297E+07 -8.4597E+07 -3.0018E+08  1.0765E-01
      53-
 mid.  surface     2.0885E+09  1.9322E+09  1.0401E+09  5.6381E+07  1.0946E+07 -4.6805E+07  8.2236E-02
      72-
 mid.  surface    -3.4765E+08 -3.6180E+08 -6.7291E+08  4.3428E+07  4.3773E+07  3.7792E+07  4.0168E-02
      95-
 mid.  surface    -3.0005E+08 -3.6370E+08 -6.4632E+08  2.8036E+07  1.1130E+08  6.0245E+07  3.7131E-02
     100-
 mid.  surface    -6.7209E+08 -6.8639E+08 -9.5527E+08 -6.7717E+05  5.1667E+07 -3.3188E+06  5.7931E-02
     110-
 mid.  surface    -1.1085E+09 -1.1705E+09 -1.3693E+09  9.6652E+05 -3.3658E+07 -3.6582E+07  4.6306E-02



 n o d a l  s t r a i n  c a l c u l a t i o n s   f o r   t i m e  s t e p      283   ( at time 4.30621E+00 )

 node (global)
          strain       eps-xx      eps-yy      eps-zz      eps-xy      eps-yz      eps-zx       
       4-
 mid.  surface     1.4327E-02  1.9932E-02 -6.1232E-02  6.5673E-03  2.2617E-04  2.8958E-02
       5-
 mid.  surface     1.4210E-02  2.3071E-02 -4.5809E-02  5.9258E-03 -7.5502E-04  1.4075E-02
       6-
 mid.  surface     1.9604E-02  1.7930E-02 -2.0854E-02  3.2234E-03 -3.1591E-02 -1.8625E-02
       7-
 mid.  surface     2.0335E-02  1.0529E-02 -2.9398E-02  3.0095E-03 -3.3910E-02 -9.2961E-03
       8-
 mid.  surface     2.2031E-02  2.2317E-02 -4.4233E-02  6.3692E-03 -1.7943E-02 -2.1316E-04
       9-
 mid.  surface     2.0665E-02  2.8066E-02 -6.0329E-02 -4.1458E-03  4.2592E-03 -9.3624E-04
      10-
 mid.  surface     8.8464E-03  3.0328E-02 -3.3636E-02 -4.3355E-03  8.1916E-03 -6.0919E-04
      15-
 mid.  surface     1.5759E-02  2.0256E-02 -3.4591E-02  1.8608E-03 -3.1168E-02 -1.7558E-02
      16-
 mid.  surface     1.6650E-02  2.1846E-02 -4.1751E-02  3.6054E-03 -2.6733E-02 -2.0761E-02
      18-
 mid.  surface     1.2847E-02  2.7127E-02 -2.7838E-02  5.4102E-03 -1.5409E-02 -6.7720E-03
      40-
 mid.  surface     1.3101E-02  1.9885E-02 -3.3190E-02  2.7916E-03  3.9498E-03  3.5333E-03
      41-
 mid.  surface     1.0525E-02  1.1183E-02 -2.5263E-02  1.3097E-03 -1.9721E-02 -2.3007E-03
      50-
 mid.  surface     3.1694E-02  1.7984E-02 -6.0213E-02  8.4350E-03  1.4943E-02  1.3971E-02
      51-
 mid.  surface     5.7323E-03  1.0972E-02 -5.4085E-02 -7.6589E-03  1.8712E-02 -2.7082E-02
      52-
 mid.  surface     7.7695E-03  1.3861E-02 -3.6137E-02  2.7241E-04  2.3494E-02 -4.1357E-02
      53-
 mid.  surface     3.1729E-02  1.5551E-02 -4.5661E-02  1.1331E-02  1.7405E-02  1.1711E-02
      72-
 mid.  surface     2.2901E-02  2.0895E-02 -5.0879E-02  7.7355E-03  1.7457E-02  1.0860E-02
      95-
 mid.  surface     2.6524E-02  1.5437E-02 -4.8735E-02  6.2462E-03  2.2707E-02  8.0771E-03
     100-
 mid.  surface     2.2566E-02  1.6271E-02 -5.0101E-02  2.3514E-03  4.8636E-03 -3.1949E-03
     110-
 mid.  surface     2.3466E-02  9.4123E-03 -5.0479E-02  2.8095E-03 -2.3659E-02 -1.0872E-02



 n o d a l  s t r e s s  c a l c u l a t i o n s   f o r   t i m e  s t e p      301   ( at time 5.77053E+00 )

 node (global)
          stress       sig-xx      sig-yy      sig-zz      sig-xy      sig-yz      sig-zx       plastic
                                                                                                 strain 
       4-
 mid.  surface    -7.2728E+09 -7.3178E+09 -5.9129E+09  4.7343E+07  2.1895E+08  2.3546E+08 -9.8253E-02
       5-
 mid.  surface    -4.0377E+09 -4.0662E+09 -3.4297E+09 -3.9325E+07  9.1038E+07  1.5762E+08 -5.5357E-02
       6-
 mid.  surface    -1.4831E+09 -1.4523E+09 -7.9470E+08 -1.8828E+07  1.1179E+08  1.6140E+08 -2.9918E-02
       7-
 mid.  surface    -9.3857E+08 -1.0055E+09 -6.4556E+08 -1.1616E+07  8.1621E+07  7.3901E+07  8.9918E-03
       8-
 mid.  surface     2.0331E+08  1.7260E+08 -1.1198E+08  1.1200E+07 -6.7847E+07  1.1085E+07  7.4543E-02
       9-
 mid.  surface    -7.2003E+08 -6.8980E+08 -9.6577E+08 -1.6187E+07 -5.5483E+07 -9.5548E+06  7.2504E-02
      10-
 mid.  surface     7.2505E+08  7.8866E+08  5.0610E+08 -1.7680E+07 -7.8316E+07 -8.0276E+06  5.1038E-02
      15-
 mid.  surface    -1.1871E+09 -1.1719E+09 -8.3432E+08 -1.2086E+07  5.0350E+07  4.6104E+07  2.4733E-02
      16-
 mid.  surface    -3.5811E+09 -3.4885E+09 -2.7440E+09  2.4255E+07  1.1870E+08  1.4974E+08 -1.5566E-02
      18-
 mid.  surface     1.0814E+09  1.0909E+09  8.1046E+08  2.9409E+06 -1.1657E+08 -1.9518E+07  6.4249E-02
      40-
 mid.  surface     6.0797E+07  6.6124E+07 -2.2516E+08  7.2265E+06  3.0994E+07  1.6606E+07  6.6783E-02
      41-
 mid.  surface    -2.4843E+08 -2.7249E+08 -4.8374E+08  5.6253E+06 -4.9509E+06 -4.5924E+06  4.4895E-02
      50-
 mid.  surface     2.5870E+09  2.5810E+09  1.1612E+09  1.7844E+07 -2.1716E+08 -2.2231E+08  1.9112E-01
      51-
 mid.  surface    -2.6514E+08 -2.9510E+08 -8.5378E+08  2.0024E+07  1.4280E+08 -1.7300E+08  1.4899E-01
      52-
 mid.  surface     3.2260E+09  3.2334E+09  1.9607E+09 -1.9404E+07  2.8809E+07 -2.3623E+08  1.9375E-01
      53-
 mid.  surface     4.5301E+09  4.5311E+09  2.7261E+09 -1.0061E+07 -2.7094E+08 -2.5426E+08  2.0664E-01
      72-
 mid.  surface     7.7399E+08  7.8137E+08 -1.6715E+08  1.2891E+07 -1.5734E+08 -9.3430E+07  1.0973E-01
      95-
 mid.  surface     1.0101E+09  9.9501E+08  5.7432E+07  3.8282E+06 -1.0789E+08 -8.6061E+07  1.0458E-01
     100-
 mid.  surface    -7.5608E+08 -7.7432E+08 -1.0550E+09 -2.0681E+06  8.8202E+07  2.0279E+07  8.1184E-02
     110-
 mid.  surface    -1.4647E+09 -1.5267E+09 -1.7260E+09  9.9692E+05  1.9774E+07 -2.6530E+07  7.3516E-02



 n o d a l  s t r a i n  c a l c u l a t i o n s   f o r   t i m e  s t e p      301   ( at time 5.77053E+00 )

 node (global)
          strain       eps-xx      eps-yy      eps-zz      eps-xy      eps-yz      eps-zx       
       4-
 mid.  surface     2.3640E-02  3.3057E-02 -8.6073E-02  6.4545E-03  1.1765E-03  1.9826E-02
       5-
 mid.  surface     2.5530E-02  3.6483E-02 -6.6095E-02  5.7951E-04  1.1558E-03  8.0846E-03
       6-
 mid.  surface     2.4993E-02  3.0038E-02 -3.4759E-02  1.9999E-03 -3.9439E-02 -2.0571E-02
       7-
 mid.  surface     3.2383E-02  1.5245E-02 -4.5301E-02  2.6227E-03 -4.1151E-02 -1.2101E-02
       8-
 mid.  surface     3.2352E-02  2.9297E-02 -6.0886E-02  7.4521E-03 -2.4262E-02  7.5118E-04
       9-
 mid.  surface     2.9389E-02  4.0796E-02 -8.2088E-02 -5.5491E-03 -1.1353E-03 -1.6752E-03
      10-
 mid.  surface     1.5477E-02  4.4302E-02 -5.0565E-02 -6.0350E-03  3.2062E-03 -9.0014E-04
      15-
 mid.  surface     2.6033E-02  2.9842E-02 -5.6347E-02  1.5012E-03 -3.8313E-02 -2.1315E-02
      16-
 mid.  surface     1.9413E-02  3.6989E-02 -6.3028E-02  6.5231E-03 -3.4298E-02 -2.3839E-02
      18-
 mid.  surface     2.1652E-02  3.6595E-02 -4.4368E-02  5.8225E-03 -2.3254E-02 -7.7110E-03
      40-
 mid.  surface     2.2437E-02  2.9451E-02 -5.2836E-02  3.5380E-03  7.5764E-03  4.7088E-03
      41-
 mid.  surface     1.9793E-02  1.9251E-02 -4.4032E-02  1.9209E-03 -1.9206E-02 -2.5074E-03
      50-
 mid.  surface     4.2003E-02  2.6724E-02 -8.3580E-02  9.6361E-03  1.5145E-02  1.4427E-02
      51-
 mid.  surface     2.0657E-02  1.6696E-02 -8.3861E-02 -7.6644E-03  2.6962E-02 -3.2225E-02
      52-
 mid.  surface     2.4359E-02  2.2374E-02 -6.1724E-02 -2.9093E-04  3.2980E-02 -4.2906E-02
      53-
 mid.  surface     4.1542E-02  2.4366E-02 -6.3297E-02  1.1673E-02  1.7347E-02  1.2511E-02
      72-
 mid.  surface     3.2409E-02  3.2421E-02 -7.5636E-02  8.4492E-03  2.2572E-02  1.2430E-02
      95-
 mid.  surface     3.5747E-02  2.5327E-02 -6.8689E-02  5.9346E-03  2.7976E-02  8.8190E-03
     100-
 mid.  surface     3.3637E-02  2.4608E-02 -7.1131E-02  2.1463E-03  9.6903E-03 -2.0791E-03
     110-
 mid.  surface     3.5437E-02  1.6083E-02 -7.4480E-02  2.9539E-03 -2.3622E-02 -1.3519E-02



 n o d a l  s t r e s s  c a l c u l a t i o n s   f o r   t i m e  s t e p      311   ( at time 7.23486E+00 )

 node (global)
          stress       sig-xx      sig-yy      sig-zz      sig-xy      sig-yz      sig-zx       plastic
                                                                                                 strain 
       4-
 mid.  surface    -6.9740E+09 -6.9302E+09 -6.4583E+09  1.0308E+08  1.0606E+08  6.0907E+07 -1.1454E-01
       5-
 mid.  surface    -4.8157E+09 -4.9169E+09 -4.2042E+09 -4.3467E+06  1.5097E+08  1.5644E+08 -9.2705E-02
       6-
 mid.  surface    -2.3468E+09 -2.3038E+09 -1.6080E+09 -2.6466E+07  7.9495E+07  1.5871E+08 -8.0271E-02
       7-
 mid.  surface    -1.2782E+09 -1.3110E+09 -9.5295E+08 -4.9690E+06  7.5823E+07  7.7072E+07 -1.1104E-02
       8-
 mid.  surface     1.7422E+08  1.3408E+08 -1.4453E+08  2.4705E+06 -5.2641E+07  1.2990E+07  9.3678E-02
       9-
 mid.  surface    -7.5574E+08 -7.3524E+08 -1.0222E+09 -1.3571E+07 -5.6409E+07 -9.8269E+06  9.5794E-02
      10-
 mid.  surface     9.4067E+08  9.8898E+08  6.9680E+08 -1.7669E+07 -8.8474E+07 -7.3205E+06  7.0910E-02
      15-
 mid.  surface    -1.8046E+09 -1.7696E+09 -1.4256E+09  2.0764E+06  3.1069E+07  4.8922E+07  9.2292E-03
      16-
 mid.  surface    -3.8130E+09 -3.6883E+09 -3.4063E+09  2.6775E+07  4.6518E+07  4.7493E+07 -2.9086E-02
      18-
 mid.  surface     1.1481E+09  1.1465E+09  8.7139E+08 -6.6845E+06 -1.1423E+08 -1.7661E+07  8.3311E-02
      40-
 mid.  surface     1.2110E+08  1.3610E+08 -1.7556E+08  9.4479E+06  2.4770E+07  1.8982E+07  8.7703E-02
      41-
 mid.  surface    -2.6917E+08 -2.9097E+08 -5.3701E+08  1.8562E+06  2.2609E+06 -2.3735E+05  6.6415E-02
      50-
 mid.  surface     3.3043E+09  3.3064E+09  1.8525E+09 -7.3468E+06 -2.3360E+08 -2.1421E+08  2.8850E-01
      51-
 mid.  surface     3.0836E+08  2.6818E+08 -2.8611E+08  4.9441E+07  1.7382E+08 -1.5092E+08  1.9761E-01
      52-
 mid.  surface     1.6275E+09  1.5012E+09  1.7459E+09 -1.9928E+07  2.2414E+08  7.9891E+07  1.7641E-01
      53-
 mid.  surface     4.2541E+09  4.1997E+09  3.1158E+09 -5.4940E+07 -1.8180E+08 -1.1153E+08  2.7330E-01
      72-
 mid.  surface     9.9221E+08  9.6510E+08 -6.2741E+06 -9.1390E+04 -1.4802E+08 -9.4914E+07  1.7611E-01
      95-
 mid.  surface     1.4354E+09  1.3900E+09  4.3206E+08 -1.1397E+07 -8.2088E+07 -9.1551E+07  1.7005E-01
     100-
 mid.  surface    -8.1778E+08 -8.2195E+08 -1.1168E+09  2.6179E+05  9.2724E+07  2.5101E+07  1.0606E-01
     110-
 mid.  surface    -1.7337E+09 -1.7890E+09 -2.0154E+09 -3.0207E+06  3.5172E+07 -2.0547E+07  1.0056E-01



 n o d a l  s t r a i n  c a l c u l a t i o n s   f o r   t i m e  s t e p      311   ( at time 7.23486E+00 )

 node (global)
          strain       eps-xx      eps-yy      eps-zz      eps-xy      eps-yz      eps-zx       
       4-
 mid.  surface     3.6485E-02  4.7967E-02 -1.1515E-01  8.7515E-03  6.1231E-04  1.1517E-02
       5-
 mid.  surface     3.9312E-02  4.7459E-02 -8.7121E-02 -2.2157E-03  1.3340E-03  2.4522E-04
       6-
 mid.  surface     3.2157E-02  3.9463E-02 -4.7174E-02 -1.4569E-03 -4.4930E-02 -2.4708E-02
       7-
 mid.  surface     4.4667E-02  2.0837E-02 -6.2411E-02  1.9593E-03 -4.5909E-02 -1.4362E-02
       8-
 mid.  surface     4.3283E-02  3.5940E-02 -7.9197E-02  7.8592E-03 -2.8448E-02  1.6716E-03
       9-
 mid.  surface     3.8532E-02  5.2902E-02 -1.0432E-01 -6.4920E-03 -5.8143E-03 -2.2776E-03
      10-
 mid.  surface     2.2641E-02  5.7954E-02 -6.8760E-02 -7.6189E-03 -8.3152E-04 -9.5559E-04
      15-
 mid.  surface     3.6129E-02  3.8896E-02 -7.8801E-02  1.7039E-03 -4.3715E-02 -2.5001E-02
      16-
 mid.  surface     2.4693E-02  5.0049E-02 -8.3853E-02  7.1453E-03 -4.0483E-02 -2.8367E-02
      18-
 mid.  surface     3.0576E-02  4.6153E-02 -6.2195E-02  5.6282E-03 -2.9211E-02 -8.3602E-03
      40-
 mid.  surface     3.1860E-02  4.0821E-02 -7.3090E-02  4.6064E-03  9.9008E-03  5.7756E-03
      41-
 mid.  surface     2.9558E-02  2.8966E-02 -6.4193E-02  2.0707E-03 -1.8987E-02 -2.0888E-03
      50-
 mid.  surface     5.1303E-02  3.7228E-02 -1.0734E-01  1.1218E-02  1.5014E-02  1.7461E-02
      51-
 mid.  surface     3.5417E-02  2.4780E-02 -1.1683E-01 -6.5066E-03  3.3405E-02 -3.5715E-02
      52-
 mid.  surface     4.0097E-02  3.1221E-02 -8.7218E-02 -1.4956E-04  4.1361E-02 -4.4801E-02
      53-
 mid.  surface     5.0552E-02  3.4454E-02 -8.1089E-02  1.1884E-02  1.8217E-02  1.3607E-02
      72-
 mid.  surface     4.2855E-02  4.3718E-02 -1.0116E-01  9.9023E-03  2.5634E-02  1.4527E-02
      95-
 mid.  surface     4.6768E-02  3.5138E-02 -9.0314E-02  5.9862E-03  3.2175E-02  9.8980E-03
     100-
 mid.  surface     4.4976E-02  3.4621E-02 -9.3672E-02  2.2015E-03  1.3378E-02 -1.3655E-03
     110-
 mid.  surface     4.7971E-02  2.4143E-02 -9.9310E-02  2.6625E-03 -2.4172E-02 -1.5660E-02



 n o d a l  s t r e s s  c a l c u l a t i o n s   f o r   t i m e  s t e p      320   ( at time 8.69918E+00 )

 node (global)
          stress       sig-xx      sig-yy      sig-zz      sig-xy      sig-yz      sig-zx       plastic
                                                                                                 strain 
       4-
 mid.  surface    -4.4673E+09 -4.6087E+09 -5.5419E+09  5.1653E+07  4.9682E+07 -7.0210E+07 -2.8865E-02
       5-
 mid.  surface    -8.1100E+09 -8.1040E+09 -6.0404E+09 -5.3416E+06  4.0998E+07  2.1817E+08 -2.3069E-01
       6-
 mid.  surface    -4.0620E+09 -3.9547E+09 -2.7748E+09 -5.8167E+06  1.1640E+07  1.9442E+08 -1.7427E-01
       7-
 mid.  surface    -5.3871E+08 -5.6594E+08 -6.4063E+08 -2.0866E+07 -7.9231E+07  1.5862E+07  2.9184E-03
       8-
 mid.  surface    -5.5314E+08 -6.9612E+08 -7.5299E+08  8.8289E+06  1.1223E+06  7.0628E+07  9.4531E-02
       9-
 mid.  surface    -8.8425E+08 -8.4342E+08 -1.1286E+09 -2.4002E+06 -5.1550E+07 -2.8448E+07  1.2314E-01
      10-
 mid.  surface     1.1287E+09  1.2244E+09  9.2840E+08 -6.7571E+06 -4.7897E+07 -1.6824E+07  9.3409E-02
      15-
 mid.  surface    -1.3435E+09 -1.2795E+09 -1.3747E+09 -4.5068E+07 -8.7210E+07 -4.9619E+07  2.7850E-02
      16-
 mid.  surface    -3.6815E+09 -3.6816E+09 -3.8925E+09  1.6608E+07  1.1955E+08  2.3979E+07 -1.1323E-02
      18-
 mid.  surface     1.4139E+09  1.4480E+09  9.7039E+08 -5.3787E+07 -1.4380E+08 -5.5344E+07  1.1368E-01
      40-
 mid.  surface    -1.0866E+08 -1.2430E+08 -2.5768E+08  4.6284E+07  4.0058E+07  7.8512E+07  8.9458E-02
      41-
 mid.  surface    -3.6245E+08 -4.0168E+08 -6.5682E+08 -1.7664E+07  2.6903E+06  5.9150E+06  8.5805E-02
      50-
 mid.  surface     4.3877E+09  4.3733E+09  2.6586E+09  1.3593E+07  4.2514E+06 -2.1430E+08  4.0552E-01
      51-
 mid.  surface     3.8899E+09  3.6338E+09  1.6852E+09  7.5580E+06  1.2821E+08 -2.1589E+08  3.6203E-01
      52-
 mid.  surface    -8.9363E+08 -9.1127E+08  7.0241E+08 -1.8970E+07  1.4190E+08  2.2890E+08  7.0562E-02
      53-
 mid.  surface     3.2552E+09  3.3314E+09  3.0282E+09 -1.2930E+07 -5.9807E+07 -5.1935E+07  2.8139E-01
      72-
 mid.  surface     1.2520E+09  1.3480E+09  3.2278E+08  5.7655E+06 -1.2480E+08 -1.6790E+08  2.4732E-01
      95-
 mid.  surface     2.0365E+09  1.9943E+09  1.0113E+09  3.2132E+07 -8.7986E+07 -1.2015E+08  2.3735E-01
     100-
 mid.  surface    -1.9480E+09 -2.0823E+09 -1.8268E+09  6.4599E+07  1.9725E+08  1.5748E+08  8.5857E-02
     110-
 mid.  surface    -2.1573E+09 -2.2501E+09 -2.4902E+09 -3.0705E+07  2.9814E+06 -2.9181E+07  1.2595E-01



 n o d a l  s t r a i n  c a l c u l a t i o n s   f o r   t i m e  s t e p      320   ( at time 8.69918E+00 )

 node (global)
          strain       eps-xx      eps-yy      eps-zz      eps-xy      eps-yz      eps-zx       
       4-
 mid.  surface     5.7653E-02  6.0894E-02 -1.4832E-01  1.1869E-02 -2.3330E-03  2.6779E-03
       5-
 mid.  surface     5.9235E-02  5.6764E-02 -1.0981E-01 -3.0611E-03 -1.0236E-03 -1.0223E-02
       6-
 mid.  surface     3.8270E-02  5.0424E-02 -5.7394E-02 -3.5355E-03 -4.8283E-02 -2.9713E-02
       7-
 mid.  surface     5.7413E-02  2.9678E-02 -8.1957E-02  2.8477E-03 -5.0514E-02 -1.6701E-02
       8-
 mid.  surface     5.5041E-02  3.7511E-02 -9.6844E-02  7.0722E-03 -2.9734E-02  4.1499E-03
       9-
 mid.  surface     4.7788E-02  6.6568E-02 -1.2924E-01 -5.8570E-03 -9.4048E-03 -4.4616E-03
      10-
 mid.  surface     2.7992E-02  7.4443E-02 -8.7756E-02 -7.6253E-03 -4.4999E-04 -2.0549E-03
      15-
 mid.  surface     4.6002E-02  5.0949E-02 -1.0278E-01  7.8882E-04 -4.7133E-02 -3.1022E-02
      16-
 mid.  surface     3.0792E-02  6.1456E-02 -1.0466E-01  7.4409E-03 -4.3082E-02 -3.3744E-02
      18-
 mid.  surface     3.7762E-02  5.2771E-02 -7.8509E-02  2.3476E-03 -3.3541E-02 -7.7479E-03
      40-
 mid.  surface     4.0447E-02  5.2444E-02 -9.0172E-02  7.5514E-03  8.6794E-03  7.6080E-03
      41-
 mid.  surface     3.9181E-02  3.6565E-02 -8.3178E-02  2.4779E-04 -2.0572E-02 -1.1313E-03
      50-
 mid.  surface     5.9875E-02  4.8558E-02 -1.3069E-01  1.2293E-02  1.6061E-02  2.0823E-02
      51-
 mid.  surface     5.0269E-02  3.6557E-02 -1.5395E-01 -3.3397E-03  3.6963E-02 -3.7848E-02
      52-
 mid.  surface     5.4216E-02  4.3068E-02 -1.1461E-01  7.5897E-04  4.9533E-02 -4.5274E-02
      53-
 mid.  surface     5.9382E-02  4.4161E-02 -9.6602E-02  1.1707E-02  2.0578E-02  1.2968E-02
      72-
 mid.  surface     5.2449E-02  5.6441E-02 -1.2725E-01  1.3057E-02  2.5104E-02  1.3903E-02
      95-
 mid.  surface     6.0004E-02  4.4911E-02 -1.1218E-01  8.5886E-03  3.3341E-02  8.8560E-03
     100-
 mid.  surface     5.7285E-02  4.4576E-02 -1.1442E-01  3.8737E-03  1.5048E-02 -5.3771E-04
     110-
 mid.  surface     6.1724E-02  2.9251E-02 -1.2497E-01 -3.4660E-04 -2.8916E-02 -1.8636E-02



 n o d a l  s t r e s s  c a l c u l a t i o n s   f o r   t i m e  s t e p      335   ( at time 1.01635E+01 )

 node (global)
          stress       sig-xx      sig-yy      sig-zz      sig-xy      sig-yz      sig-zx       plastic
                                                                                                 strain 
       4-
 mid.  surface    -6.3077E+09 -6.2819E+09 -6.2201E+09  5.3321E+07  5.3062E+07 -1.5279E+07  1.5763E-02
       5-
 mid.  surface    -5.4548E+09 -5.5339E+09 -5.4467E+09  7.0083E+07 -1.3581E+07 -6.2731E+07 -2.0152E-01
       6-
 mid.  surface    -3.7856E+09 -3.7293E+09 -3.5329E+09  4.5411E+07  1.0964E+07  2.0300E+08 -2.0649E-01
       7-
 mid.  surface    -1.8126E+09 -1.7140E+09 -1.2733E+09  6.1268E+07  5.8168E+07  1.8538E+08 -3.4591E-02
       8-
 mid.  surface    -2.3774E+09 -2.4305E+09 -1.9266E+09  3.5018E+07  2.1639E+08  1.2215E+08  4.8348E-02
       9-
 mid.  surface    -1.0015E+09 -1.0140E+09 -1.3072E+09 -2.8454E+07 -5.3758E+07  4.5002E+06  1.4718E-01
      10-
 mid.  surface     1.5108E+09  1.5311E+09  1.2546E+09 -3.3385E+07 -1.4179E+08  2.6372E+05  1.1193E-01
      15-
 mid.  surface    -2.3361E+09 -2.2821E+09 -1.7272E+09 -2.1727E+06  6.2097E+07  2.4110E+06 -4.7407E-03
      16-
 mid.  surface    -6.4879E+09 -6.5281E+09 -5.8241E+09 -2.8369E+07  1.7841E+08  1.0830E+08 -6.2152E-02
      18-
 mid.  surface     6.3938E+08  6.9670E+08  8.3214E+08  4.1238E+05  3.9219E+07  5.0400E+06  9.9156E-02
      40-
 mid.  surface     1.4100E+09  1.3787E+09  6.2823E+08 -7.9296E+05 -1.6977E+08 -2.9916E+07  1.5056E-01
      41-
 mid.  surface    -1.8969E+08 -1.8986E+08 -4.3778E+08  1.4045E+06 -2.3442E+07  1.1039E+07  1.0895E-01
      50-
 mid.  surface     2.6077E+09  2.5800E+09  2.1309E+09 -6.1333E+07  5.4170E+07 -1.1247E+08  4.2927E-01
      51-
 mid.  surface     2.5631E+09  2.4222E+09  2.2279E+09  2.6082E+07  2.0762E+08 -1.0414E+08  4.0801E-01
      52-
 mid.  surface     2.8848E+09  2.6812E+09  2.5063E+09  4.3731E+07  2.1795E+08 -1.4957E+08  1.1093E-01
      53-
 mid.  surface     4.4572E+09  4.4595E+09  3.5816E+09 -2.9262E+07 -7.0018E+07 -1.6103E+07  3.2229E-01
      72-
 mid.  surface     3.2699E+09  3.2798E+09  1.7069E+09 -9.0426E+07 -4.4139E+08 -2.7031E+08  3.8485E-01
      95-
 mid.  surface     3.6751E+09  3.6932E+09  2.0123E+09 -4.7028E+07 -4.0220E+08 -1.2782E+08  3.6816E-01
     100-
 mid.  surface    -1.4167E+09 -1.5269E+09 -1.9255E+09  6.0957E+06  2.5813E+07  3.1854E+07  1.2522E-01
     110-
 mid.  surface    -2.5094E+09 -2.5502E+09 -2.7903E+09  7.0347E+06  7.5709E+07 -2.0413E+07  1.5870E-01



 n o d a l  s t r a i n  c a l c u l a t i o n s   f o r   t i m e  s t e p      335   ( at time 1.01635E+01 )

 node (global)
          strain       eps-xx      eps-yy      eps-zz      eps-xy      eps-yz      eps-zx       
       4-
 mid.  surface     1.0379E-01  6.9963E-02 -1.9440E-01  2.0185E-02 -5.9230E-03 -2.9708E-03
       5-
 mid.  surface     9.5874E-02  7.0006E-02 -1.2608E-01  1.1130E-02 -1.1965E-02 -4.5002E-02
       6-
 mid.  surface     4.4109E-02  6.4160E-02 -6.6470E-02 -4.3380E-03 -5.5432E-02 -3.5500E-02
       7-
 mid.  surface     6.1836E-02  4.3505E-02 -1.0429E-01  6.5961E-04 -5.8812E-02 -9.4771E-03
       8-
 mid.  surface     6.8701E-02  4.5147E-02 -1.2049E-01  7.9052E-03 -3.1817E-02  5.4747E-03
       9-
 mid.  surface     5.9220E-02  7.6612E-02 -1.5334E-01 -9.0093E-03 -1.4246E-02 -3.4428E-03
      10-
 mid.  surface     3.6483E-02  8.7667E-02 -1.0484E-01 -1.1292E-02 -6.2547E-03 -4.4888E-04
      15-
 mid.  surface     5.0823E-02  6.4557E-02 -1.2373E-01 -6.9025E-03 -5.6354E-02 -3.4745E-02
      16-
 mid.  surface     4.3589E-02  6.8246E-02 -1.3555E-01 -2.4893E-03 -4.1576E-02 -4.0625E-02
      18-
 mid.  surface     4.7913E-02  6.5308E-02 -9.6428E-02  3.3110E-03 -3.8419E-02 -7.8795E-03
      40-
 mid.  surface     4.8992E-02  6.7039E-02 -1.0895E-01  7.5282E-03  7.4727E-03  6.5500E-03
      41-
 mid.  surface     4.8445E-02  4.9436E-02 -1.0266E-01  1.2626E-03 -2.4806E-02 -2.5527E-05
      50-
 mid.  surface     6.9505E-02  6.5341E-02 -1.6721E-01  1.4275E-02  1.9868E-02  2.3056E-02
      51-
 mid.  surface     5.7772E-02  6.0334E-02 -2.1113E-01 -1.0018E-02  4.1950E-02 -2.2686E-02
      52-
 mid.  surface     5.5536E-02  6.2278E-02 -1.4287E-01 -8.4376E-03  6.3244E-02 -5.5058E-02
      53-
 mid.  surface     6.9970E-02  5.7760E-02 -1.1409E-01  1.5027E-02  2.2875E-02  1.1431E-02
      72-
 mid.  surface     6.9669E-02  6.7061E-02 -1.5099E-01  1.8219E-02  1.9498E-02  1.1851E-02
      95-
 mid.  surface     8.4314E-02  5.2816E-02 -1.3666E-01  1.4501E-02  3.1679E-02  9.5030E-03
     100-
 mid.  surface     7.0255E-02  5.6648E-02 -1.4237E-01  1.8004E-03  1.6381E-02 -4.7800E-03
     110-
 mid.  surface     7.5348E-02  3.8882E-02 -1.5320E-01  1.0929E-03 -3.3143E-02 -2.3286E-02



 n o d a l  s t r e s s  c a l c u l a t i o n s   f o r   t i m e  s t e p      345   ( at time 1.16278E+01 )

 node (global)
          stress       sig-xx      sig-yy      sig-zz      sig-xy      sig-yz      sig-zx       plastic
                                                                                                 strain 
       4-
 mid.  surface    -3.3086E+09 -3.4770E+09 -4.9642E+09  7.7756E+07  1.7815E+08  1.3910E+08  1.4947E-01
       5-
 mid.  surface    -2.8351E+09 -3.1470E+09 -4.5784E+09  6.4424E+07  1.2340E+08  3.4021E+06 -7.4441E-02
       6-
 mid.  surface    -3.1688E+09 -3.2232E+09 -3.5006E+09  6.4847E+07  9.3804E+07  1.7453E+08 -1.8968E-01
       7-
 mid.  surface    -1.7448E+09 -1.6990E+09 -1.3554E+09  4.7803E+07  4.1535E+07  9.6596E+07 -4.7802E-02
       8-
 mid.  surface    -2.9582E+09 -2.9896E+09 -2.4557E+09  2.8431E+07  1.9181E+08  1.1810E+08  7.6037E-03
       9-
 mid.  surface    -1.1304E+09 -1.1388E+09 -1.4344E+09 -2.3173E+07 -5.8499E+07 -1.0670E+06  1.6992E-01
      10-
 mid.  surface     1.5987E+09  1.6120E+09  1.3394E+09 -2.8875E+07 -1.4481E+08 -4.2460E+06  1.3291E-01
      15-
 mid.  surface    -2.1059E+09 -2.1222E+09 -1.8057E+09 -9.7833E+06  3.6095E+06 -1.7511E+07 -8.9917E-03
      16-
 mid.  surface    -5.3140E+09 -5.4585E+09 -5.6499E+09 -4.5486E+06  1.4386E+08  1.3528E+08 -3.8253E-02
      18-
 mid.  surface     4.8866E+08  5.3299E+08  6.8550E+08 -1.4814E+06  7.0957E+06  1.5131E+07  8.7648E-02
      40-
 mid.  surface     1.7157E+09  1.6817E+09  8.7714E+08 -7.2583E+06 -1.5630E+08 -3.1821E+07  2.0301E-01
      41-
 mid.  surface    -1.7997E+08 -1.7800E+08 -4.5740E+08 -1.1179E+06 -1.9520E+07  1.2907E+07  1.3138E-01
      50-
 mid.  surface     1.0842E+09  1.1819E+09  1.5833E+09 -4.4465E+07  3.7438E+07 -3.5145E+07  3.8610E-01
      51-
 mid.  surface     5.3353E+07  1.6987E+08  1.2684E+09 -1.2788E+07  1.0394E+08 -4.9557E+07  3.3568E-01
      52-
 mid.  surface     1.1085E+08  1.3020E+08  1.2650E+09 -1.9090E+07  1.0533E+08 -1.2974E+08  3.4964E-02
      53-
 mid.  surface     2.3466E+09  2.5043E+09  2.8498E+09 -3.9930E+05  6.2790E+06  6.7646E+06  2.7540E-01
      72-
 mid.  surface     4.4950E+09  4.4540E+09  2.6076E+09 -8.4284E+07 -4.1933E+08 -2.8646E+08  5.1934E-01
      95-
 mid.  surface     4.0516E+09  4.0896E+09  2.5495E+09 -1.9576E+07 -2.7995E+08 -1.4199E+08  4.7243E-01
     100-
 mid.  surface    -1.6183E+09 -1.6972E+09 -2.1363E+09 -6.4183E+05  3.8468E+07  3.4237E+07  1.5730E-01
     110-
 mid.  surface    -2.7851E+09 -2.8107E+09 -3.0790E+09  4.4533E+05  7.7172E+07 -7.8780E+06  1.8737E-01



 n o d a l  s t r a i n  c a l c u l a t i o n s   f o r   t i m e  s t e p      345   ( at time 1.16278E+01 )

 node (global)
          strain       eps-xx      eps-yy      eps-zz      eps-xy      eps-yz      eps-zx       
       4-
 mid.  surface     1.2495E-01  7.9636E-02 -2.3086E-01  2.4774E-02 -8.2782E-03 -6.6736E-03
       5-
 mid.  surface     1.1140E-01  8.0858E-02 -1.4407E-01  1.7116E-02 -1.6505E-02 -5.7673E-02
       6-
 mid.  surface     4.8718E-02  7.5419E-02 -7.4387E-02 -3.8294E-03 -6.0924E-02 -3.9204E-02
       7-
 mid.  surface     7.2807E-02  5.4946E-02 -1.2689E-01  2.3208E-03 -6.2080E-02 -9.6021E-03
       8-
 mid.  surface     8.0105E-02  5.0370E-02 -1.3914E-01  7.2469E-03 -3.3051E-02  6.2987E-03
       9-
 mid.  surface     6.9129E-02  8.6733E-02 -1.7549E-01 -1.0416E-02 -1.9077E-02 -3.5859E-03
      10-
 mid.  surface     4.4701E-02  1.0069E-01 -1.2512E-01 -1.3270E-02 -1.0118E-02  4.7896E-05
      15-
 mid.  surface     6.2055E-02  7.5743E-02 -1.4808E-01 -8.1881E-03 -5.9416E-02 -3.8073E-02
      16-
 mid.  surface     5.2694E-02  7.6449E-02 -1.5816E-01 -4.7836E-03 -4.2610E-02 -4.4604E-02
      18-
 mid.  surface     5.6789E-02  7.4203E-02 -1.1487E-01  2.1524E-03 -4.2100E-02 -7.5455E-03
      40-
 mid.  surface     5.7427E-02  7.9703E-02 -1.2801E-01  8.5820E-03  6.8901E-03  6.7631E-03
      41-
 mid.  surface     5.7891E-02  6.1599E-02 -1.2455E-01  1.6374E-03 -2.8624E-02  1.5639E-03
      50-
 mid.  surface     8.1368E-02  7.6184E-02 -1.9505E-01  1.2978E-02  2.3183E-02  2.8346E-02
      51-
 mid.  surface     7.3898E-02  7.4931E-02 -2.5456E-01 -1.0873E-02  4.8252E-02 -2.2422E-02
      52-
 mid.  surface     6.6919E-02  7.6544E-02 -1.6844E-01 -1.0111E-02  7.5092E-02 -5.8742E-02
      53-
 mid.  surface     8.0479E-02  6.9234E-02 -1.3105E-01  1.4844E-02  2.2600E-02  1.1770E-02
      72-
 mid.  surface     8.1539E-02  7.8726E-02 -1.7702E-01  2.0334E-02  1.8189E-02  1.1396E-02
      95-
 mid.  surface     9.9045E-02  6.3728E-02 -1.6087E-01  1.6629E-02  3.0820E-02  8.8065E-03
     100-
 mid.  surface     8.1274E-02  6.8076E-02 -1.6575E-01  1.8795E-03  1.6895E-02 -6.4938E-03
     110-
 mid.  surface     8.7481E-02  4.8491E-02 -1.7927E-01  1.0968E-03 -3.7727E-02 -2.5254E-02



 n o d a l  s t r e s s  c a l c u l a t i o n s   f o r   t i m e  s t e p      358   ( at time 1.30921E+01 )

 node (global)
          stress       sig-xx      sig-yy      sig-zz      sig-xy      sig-yz      sig-zx       plastic
                                                                                                 strain 
       4-
 mid.  surface    -2.7334E+09 -2.8372E+09 -4.3376E+09  1.5427E+08  2.0839E+08  1.3663E+08  3.3311E-01
       5-
 mid.  surface    -2.9462E+09 -3.2845E+09 -4.6900E+09  1.0193E+08  1.2474E+08 -1.8163E+08  9.9204E-02
       6-
 mid.  surface    -2.6287E+09 -2.7686E+09 -3.0567E+09  1.4771E+08  1.2540E+08  1.7730E+08 -1.6943E-01
       7-
 mid.  surface    -4.0125E+08 -3.5937E+08 -8.1834E+08  5.0819E+07 -6.1043E+07  5.7043E+07 -9.5769E-03
       8-
 mid.  surface    -3.1144E+09 -3.0640E+09 -2.7142E+09  4.5079E+07  2.9185E+08  7.1442E+07 -3.7858E-02
       9-
 mid.  surface    -3.5724E+09 -3.3651E+09 -2.4451E+09  1.6584E+07  3.1725E+08  5.9691E+07  9.5495E-02
      10-
 mid.  surface    -3.4626E+08 -1.2926E+08  8.2416E+08  2.1534E+07  2.6112E+08  5.3488E+07  5.1705E-02
      15-
 mid.  surface    -3.4069E+09 -3.4678E+09 -2.3504E+09 -2.2753E+07  7.6526E+07  9.3347E+06 -6.3574E-02
      16-
 mid.  surface    -4.7030E+09 -4.8400E+09 -5.0273E+09  5.9485E+07  1.8682E+08  1.4946E+08 -5.3315E-03
      18-
 mid.  surface    -1.8233E+09 -1.7608E+09 -2.3347E+08  2.7903E+07  3.0203E+08  9.4208E+07 -3.0814E-02
      40-
 mid.  surface     2.0537E+09  1.8533E+09  1.1513E+09 -1.3416E+07 -2.9317E+08 -3.2976E+07  2.6918E-01
      41-
 mid.  surface     2.5435E+09  2.3165E+09  7.4267E+08 -5.4226E+07 -4.4288E+08 -5.7152E+07  2.7174E-01
      50-
 mid.  surface     1.0082E+09  1.1166E+09  1.5077E+09 -8.2549E+07  5.4074E+07  2.2092E+07  3.2577E-01
      51-
 mid.  surface    -1.1775E+09 -1.0411E+09  6.7082E+07 -4.3383E+07  1.2872E+08 -4.2488E+07  2.5521E-01
      52-
 mid.  surface    -1.8317E+09 -1.8626E+09 -7.1101E+08 -7.6569E+07  1.3279E+08 -2.2020E+08 -4.9186E-02
      53-
 mid.  surface     2.4381E+09  2.5657E+09  2.8560E+09 -1.2178E+07  4.1558E+06  7.5290E+07  2.0515E-01
      72-
 mid.  surface     3.9819E+09  4.0574E+09  2.9349E+09 -1.3397E+08 -4.3227E+08 -2.5892E+08  6.2326E-01
      95-
 mid.  surface     5.8601E+09  6.0666E+09  3.6421E+09 -4.2847E+07 -4.2107E+08 -1.6642E+08  6.4583E-01
     100-
 mid.  surface     7.6196E+08  5.9450E+08 -1.3159E+09 -2.3217E+07 -2.8364E+08 -9.1315E+07  3.0642E-01
     110-
 mid.  surface    -6.9025E+08 -9.2502E+08 -2.5271E+09 -6.0063E+07 -3.7505E+08 -8.1431E+07  3.3675E-01



 n o d a l  s t r a i n  c a l c u l a t i o n s   f o r   t i m e  s t e p      358   ( at time 1.30921E+01 )

 node (global)
          strain       eps-xx      eps-yy      eps-zz      eps-xy      eps-yz      eps-zx       
       4-
 mid.  surface     1.5191E-01  9.1377E-02 -2.8562E-01  3.0059E-02 -1.1764E-02 -9.1612E-03
       5-
 mid.  surface     1.2745E-01  9.9576E-02 -1.7294E-01  2.8058E-02 -2.5463E-02 -7.3840E-02
       6-
 mid.  surface     4.8745E-02  9.0951E-02 -7.8838E-02 -2.1963E-03 -7.1544E-02 -3.8527E-02
       7-
 mid.  surface     8.1456E-02  6.7505E-02 -1.5268E-01  4.8446E-03 -6.4046E-02 -5.5795E-03
       8-
 mid.  surface     9.4067E-02  5.8473E-02 -1.6031E-01  8.3239E-03 -3.5751E-02  6.4017E-03
       9-
 mid.  surface     8.2586E-02  1.0231E-01 -2.0421E-01 -1.3599E-02 -2.4367E-02 -4.1617E-03
      10-
 mid.  surface     5.5381E-02  1.1870E-01 -1.4626E-01 -1.6090E-02 -1.2072E-02  8.9916E-04
      15-
 mid.  surface     6.8016E-02  9.1971E-02 -1.7268E-01 -1.2804E-02 -6.3777E-02 -4.0013E-02
      16-
 mid.  surface     5.7148E-02  8.5274E-02 -1.8374E-01 -9.9727E-03 -4.4551E-02 -4.6760E-02
      18-
 mid.  surface     6.8262E-02  8.8684E-02 -1.3467E-01  2.7127E-03 -4.4967E-02 -6.9766E-03
      40-
 mid.  surface     6.9242E-02  9.0242E-02 -1.4725E-01  7.9969E-03  5.2521E-03  5.0188E-03
      41-
 mid.  surface     6.8711E-02  7.1908E-02 -1.4575E-01  2.1054E-03 -3.7266E-02  1.9165E-03
      50-
 mid.  surface     9.7945E-02  8.5657E-02 -2.2547E-01  1.0200E-02  2.8418E-02  3.0739E-02
      51-
 mid.  surface     9.8226E-02  9.3808E-02 -3.1634E-01 -1.3212E-02  6.0117E-02 -3.0795E-02
      52-
 mid.  surface     8.4733E-02  9.5355E-02 -2.0733E-01 -1.2147E-02  9.9031E-02 -6.0366E-02
      53-
 mid.  surface     9.5248E-02  8.3333E-02 -1.4515E-01  1.8058E-02  2.1052E-02  1.2645E-02
      72-
 mid.  surface     9.4788E-02  9.4230E-02 -2.0206E-01  2.1555E-02  1.5261E-02  9.5050E-03
      95-
 mid.  surface     1.1723E-01  7.7953E-02 -1.8800E-01  2.0079E-02  3.0761E-02  9.2528E-03
     100-
 mid.  surface     9.4899E-02  7.5490E-02 -1.9117E-01 -5.1082E-04  1.4055E-02 -1.1766E-02
     110-
 mid.  surface     1.0113E-01  5.6907E-02 -2.1065E-01  9.3256E-04 -4.8287E-02 -3.0796E-02



 n o d a l  s t r e s s  c a l c u l a t i o n s   f o r   t i m e  s t e p      371   ( at time 1.45565E+01 )

 node (global)
          stress       sig-xx      sig-yy      sig-zz      sig-xy      sig-yz      sig-zx       plastic
                                                                                                 strain 
       4-
 mid.  surface     4.9718E+08  4.1070E+08 -2.7742E+09  2.9501E+08 -1.3566E+08  1.9085E+07  6.5141E-01
       5-
 mid.  surface     1.9411E+08 -1.8602E+08 -3.2141E+09  1.6334E+08 -1.7268E+08 -2.9222E+08  4.0100E-01
       6-
 mid.  surface    -2.1774E+09 -2.4708E+09 -2.7169E+09 -2.1229E+06  3.0017E+08  1.6483E+08 -1.5764E-01
       7-
 mid.  surface     8.9007E+08  7.8875E+08 -4.3266E+08 -5.5738E+07 -1.0391E+07  5.6488E+07  7.1644E-02
       8-
 mid.  surface    -3.3107E+09 -3.2203E+09 -2.9221E+09  6.3205E+07  3.3362E+08  5.2400E+07 -7.7581E-02
       9-
 mid.  surface    -3.9484E+09 -3.7228E+09 -2.8368E+09  1.7198E+07  3.1642E+08  2.9605E+07  2.6643E-02
      10-
 mid.  surface    -2.6892E+08 -4.3120E+07  8.8515E+08  1.8982E+07  2.4429E+08  2.8518E+07 -2.1757E-02
      15-
 mid.  surface    -2.8486E+09 -2.9005E+09 -2.5991E+09 -1.0088E+08  9.2956E+07 -5.6481E+07 -6.5975E-02
      16-
 mid.  surface    -4.7358E+09 -4.8134E+09 -5.1061E+09 -5.0718E+07  3.1074E+08  9.3812E+07  2.5678E-02
      18-
 mid.  surface    -2.0095E+09 -1.9155E+09 -3.8843E+08  6.0557E+07  3.0471E+08  6.2331E+07 -1.3891E-01
      40-
 mid.  surface     2.2371E+09  2.0028E+09  1.3763E+09 -1.6594E+07 -3.1093E+08 -9.6291E+06  3.3179E-01
      41-
 mid.  surface     3.0023E+09  2.7482E+09  1.1986E+09 -4.1506E+07 -4.5325E+08 -3.2770E+07  4.0051E-01
      50-
 mid.  surface    -1.3408E+09 -1.0796E+09  7.2642E+08 -1.8180E+07  1.2384E+08  3.6145E+07  1.6539E-01
      51-
 mid.  surface     6.3695E+08  7.0753E+08  2.1633E+08  1.1829E+08 -4.2367E+07 -2.1838E+07  3.1769E-01
      52-
 mid.  surface     3.5590E+07 -1.0052E+08 -5.2316E+08  4.7103E+07 -6.9624E+06 -2.0443E+08  2.7898E-03
      53-
 mid.  surface     5.1889E+08  6.4094E+08  2.4559E+09  2.1307E+07  1.0372E+08  1.4139E+08  3.0586E-02
      72-
 mid.  surface     2.8488E+09  3.0268E+09  2.5896E+09 -9.6965E+07 -5.5615E+08 -2.4575E+08  6.6996E-01
      95-
 mid.  surface     5.5835E+09  5.7474E+09  4.0486E+09 -2.4465E+07 -4.9180E+08 -7.6309E+07  7.5124E-01
     100-
 mid.  surface     8.6319E+08  6.7354E+08 -1.2167E+09 -4.7889E+07 -2.6780E+08 -4.6174E+07  4.4733E-01
     110-
 mid.  surface    -9.2782E+08 -1.1717E+09 -2.7497E+09 -4.5092E+07 -3.6849E+08 -5.7451E+07  4.7407E-01



 n o d a l  s t r a i n  c a l c u l a t i o n s   f o r   t i m e  s t e p      371   ( at time 1.45565E+01 )

 node (global)
          strain       eps-xx      eps-yy      eps-zz      eps-xy      eps-yz      eps-zx       
       4-
 mid.  surface     1.8068E-01  9.9543E-02 -3.3416E-01  3.3698E-02 -1.3215E-02 -3.4455E-04
       5-
 mid.  surface     1.4841E-01  1.2327E-01 -2.0694E-01  4.0730E-02 -3.4194E-02 -8.5823E-02
       6-
 mid.  surface     5.4939E-02  1.0804E-01 -8.9908E-02  2.1841E-03 -8.3160E-02 -3.6643E-02
       7-
 mid.  surface     8.6849E-02  7.3124E-02 -1.6719E-01  4.3959E-03 -6.5548E-02 -2.1625E-04
       8-
 mid.  surface     1.0655E-01  6.5424E-02 -1.7970E-01  1.0252E-02 -3.7712E-02  5.7541E-03
       9-
 mid.  surface     9.3351E-02  1.1576E-01 -2.2880E-01 -1.6079E-02 -3.0517E-02 -4.2721E-03
      10-
 mid.  surface     6.4654E-02  1.3612E-01 -1.6673E-01 -1.8959E-02 -1.4453E-02  1.7399E-03
      15-
 mid.  surface     6.9166E-02  1.0763E-01 -1.9356E-01 -2.0249E-02 -6.8993E-02 -4.0643E-02
      16-
 mid.  surface     6.4858E-02  9.5695E-02 -2.1059E-01 -1.2381E-02 -4.8772E-02 -4.5105E-02
      18-
 mid.  surface     7.9511E-02  1.0464E-01 -1.5487E-01  4.0136E-03 -4.6350E-02 -5.6282E-03
      40-
 mid.  surface     8.0909E-02  1.0080E-01 -1.6801E-01  5.7205E-03  4.6218E-03  3.4827E-03
      41-
 mid.  surface     8.0838E-02  8.2619E-02 -1.6839E-01  4.1940E-03 -4.4662E-02  2.8071E-03
      50-
 mid.  surface     1.1602E-01  9.9348E-02 -2.5746E-01  1.1369E-02  2.9913E-02  2.5419E-02
      51-
 mid.  surface     1.1454E-01  1.0840E-01 -3.6776E-01 -2.4968E-02  7.2485E-02 -4.2240E-02
      52-
 mid.  surface     1.0085E-01  1.1602E-01 -2.4885E-01 -2.0210E-02  1.1786E-01 -6.1334E-02
      53-
 mid.  surface     1.1169E-01  9.9745E-02 -1.6447E-01  2.7483E-02  1.9758E-02  9.1746E-03
      72-
 mid.  surface     1.0776E-01  1.0900E-01 -2.2680E-01  2.0803E-02  1.6569E-02  1.0955E-02
      95-
 mid.  surface     1.3543E-01  8.7630E-02 -2.0717E-01  2.1772E-02  2.9963E-02  1.1122E-02
     100-
 mid.  surface     1.0744E-01  8.1496E-02 -2.1659E-01 -4.6408E-03  8.6670E-03 -1.7555E-02
     110-
 mid.  surface     1.1397E-01  6.4570E-02 -2.4092E-01  2.6516E-03 -5.9549E-02 -3.4582E-02



 n o d a l  s t r e s s  c a l c u l a t i o n s   f o r   t i m e  s t e p      380   ( at time 1.60208E+01 )

 node (global)
          stress       sig-xx      sig-yy      sig-zz      sig-xy      sig-yz      sig-zx       plastic
                                                                                                 strain 
       4-
 mid.  surface    -8.5401E+08 -1.0173E+09 -3.0191E+09  7.0029E+07  4.8790E+07 -8.7393E+07  7.9501E-01
       5-
 mid.  surface    -7.5101E+08 -1.0701E+09 -3.7991E+09  9.1841E+07 -8.7537E+07 -1.4118E+08  5.9490E-01
       6-
 mid.  surface    -2.7344E+09 -2.9001E+09 -3.3768E+09 -3.3142E+06  1.9162E+08  2.3580E+08 -1.2363E-01
       7-
 mid.  surface     9.3857E+08  8.9701E+08 -3.4847E+08 -2.4538E+07  1.4579E+07  8.3520E+07  1.5273E-01
       8-
 mid.  surface    -3.5664E+09 -3.5180E+09 -3.1008E+09  3.6292E+07  2.8322E+08  6.9113E+07 -1.1358E-01
       9-
 mid.  surface    -4.2074E+09 -4.0694E+09 -3.0336E+09  2.5663E+07  2.5817E+08  2.8120E+07 -3.7311E-02
      10-
 mid.  surface    -4.6054E+08 -3.3019E+08  7.2776E+08  2.8627E+07  2.1343E+08  2.8436E+07 -8.7334E-02
      15-
 mid.  surface    -3.5983E+09 -3.6177E+09 -3.3826E+09 -5.8931E+07  7.0707E+07  3.7494E+07 -6.9196E-02
      16-
 mid.  surface    -5.9552E+09 -5.9842E+09 -6.0709E+09 -6.4278E+07  2.4509E+08  1.3354E+08  3.5547E-02
      18-
 mid.  surface    -2.6329E+09 -2.5895E+09 -9.6735E+08  1.8130E+07  2.4352E+08  6.5144E+07 -2.3857E-01
      40-
 mid.  surface     2.4340E+09  2.2766E+09  1.4803E+09 -7.0778E+06 -2.4717E+08 -2.3231E+07  3.8831E-01
      41-
 mid.  surface     3.1320E+09  2.9809E+09  1.2299E+09 -4.2417E+07 -3.6568E+08 -3.8659E+07  5.2061E-01
      50-
 mid.  surface    -1.1825E+09 -9.7565E+08  7.0850E+08 -5.4329E+06  6.9725E+07 -2.3747E+07  4.9105E-02
      51-
 mid.  surface     7.2306E+08  7.2980E+08  7.3466E+08  2.4479E+07  3.4884E+07 -1.1992E+08  3.2162E-01
      52-
 mid.  surface     5.9364E+08  5.0336E+08 -3.5665E+08  8.1168E+07 -7.0248E+07 -1.1038E+08  6.7813E-02
      53-
 mid.  surface     1.0327E+09  1.1506E+09  2.7676E+09  1.7004E+07  5.8009E+07  6.1051E+07 -8.1850E-02
      72-
 mid.  surface     3.4084E+09  3.5091E+09  2.9458E+09 -2.8359E+07 -4.2603E+08 -2.4282E+08  7.0929E-01
      95-
 mid.  surface     6.8711E+09  6.9818E+09  5.2302E+09  6.6584E+06 -3.6908E+08 -1.5153E+08  8.5310E-01
     100-
 mid.  surface     1.1754E+09  1.0808E+09 -9.6205E+08 -1.8837E+07 -2.0606E+08 -2.7243E+07  5.7646E-01
     110-
 mid.  surface    -9.8157E+08 -1.1254E+09 -2.8857E+09 -4.9345E+07 -3.1413E+08 -5.3337E+07  5.9885E-01



 n o d a l  s t r a i n  c a l c u l a t i o n s   f o r   t i m e  s t e p      380   ( at time 1.60208E+01 )

 node (global)
          strain       eps-xx      eps-yy      eps-zz      eps-xy      eps-yz      eps-zx       
       4-
 mid.  surface     1.9755E-01  1.0576E-01 -3.6365E-01  3.6020E-02 -1.2617E-02  2.9969E-03
       5-
 mid.  surface     1.6331E-01  1.3668E-01 -2.2561E-01  4.5940E-02 -3.6742E-02 -9.4327E-02
       6-
 mid.  surface     6.4267E-02  1.2158E-01 -1.0586E-01  4.5231E-03 -8.7094E-02 -3.6247E-02
       7-
 mid.  surface     9.6532E-02  8.2123E-02 -1.8400E-01  5.6807E-03 -6.5594E-02  1.6864E-03
       8-
 mid.  surface     1.1739E-01  7.2610E-02 -1.9714E-01  1.1067E-02 -3.7969E-02  5.7549E-03
       9-
 mid.  surface     1.0277E-01  1.2944E-01 -2.5171E-01 -1.6458E-02 -3.5636E-02 -4.7242E-03
      10-
 mid.  surface     7.3544E-02  1.5161E-01 -1.9008E-01 -1.9552E-02 -1.5064E-02  2.1254E-03
      15-
 mid.  surface     7.5615E-02  1.2117E-01 -2.1537E-01 -2.1470E-02 -6.9828E-02 -4.0202E-02
      16-
 mid.  surface     7.3522E-02  1.0552E-01 -2.3724E-01 -1.1488E-02 -4.8954E-02 -4.3942E-02
      18-
 mid.  surface     8.9188E-02  1.1687E-01 -1.7624E-01  4.4089E-03 -4.5908E-02 -4.5172E-03
      40-
 mid.  surface     9.2646E-02  1.1109E-01 -1.8946E-01  6.1334E-03  4.8767E-03  3.1567E-03
      41-
 mid.  surface     9.1473E-02  9.2866E-02 -1.9246E-01  4.8518E-03 -4.9776E-02  4.0208E-03
      50-
 mid.  surface     1.2871E-01  1.1099E-01 -2.8832E-01  1.2441E-02  2.9933E-02  2.2314E-02
      51-
 mid.  surface     1.2552E-01  1.1861E-01 -3.9991E-01 -3.0152E-02  7.6758E-02 -4.6550E-02
      52-
 mid.  surface     1.1239E-01  1.2917E-01 -2.7169E-01 -2.3641E-02  1.2528E-01 -6.7742E-02
      53-
 mid.  surface     1.2500E-01  1.1337E-01 -1.8919E-01  3.0984E-02  1.8293E-02  8.6535E-03
      72-
 mid.  surface     1.1868E-01  1.2119E-01 -2.5227E-01  2.0957E-02  1.6696E-02  1.2224E-02
      95-
 mid.  surface     1.4757E-01  9.8656E-02 -2.2847E-01  2.1666E-02  2.8096E-02  1.1749E-02
     100-
 mid.  surface     1.1852E-01  9.0723E-02 -2.4021E-01 -5.8840E-03  5.6708E-03 -2.0036E-02
     110-
 mid.  surface     1.2567E-01  7.3819E-02 -2.6772E-01  2.7789E-03 -6.8110E-02 -3.5894E-02



 n o d a l  s t r e s s  c a l c u l a t i o n s   f o r   t i m e  s t e p      395   ( at time 1.74851E+01 )

 node (global)
          stress       sig-xx      sig-yy      sig-zz      sig-xy      sig-yz      sig-zx       plastic
                                                                                                 strain 
       4-
 mid.  surface    -5.3710E+08 -6.0899E+08 -2.6886E+09  1.1767E+08  3.9196E+07 -1.6160E+08  9.9879E-01
       5-
 mid.  surface     4.9135E+08  2.3114E+08 -2.4472E+09  9.8521E+07 -2.0996E+08 -4.6368E+08  8.6058E-01
       6-
 mid.  surface    -4.3586E+09 -4.4963E+09 -4.2362E+09 -7.3586E+07  2.9319E+08  6.0367E+07 -1.4178E-01
       7-
 mid.  surface     1.5577E+09  1.5294E+09  5.8268E+08 -1.7133E+07 -1.6249E+08 -1.2299E+08  2.3849E-01
       8-
 mid.  surface    -3.3859E+09 -3.4304E+09 -3.6779E+09  4.2728E+06  1.0170E+08  1.9784E+07 -1.0300E-01
       9-
 mid.  surface    -3.6213E+09 -3.4549E+09 -3.0560E+09 -2.5763E+07  6.1984E+07  3.4402E+06 -6.3613E-02
      10-
 mid.  surface     2.7773E+08  4.2260E+08  1.0463E+09  9.1941E+06  9.6705E+07  1.5461E+06 -1.3491E-01
      15-
 mid.  surface    -1.2979E+09 -1.4305E+09 -1.8774E+09 -1.1123E+07 -9.6405E+07 -7.8333E+07 -2.4644E-02
      16-
 mid.  surface    -5.1294E+09 -5.3669E+09 -6.2026E+09 -1.3250E+08  1.8764E+08  9.9917E+07  8.4358E-02
      18-
 mid.  surface    -4.2439E+09 -4.2372E+09 -2.4108E+09  6.8430E+07  4.3905E+08  8.5481E+07 -3.7924E-01
      40-
 mid.  surface     2.1750E+07 -5.8558E+07  4.6253E+08  7.3754E+06  2.1959E+08  1.1305E+08  3.4069E-01
      41-
 mid.  surface     3.1571E+09  3.0178E+09  1.7113E+09 -2.6187E+07 -2.9405E+08 -7.1901E+06  6.2130E-01
      50-
 mid.  surface    -6.2241E+08 -5.5331E+08  3.4119E+08 -1.3867E+07  4.2902E+07  1.9587E+08 -5.0147E-02
      51-
 mid.  surface     1.4663E+08  2.1553E+08  1.1395E+08  5.9216E+07  8.0934E+07  1.9475E+07  3.4444E-01
      52-
 mid.  surface     9.2352E+08  8.7007E+08 -2.9686E+07  1.1102E+08 -1.1101E+08 -1.3227E+08  1.6732E-01
      53-
 mid.  surface    -1.3218E+09 -1.1242E+09  1.1699E+09 -7.6799E+06  2.2657E+08  1.8275E+08 -2.7634E-01
      72-
 mid.  surface     4.6861E+09  4.8641E+09  4.3149E+09  9.9638E+06 -3.5131E+08 -9.0340E+07  7.5036E-01
      95-
 mid.  surface     6.9131E+09  7.1900E+09  6.1853E+09  2.0600E+07 -4.3848E+08 -1.8676E+08  9.2942E-01
     100-
 mid.  surface     7.7306E+08  6.3300E+08 -1.1673E+09 -7.4575E+07 -1.6412E+08  6.0463E+06  7.0375E-01
     110-
 mid.  surface    -3.9573E+07 -1.3541E+08 -2.3070E+09 -1.1620E+08 -5.1984E+08 -3.2573E+07  7.7000E-01



 n o d a l  s t r a i n  c a l c u l a t i o n s   f o r   t i m e  s t e p      395   ( at time 1.74851E+01 )

 node (global)
          strain       eps-xx      eps-yy      eps-zz      eps-xy      eps-yz      eps-zx       
       4-
 mid.  surface     2.1651E-01  1.1694E-01 -4.1020E-01  3.7626E-02 -1.0555E-02  1.6143E-02
       5-
 mid.  surface     1.7868E-01  1.6142E-01 -2.6058E-01  5.7219E-02 -4.3565E-02 -1.0157E-01
       6-
 mid.  surface     7.0178E-02  1.4154E-01 -1.1720E-01  9.1483E-03 -9.9604E-02 -3.2054E-02
       7-
 mid.  surface     1.0777E-01  9.2252E-02 -1.9771E-01  1.0276E-02 -6.7914E-02  4.8234E-03
       8-
 mid.  surface     1.3084E-01  8.0341E-02 -2.2060E-01  1.0784E-02 -3.5933E-02  6.4582E-03
       9-
 mid.  surface     1.1281E-01  1.4673E-01 -2.7753E-01 -2.0651E-02 -4.0945E-02 -4.1145E-03
      10-
 mid.  surface     8.3779E-02  1.7229E-01 -2.1142E-01 -2.2711E-02 -1.5393E-02  3.2749E-03
      15-
 mid.  surface     8.3361E-02  1.3890E-01 -2.3013E-01 -2.2734E-02 -7.0589E-02 -3.7751E-02
      16-
 mid.  surface     7.9006E-02  1.1822E-01 -2.6576E-01 -1.2767E-02 -5.3849E-02 -3.7363E-02
      18-
 mid.  surface     1.0080E-01  1.3390E-01 -1.9761E-01  4.6888E-03 -4.3212E-02 -1.9990E-03
      40-
 mid.  surface     1.0442E-01  1.2591E-01 -2.1091E-01  5.2782E-03  1.4836E-03  1.8964E-03
      41-
 mid.  surface     1.0431E-01  1.0432E-01 -2.1591E-01  7.2811E-03 -5.8401E-02  5.7347E-03
      50-
 mid.  surface     1.4819E-01  1.2717E-01 -3.2415E-01  1.3942E-02  2.8990E-02  1.1323E-02
      51-
 mid.  surface     1.4369E-01  1.3004E-01 -4.4917E-01 -4.2640E-02  8.8270E-02 -6.9170E-02
      52-
 mid.  surface     1.3647E-01  1.4662E-01 -3.1344E-01 -3.1262E-02  1.4457E-01 -6.6046E-02
      53-
 mid.  surface     1.4384E-01  1.3068E-01 -2.1068E-01  4.1248E-02  1.7598E-02  5.8288E-03
      72-
 mid.  surface     1.2773E-01  1.3429E-01 -2.7484E-01  1.5620E-02  2.0511E-02  1.6165E-02
      95-
 mid.  surface     1.6078E-01  1.0427E-01 -2.4481E-01  1.7383E-02  2.0085E-02  9.0267E-03
     100-
 mid.  surface     1.3010E-01  1.0013E-01 -2.6939E-01 -8.7431E-03 -2.3669E-03 -2.6670E-02
     110-
 mid.  surface     1.3875E-01  8.2380E-02 -2.9915E-01  5.3941E-03 -8.1474E-02 -3.9537E-02



 n o d a l  s t r e s s  c a l c u l a t i o n s   f o r   t i m e  s t e p      405   ( at time 1.89494E+01 )

 node (global)
          stress       sig-xx      sig-yy      sig-zz      sig-xy      sig-yz      sig-zx       plastic
                                                                                                 strain 
       4-
 mid.  surface    -9.9778E+08 -1.1638E+09 -3.2368E+09  9.7224E+07 -4.5799E+06 -1.2090E+08  1.1357E+00
       5-
 mid.  surface     1.5825E+08 -1.3255E+08 -2.9414E+09  1.1883E+08 -1.6053E+08 -2.4414E+08  1.0444E+00
       6-
 mid.  surface    -4.0537E+09 -4.2081E+09 -4.7454E+09 -1.4563E+07  4.2741E+07  8.6417E+07 -1.0194E-01
       7-
 mid.  surface     1.6509E+07  4.5224E+07 -1.5893E+07  2.8760E+07  5.3273E+07 -2.1906E+06  2.4227E-01
       8-
 mid.  surface    -2.4922E+09 -2.5303E+09 -3.0308E+09  5.3933E+07 -1.8137E+07 -7.0231E+07 -7.3327E-02
       9-
 mid.  surface    -2.3429E+09 -2.2433E+09 -2.6257E+09 -8.4084E+07 -8.9504E+07  2.7847E+07 -2.7300E-02
      10-
 mid.  surface    -6.1871E+08 -4.5715E+08  6.8713E+06 -7.0733E+07  7.5806E+07  1.1335E+08 -1.6400E-01
      15-
 mid.  surface    -2.2474E+09 -2.3273E+09 -2.3392E+09 -4.9869E+07  3.1141E+07  6.0811E+07 -1.4432E-02
      16-
 mid.  surface    -4.0280E+09 -4.1691E+09 -5.8537E+09 -8.7449E+06 -3.6043E+07  9.4637E+07  1.9996E-01
      18-
 mid.  surface    -4.3793E+09 -4.4590E+09 -3.2439E+09 -1.4690E+07  1.3221E+08  2.2854E+07 -4.5468E-01
      40-
 mid.  surface    -7.8660E+08 -8.9087E+08 -7.4411E+07 -1.6934E+07  1.8707E+08  6.4748E+07  2.8417E-01
      41-
 mid.  surface     1.6222E+09  1.7801E+09  1.0579E+09  8.8744E+06 -5.5389E+07  1.0927E+08  6.6765E-01
      50-
 mid.  surface     8.3790E+08  9.2751E+08  1.0595E+09 -5.0516E+06 -7.3467E+07  6.2373E+07 -5.9508E-02
      51-
 mid.  surface     4.4066E+08  4.6446E+08  4.3877E+08  4.0030E+07  5.4213E+07 -4.9494E+06  3.5109E-01
      52-
 mid.  surface     1.2012E+09  1.1301E+09  2.2848E+08  9.9759E+07 -7.8625E+07 -7.0016E+07  2.3139E-01
      53-
 mid.  surface    -7.5480E+08 -6.2091E+08  9.8068E+08 -4.8315E+07  5.3344E+07  6.6790E+07 -3.8048E-01
      72-
 mid.  surface     3.8870E+09  3.9661E+09  4.3320E+09 -5.8586E+07 -3.1149E+07 -5.2412E+07  7.1975E-01
      95-
 mid.  surface     5.4942E+09  5.7151E+09  6.0139E+09  1.7335E+07  8.8202E+06 -9.1395E+07  8.9320E-01
     100-
 mid.  surface     9.8966E+08  9.2756E+08 -3.1159E+08  8.2534E+07 -3.8100E+07 -9.4601E+07  7.7616E-01
     110-
 mid.  surface    -4.4219E+08 -3.4565E+08 -1.8265E+09 -1.5490E+07 -2.2029E+08  2.1492E+07  8.7802E-01



 n o d a l  s t r a i n  c a l c u l a t i o n s   f o r   t i m e  s t e p      405   ( at time 1.89494E+01 )

 node (global)
          strain       eps-xx      eps-yy      eps-zz      eps-xy      eps-yz      eps-zx       
       4-
 mid.  surface     2.3021E-01  1.2152E-01 -4.3229E-01  3.8889E-02 -8.2167E-03  2.2132E-02
       5-
 mid.  surface     1.9254E-01  1.7338E-01 -2.7765E-01  6.3673E-02 -4.4668E-02 -1.0650E-01
       6-
 mid.  surface     7.9601E-02  1.5525E-01 -1.3588E-01  1.1414E-02 -1.0162E-01 -3.1662E-02
       7-
 mid.  surface     1.1555E-01  1.0702E-01 -2.1657E-01  1.3594E-02 -6.6109E-02  9.6660E-03
       8-
 mid.  surface     1.4383E-01  9.3408E-02 -2.3899E-01  1.6396E-02 -3.4832E-02  4.2241E-03
       9-
 mid.  surface     1.2553E-01  1.6454E-01 -3.0559E-01 -2.4128E-02 -4.5141E-02 -4.0829E-03
      10-
 mid.  surface     9.4375E-02  1.9044E-01 -2.3794E-01 -2.2990E-02 -1.5014E-02  3.1031E-03
      15-
 mid.  surface     9.0183E-02  1.5270E-01 -2.5100E-01 -2.2446E-02 -6.8961E-02 -3.3056E-02
      16-
 mid.  surface     8.8138E-02  1.2558E-01 -2.9223E-01 -1.3651E-02 -5.2616E-02 -3.4361E-02
      18-
 mid.  surface     1.1274E-01  1.4758E-01 -2.1617E-01  1.1170E-02 -3.8579E-02 -8.3992E-04
      40-
 mid.  surface     1.1377E-01  1.3389E-01 -2.3011E-01  2.8838E-03  4.4005E-04  2.0640E-03
      41-
 mid.  surface     1.1213E-01  1.2023E-01 -2.4267E-01  9.3238E-03 -6.8296E-02  8.4512E-03
      50-
 mid.  surface     1.6230E-01  1.3759E-01 -3.5370E-01  1.6853E-02  2.5704E-02  3.4596E-03
      51-
 mid.  surface     1.5112E-01  1.3946E-01 -4.7369E-01 -4.9302E-02  9.0111E-02 -7.5625E-02
      52-
 mid.  surface     1.4693E-01  1.5870E-01 -3.3294E-01 -3.5560E-02  1.4809E-01 -7.1906E-02
      53-
 mid.  surface     1.5820E-01  1.4533E-01 -2.3651E-01  4.7753E-02  1.6687E-02  5.9340E-03
      72-
 mid.  surface     1.4192E-01  1.4484E-01 -2.9815E-01  1.6165E-02  1.9269E-02  1.5402E-02
      95-
 mid.  surface     1.7610E-01  1.1699E-01 -2.6831E-01  1.8862E-02  1.6762E-02  9.1171E-03
     100-
 mid.  surface     1.4031E-01  1.0746E-01 -2.9299E-01 -1.1623E-02 -8.5908E-03 -3.1093E-02
     110-
 mid.  surface     1.4584E-01  9.7203E-02 -3.2991E-01  7.3402E-03 -9.1195E-02 -3.6277E-02



 n o d a l  s t r e s s  c a l c u l a t i o n s   f o r   t i m e  s t e p      420   ( at time 2.04138E+01 )

 node (global)
          stress       sig-xx      sig-yy      sig-zz      sig-xy      sig-yz      sig-zx       plastic
                                                                                                 strain 
       4-
 mid.  surface    -8.6841E+08 -8.7339E+08 -3.0349E+09  1.2377E+08 -4.3790E+07 -2.0806E+08  1.3285E+00
       5-
 mid.  surface     6.5116E+08  5.2291E+08 -2.2838E+09  1.0143E+08 -2.3785E+08 -5.3585E+08  1.3066E+00
       6-
 mid.  surface    -3.6418E+08 -6.2447E+08 -2.4542E+09  9.0984E+06 -1.3094E+08 -1.8725E+08  7.8731E-02
       7-
 mid.  surface    -5.2045E+07 -6.9950E+07 -8.7941E+08 -2.7438E+07 -1.1942E+08 -1.3146E+08  2.9162E-01
       8-
 mid.  surface    -2.2200E+09 -2.2650E+09 -2.8225E+09  6.7635E+07  8.2950E+06 -8.4479E+07 -4.4057E-02
       9-
 mid.  surface    -2.1134E+09 -1.9931E+09 -2.3801E+09 -1.7899E+08 -1.4287E+08  5.2275E+07  1.1364E-02
      10-
 mid.  surface    -1.4056E+09 -1.0862E+09 -7.0808E+08 -1.5434E+08 -6.4563E+07  1.2395E+08 -1.9504E-01
      15-
 mid.  surface    -3.5884E+09 -3.4792E+09 -2.7860E+09 -3.3375E+07  1.2306E+08  2.7768E+07 -6.9560E-02
      16-
 mid.  surface    -2.3621E+09 -2.3794E+09 -3.9718E+09  2.7244E+07 -1.3872E+07  1.0092E+08  3.4310E-01
      18-
 mid.  surface    -4.1413E+09 -4.2099E+09 -3.0235E+09  1.0914E+08  1.8098E+08 -2.3487E+07 -5.3994E-01
      40-
 mid.  surface    -3.4223E+08 -4.9641E+08  3.3600E+08  6.5642E+07  2.9992E+08  2.8245E+07  2.2287E-01
      41-
 mid.  surface     7.6968E+08  9.2543E+08  2.8215E+08 -1.9029E+07 -1.6909E+08  1.5967E+08  7.2504E-01
      50-
 mid.  surface     3.7100E+08  4.7424E+08  1.3357E+09  1.3145E+07  2.7541E+07  2.5737E+08 -1.2927E-01
      51-
 mid.  surface     1.7153E+08  2.2282E+08  1.2759E+08  7.6564E+07  4.8384E+07  7.3261E+07  3.6542E-01
      52-
 mid.  surface     1.4650E+09  1.4462E+09  5.2855E+08  1.2155E+08 -1.2376E+08 -1.5678E+08  3.2895E-01
      53-
 mid.  surface     5.4831E+08  4.8857E+08  1.3761E+09 -2.1289E+07 -2.7922E+07  8.6038E+07 -4.4182E-01
      72-
 mid.  surface     4.4753E+08  5.7149E+08  2.5846E+09 -1.2632E+08  2.1544E+08  1.0538E+08  5.3731E-01
      95-
 mid.  surface     3.3837E+09  3.4716E+09  3.9433E+09 -1.1520E+08 -3.6395E+07  2.7167E+07  8.1108E-01
     100-
 mid.  surface     1.2947E+09  1.1228E+09 -7.5134E+07  7.8233E+07  5.5255E+07 -1.1516E+08  8.5372E-01
     110-
 mid.  surface    -4.4489E+08 -4.6432E+08 -1.8047E+09 -4.8392E+07 -2.1472E+08  7.2824E+07  9.9853E-01



 n o d a l  s t r a i n  c a l c u l a t i o n s   f o r   t i m e  s t e p      420   ( at time 2.04138E+01 )

 node (global)
          strain       eps-xx      eps-yy      eps-zz      eps-xy      eps-yz      eps-zx       
       4-
 mid.  surface     2.1352E-01  1.3186E-01 -4.2520E-01  3.3434E-02  1.0460E-02  3.4145E-02
       5-
 mid.  surface     1.9093E-01  1.9883E-01 -2.7171E-01  6.8546E-02 -3.5360E-02 -1.0775E-01
       6-
 mid.  surface     1.0852E-01  1.8927E-01 -1.8541E-01  2.8218E-02 -1.1176E-01 -2.7438E-02
       7-
 mid.  surface     1.2398E-01  1.2317E-01 -2.2188E-01  1.6381E-02 -6.5348E-02  2.0587E-02
       8-
 mid.  surface     1.5732E-01  1.0015E-01 -2.5840E-01  2.2138E-02 -3.2287E-02  1.6778E-04
       9-
 mid.  surface     1.4131E-01  1.7526E-01 -3.3434E-01 -3.4553E-02 -4.9228E-02 -2.1024E-03
      10-
 mid.  surface     1.0816E-01  2.0391E-01 -2.6326E-01 -2.7534E-02 -1.4231E-02  3.1562E-03
      15-
 mid.  surface     1.0391E-01  1.6433E-01 -2.5946E-01 -2.6230E-02 -6.2484E-02 -1.8601E-02
      16-
 mid.  surface     1.0679E-01  1.4806E-01 -3.4446E-01 -3.3133E-03 -4.9959E-02 -1.5738E-02
      18-
 mid.  surface     1.3277E-01  1.5662E-01 -2.3759E-01  1.8053E-02 -3.1826E-02 -5.7922E-05
      40-
 mid.  surface     1.2341E-01  1.4973E-01 -2.5388E-01 -9.0731E-04 -1.7652E-03  1.3242E-03
      41-
 mid.  surface     1.2057E-01  1.4174E-01 -2.7119E-01  1.4640E-02 -8.4012E-02  1.3438E-02
      50-
 mid.  surface     1.8469E-01  1.5188E-01 -4.1382E-01  1.6547E-02  9.3610E-03 -2.8839E-02
      51-
 mid.  surface     1.5840E-01  1.4929E-01 -4.8872E-01 -6.1778E-02  9.5689E-02 -9.7123E-02
      52-
 mid.  surface     1.7658E-01  1.7375E-01 -3.5094E-01 -4.2724E-02  1.5293E-01 -7.3644E-02
      53-
 mid.  surface     1.8191E-01  1.6626E-01 -2.9222E-01  5.6424E-02  1.4126E-02  1.8805E-02
      72-
 mid.  surface     1.5240E-01  1.5319E-01 -3.0929E-01  4.6995E-03  3.1859E-02  1.9907E-02
      95-
 mid.  surface     1.8469E-01  1.2843E-01 -2.7584E-01  1.4184E-02  1.1391E-02 -2.4331E-03
     100-
 mid.  surface     1.5017E-01  1.2028E-01 -3.2091E-01 -1.3770E-02 -2.3106E-02 -3.7654E-02
     110-
 mid.  surface     1.5224E-01  1.1535E-01 -3.6628E-01  1.3680E-02 -1.0815E-01 -3.2168E-02



 n o d a l  s t r e s s  c a l c u l a t i o n s   f o r   t i m e  s t e p      431   ( at time 2.18781E+01 )

 node (global)
          stress       sig-xx      sig-yy      sig-zz      sig-xy      sig-yz      sig-zx       plastic
                                                                                                 strain 
       4-
 mid.  surface    -2.5653E+08 -1.5573E+08 -3.6896E+09  1.0817E+08 -2.5942E+08 -1.2253E+08  1.5478E+00
       5-
 mid.  surface     6.3149E+08  7.0096E+08 -2.7878E+09  5.9924E+07 -2.9848E+08 -3.7148E+08  1.5323E+00
       6-
 mid.  surface     2.3898E+08  1.5912E+08 -1.5978E+09 -1.1555E+07 -8.0082E+07 -1.4555E+08  2.0770E-01
       7-
 mid.  surface    -3.6531E+08 -3.4967E+08 -1.2245E+09 -5.0399E+07 -7.1234E+07 -9.5934E+07  3.3958E-01
       8-
 mid.  surface    -1.9114E+09 -1.8936E+09 -2.4929E+09  6.2819E+07  6.2445E+06 -8.7203E+07 -1.1684E-02
       9-
 mid.  surface    -2.6051E+09 -2.6180E+09 -2.9757E+09 -1.4836E+08 -1.5021E+08  1.1722E+08  3.3449E-02
      10-
 mid.  surface    -2.1739E+09 -2.0387E+09 -1.6103E+09 -1.6917E+08 -1.6019E+08  1.4310E+08 -2.3060E-01
      15-
 mid.  surface    -4.1601E+09 -4.0586E+09 -3.3644E+09 -7.1642E+06  1.8329E+08  7.4121E+07 -1.1750E-01
      16-
 mid.  surface    -1.3425E+09 -1.2491E+09 -3.1327E+09  1.0535E+07 -3.8290E+07  1.0223E+08  4.7143E-01
      18-
 mid.  surface    -4.4635E+09 -4.5064E+09 -3.3154E+09  1.2990E+08  1.1663E+08 -3.0524E+07 -6.0906E-01
      40-
 mid.  surface     3.0924E+07 -7.8639E+06  8.2931E+08  6.8391E+07  2.6463E+08 -2.2984E+07  1.7794E-01
      41-
 mid.  surface     7.0596E+08  8.0819E+08  2.1108E+08 -4.3800E+07 -1.9816E+08  1.2410E+08  7.8159E-01
      50-
 mid.  surface     3.7365E+08  4.0506E+08  1.5598E+09  5.6267E+06  6.0943E+07  1.8150E+08 -1.9864E-01
      51-
 mid.  surface     6.3283E+08  6.6472E+08  1.2026E+08  9.4271E+07 -4.2609E+07  1.0501E+08  4.0144E-01
      52-
 mid.  surface     1.4240E+09  1.4456E+09  8.9440E+08  8.0943E+07 -4.4719E+07 -8.7985E+07  3.7463E-01
      53-
 mid.  surface     4.1971E+08  3.3452E+08  1.5771E+09 -1.1543E+07  4.4161E+06  4.8482E+07 -5.1278E-01
      72-
 mid.  surface    -4.0497E+08 -4.2081E+08  1.7016E+09 -8.0913E+07  2.3342E+08  9.3863E+07  3.8907E-01
      95-
 mid.  surface     2.6841E+09  2.6095E+09  3.1576E+09 -1.1527E+08  1.2867E+07 -1.6185E+07  7.5750E-01
     100-
 mid.  surface     1.9440E+09  1.8767E+09  6.5834E+08  6.7073E+07  6.7053E+07 -1.2234E+08  9.3699E-01
     110-
 mid.  surface    -4.2212E+07 -7.2261E+07 -1.3744E+09 -3.9043E+06 -1.4153E+08  8.4789E+07  1.1043E+00



 n o d a l  s t r a i n  c a l c u l a t i o n s   f o r   t i m e  s t e p      431   ( at time 2.18781E+01 )

 node (global)
          strain       eps-xx      eps-yy      eps-zz      eps-xy      eps-yz      eps-zx       
       4-
 mid.  surface     2.0138E-01  1.4109E-01 -4.2319E-01  3.2128E-02  2.1671E-02  4.0147E-02
       5-
[...]
      51-
 mid.  surface     3.1657E-01  5.0708E-01 -7.8914E-01 -1.7002E-01  3.8834E-01 -3.5179E-01
      52-
 mid.  surface     4.5365E-01  4.7856E-01 -8.2936E-01 -1.8838E-01  1.3283E-01 -1.2948E-01
      53-
 mid.  surface     3.7785E-01  4.6200E-01 -8.9797E-01 -4.2275E-02  1.6687E-02 -8.1047E-02
      72-
 mid.  surface     4.4719E-01  4.7427E-01 -1.2120E+00 -1.4800E-01  2.3979E-01  3.2166E-01
      95-
 mid.  surface     4.6171E-01  3.6714E-01 -7.5574E-01 -1.2336E-01 -3.1658E-02  5.3444E-02
     100-
 mid.  surface     4.6826E-01  4.9250E-01 -1.2107E+00 -3.0170E-02 -4.6544E-01 -2.3393E-01
     110-
 mid.  surface     4.8344E-01  6.3537E-01 -1.3669E+00  2.4224E-01 -1.0866E+00 -2.8977E-01



 n o d a l  s t r e s s  c a l c u l a t i o n s   f o r   t i m e  s t e p     1013   ( at time 5.93143E+01 )

 node (global)
          stress       sig-xx      sig-yy      sig-zz      sig-xy      sig-yz      sig-zx       plastic
                                                                                                 strain 
       4-
 mid.  surface     2.8579E+06 -9.7739E+06  3.9574E+07  1.5602E+07 -5.6750E+06  3.4252E+06  3.1262E+00
       5-
 mid.  surface     1.8891E+06 -6.4609E+06  2.6160E+07  1.0313E+07 -3.7514E+06  2.2641E+06  4.8938E+00
       6-
 mid.  surface    -1.9288E+08 -1.5355E+08 -2.5539E+08 -2.8608E+07 -4.1839E+06  3.4558E+07  2.2695E+00
       7-
 mid.  surface    -9.3817E+08 -8.6146E+08 -8.5853E+08 -3.4632E+07  4.7104E+05 -4.2521E+07  2.1819E+00
       8-
 mid.  surface    -1.4013E+09 -1.4936E+09 -1.7668E+09  7.2898E+07 -3.0163E+07  8.3848E+07  2.0738E+00
       9-
 mid.  surface    -1.4132E+08 -3.0934E+08 -1.8059E+09 -2.3735E+08 -4.0032E+07  2.0720E+08  2.7957E+00
      10-
 mid.  surface     1.3716E+09  1.7537E+09  2.2836E+09  8.8655E+07  1.3296E+08  1.5504E+08 -3.8453E+00
      15-
 mid.  surface     3.6462E+08  2.1553E+08  4.0211E+08  8.3745E+07  1.3543E+07 -4.1218E+07 -1.3814E+00
      16-
 mid.  surface     1.7806E+08  1.4176E+08  2.3577E+08  2.6410E+07  3.8625E+06 -3.1903E+07  1.0707E+00
      18-
 mid.  surface     1.1249E+09  1.2114E+09  2.1052E+09  1.9386E+08  9.0284E+07  1.0890E+07 -4.3745E+00
      40-
 mid.  surface     2.2798E+08  1.7531E+08  5.8089E+08  1.3210E+08  2.0501E+06 -3.2659E+07 -2.6357E+00
      41-
 mid.  surface     1.9069E+09  1.8594E+09  2.4292E+09 -5.7135E+07  5.8023E+07 -1.4744E+08 -3.9643E-01
      50-
 mid.  surface    -1.9288E+08 -1.5355E+08 -2.5539E+08 -2.8608E+07 -4.1839E+06  3.4558E+07 -7.9090E-01
      51-
 mid.  surface     1.8891E+06 -6.4609E+06  2.6160E+07  1.0313E+07 -3.7514E+06  2.2641E+06  9.3432E-02
      52-
 mid.  surface    -2.0463E+06  6.9985E+06 -2.8336E+07 -1.1172E+07  4.0635E+06 -2.4525E+06  1.8681E+00
      53-
 mid.  surface    -5.2546E+08 -4.1832E+08 -6.9576E+08 -7.7937E+07 -1.1398E+07  9.4147E+07 -2.3960E-01
      72-
 mid.  surface     2.9924E+07  1.0663E+08  1.0956E+08 -3.4632E+07  4.7100E+05 -4.2521E+07 -1.8308E+00
      95-
 mid.  surface    -1.5258E+09 -1.1945E+09 -1.4824E+09 -1.7527E+08 -2.0565E+07  9.9420E+06  1.6288E+00
     100-
 mid.  surface    -1.9923E+09 -2.1855E+09 -2.8995E+09 -1.1949E+08 -1.3074E+08 -8.6904E+07  5.0167E+00
     110-
 mid.  surface    -1.1046E+09 -1.8865E+09 -4.1067E+09 -3.9687E+08 -2.3417E+08 -6.7047E+07  7.3139E+00



 n o d a l  s t r a i n  c a l c u l a t i o n s   f o r   t i m e  s t e p     1013   ( at time 5.93143E+01 )

 node (global)
          strain       eps-xx      eps-yy      eps-zz      eps-xy      eps-yz      eps-zx       
       4-
 mid.  surface     5.5452E-02  2.3529E-01 -1.5328E-01  5.2445E-02  2.6293E-01  2.1608E-01
       5-
 mid.  surface     2.4843E-01  2.2415E-01 -3.3043E-01  1.2968E-01  1.2913E-01  7.6090E-02
       6-
 mid.  surface     3.5207E-01  4.7051E-01 -6.3751E-01  3.4960E-02 -1.0654E-01  8.1717E-02
       7-
 mid.  surface     3.9201E-01  4.2364E-01 -5.9555E-01  8.6317E-03 -6.7718E-02 -8.0323E-02
       8-
 mid.  surface     4.3312E-01  1.7996E-01 -5.9301E-01 -9.4816E-02 -3.0584E-02  7.5703E-02
       9-
 mid.  surface     5.3477E-01  1.2458E-01 -7.3747E-01 -1.2429E-01 -2.5012E-01 -1.9355E-01
      10-
 mid.  surface     5.8899E-01  2.7855E-01 -5.6368E-01 -6.9428E-02  4.9710E-01  1.0966E-01
      15-
 mid.  surface     4.9296E-01  5.0528E-01 -1.1140E+00  3.4293E-02 -1.4264E-01  1.8251E-03
      16-
 mid.  surface     2.8862E-01  4.3443E-01 -1.0040E+00  2.9092E-02  1.1039E-01  8.6661E-02
      18-
 mid.  surface     4.9867E-01  4.1434E-01 -6.3771E-01 -5.6729E-02  2.4044E-01  2.6540E-01
      40-
 mid.  surface     4.0896E-01  5.9460E-01 -9.8882E-01 -1.3080E-01  5.1196E-01  2.8541E-01
      41-
 mid.  surface     5.1356E-01  7.8139E-01 -1.2481E+00  2.0256E-01  3.7971E-01  3.3237E-02
      50-
 mid.  surface     4.4069E-01  5.3737E-01 -1.3701E+00 -4.5609E-02 -3.3319E-01 -1.0889E-01
      51-
 mid.  surface     3.1558E-01  5.0906E-01 -7.9330E-01 -1.7071E-01  3.9175E-01 -3.5093E-01
      52-
 mid.  surface     4.5240E-01  4.7938E-01 -8.3128E-01 -1.9007E-01  1.3776E-01 -1.2826E-01
      53-
 mid.  surface     3.7635E-01  4.6277E-01 -8.9253E-01 -4.4544E-02  1.5150E-02 -7.8929E-02
      72-
 mid.  surface     4.4402E-01  4.8032E-01 -1.2189E+00 -1.4980E-01  2.3042E-01  3.1124E-01
      95-
 mid.  surface     4.6282E-01  3.6414E-01 -7.6967E-01 -1.2941E-01 -2.2380E-02  5.8500E-02
     100-
 mid.  surface     4.7287E-01  5.1503E-01 -1.2567E+00 -2.4510E-02 -4.8747E-01 -2.5137E-01
     110-
 mid.  surface     4.8750E-01  6.8609E-01 -1.3895E+00  2.4799E-01 -1.1591E+00 -3.1010E-01



 n o d a l  s t r e s s  c a l c u l a t i o n s   f o r   t i m e  s t e p     1018   ( at time 6.10215E+01 )

 node (global)
          stress       sig-xx      sig-yy      sig-zz      sig-xy      sig-yz      sig-zx       plastic
                                                                                                 strain 
       4-
 mid.  surface     0.0000E+00  0.0000E+00  0.0000E+00  0.0000E+00  0.0000E+00  0.0000E+00  3.1262E+00
       5-
 mid.  surface     0.0000E+00  0.0000E+00  0.0000E+00  0.0000E+00  0.0000E+00  0.0000E+00  4.8938E+00
       6-
 mid.  surface    -2.0139E+08 -9.9074E+07 -3.0143E+08 -5.5383E+07 -9.6218E+06  6.2083E+07  2.2699E+00
       7-
 mid.  surface    -2.0035E+09 -1.5240E+09 -2.0905E+09 -1.7283E+08 -1.1417E+08  2.3724E+08  2.1900E+00
       8-
 mid.  surface    -2.7435E+09 -2.6410E+09 -3.0490E+09  1.0251E+08  9.0743E+07  2.0704E+08  2.0995E+00
       9-
 mid.  surface    -3.2197E+08 -2.4989E+08 -6.0884E+08 -9.1143E+07 -1.9740E+07  1.8447E+08  2.8278E+00
      10-
 mid.  surface     1.6814E+09  1.8077E+09  1.3583E+09 -6.8045E+06  4.0913E+07  2.6200E+08 -3.8308E+00
      15-
 mid.  surface     2.6418E+08  9.0284E+07  3.1000E+08  1.3804E+08  1.7220E+07  5.5396E+07 -1.3799E+00
      16-
 mid.  surface     1.8592E+08  9.1464E+07  2.7828E+08  5.1129E+07  8.8828E+06 -5.7315E+07  1.0703E+00
      18-
 mid.  surface     7.5160E+08  4.6818E+08  5.8794E+08  2.2513E+08  1.9666E+08 -2.8788E+07 -4.3656E+00
      40-
 mid.  surface     7.2414E+08  2.6182E+08  5.5224E+08  1.6894E+08  7.4163E+07 -1.5895E+08 -2.6389E+00
      41-
 mid.  surface     3.1478E+09  2.8074E+09  2.7357E+09 -1.3411E+08 -8.4900E+07 -1.1837E+08 -4.0282E-01
      50-
 mid.  surface    -2.0139E+08 -9.9075E+07 -3.0143E+08 -5.5384E+07 -9.6219E+06  6.2084E+07 -7.9050E-01
      51-
 mid.  surface     0.0000E+00  0.0000E+00  0.0000E+00  0.0000E+00  0.0000E+00  0.0000E+00  9.3432E-02
      52-
 mid.  surface     0.0000E+00  0.0000E+00  0.0000E+00  0.0000E+00  0.0000E+00  0.0000E+00  1.8681E+00
      53-
 mid.  surface    -5.4866E+08 -2.6991E+08 -8.2121E+08 -1.5088E+08 -2.6213E+07  1.6914E+08 -2.3853E-01
      72-
 mid.  surface     1.1164E+08  7.3468E+07  2.9389E+08 -2.1258E+07 -2.1347E+05 -1.9239E+08 -1.8329E+00
      95-
 mid.  surface    -2.4421E+09 -1.6875E+09 -2.5567E+09 -3.9866E+08 -1.4423E+08  1.0812E+08  1.6343E+00
     100-
 mid.  surface    -2.0881E+09 -2.2307E+09 -2.2838E+09 -9.9593E+07 -5.6943E+07 -2.7079E+08  5.0222E+00
     110-
 mid.  surface     1.2714E+09  6.8789E+08  8.3414E+08 -2.1816E+08 -3.0483E+08 -1.8167E+08  7.3130E+00



 n o d a l  s t r a i n  c a l c u l a t i o n s   f o r   t i m e  s t e p     1018   ( at time 6.10215E+01 )

 node (global)
          strain       eps-xx      eps-yy      eps-zz      eps-xy      eps-yz      eps-zx       
       4-
 mid.  surface     6.0983E-02  2.3103E-01 -1.5928E-01  5.6057E-02  2.6079E-01  2.1278E-01
       5-
 mid.  surface     2.5466E-01  2.1991E-01 -3.3224E-01  1.3126E-01  1.2817E-01  6.9923E-02
       6-
 mid.  surface     3.5368E-01  4.6945E-01 -6.2571E-01  4.0913E-02 -1.1148E-01  7.3916E-02
       7-
 mid.  surface     3.9824E-01  4.1667E-01 -6.1289E-01  9.4058E-03 -5.4021E-02 -9.0860E-02
       8-
 mid.  surface     4.4152E-01  1.3239E-01 -5.6900E-01 -9.9341E-02 -2.9771E-02  9.7850E-02
       9-
 mid.  surface     5.4758E-01  8.1247E-02 -6.6095E-01 -1.3466E-01 -2.8756E-01 -2.1133E-01
      10-
 mid.  surface     6.0200E-01  2.2840E-01 -4.7233E-01 -8.4099E-02  5.0549E-01  1.2024E-01
      15-
 mid.  surface     4.8806E-01  5.0530E-01 -1.1178E+00  3.3974E-02 -1.4115E-01 -3.1122E-03
      16-
 mid.  surface     2.8626E-01  4.3519E-01 -9.9882E-01  3.4491E-02  1.0565E-01  8.0416E-02
      18-
 mid.  surface     4.9902E-01  3.7451E-01 -5.9009E-01 -6.2144E-02  2.5219E-01  2.9971E-01
      40-
 mid.  surface     4.1046E-01  6.0997E-01 -1.0272E+00 -1.3086E-01  5.5023E-01  3.0327E-01
      41-
 mid.  surface     5.2049E-01  8.3553E-01 -1.3246E+00  2.0299E-01  4.8220E-01  3.0723E-02
      50-
 mid.  surface     4.3242E-01  5.4174E-01 -1.3650E+00 -5.0670E-02 -3.2982E-01 -1.0441E-01
      51-
 mid.  surface     3.1312E-01  5.1173E-01 -8.0074E-01 -1.7114E-01  3.9756E-01 -3.4719E-01
      52-
 mid.  surface     4.4965E-01  4.8168E-01 -8.3253E-01 -1.9341E-01  1.4731E-01 -1.2498E-01
      53-
 mid.  surface     3.7357E-01  4.6369E-01 -8.8091E-01 -4.8876E-02  1.3581E-02 -7.5443E-02
      72-
 mid.  surface     4.3687E-01  4.9059E-01 -1.2293E+00 -1.5421E-01  2.1354E-01  2.9687E-01
      95-
 mid.  surface     4.6535E-01  3.6158E-01 -7.8943E-01 -1.3870E-01 -9.1385E-03  6.7232E-02
     100-
 mid.  surface     4.8075E-01  5.4223E-01 -1.3139E+00 -1.9829E-02 -5.1680E-01 -2.7202E-01
     110-
 mid.  surface     4.9628E-01  7.6671E-01 -1.4376E+00  2.5736E-01 -1.2621E+00 -3.4189E-01



 n o d a l  s t r e s s  c a l c u l a t i o n s   f o r   t i m e  s t e p     1025   ( at time 6.37274E+01 )

 node (global)
          stress       sig-xx      sig-yy      sig-zz      sig-xy      sig-yz      sig-zx       plastic
                                                                                                 strain 
       4-
 mid.  surface     0.0000E+00  0.0000E+00  0.0000E+00  0.0000E+00  0.0000E+00  0.0000E+00  3.1262E+00
       5-
 mid.  surface     0.0000E+00  0.0000E+00  0.0000E+00  0.0000E+00  0.0000E+00  0.0000E+00  4.8938E+00
       6-
 mid.  surface    -2.4987E+08 -1.5063E+08 -3.4704E+08 -6.2751E+07  2.0142E+07  6.0102E+07  2.2780E+00
       7-
 mid.  surface    -6.3074E+08 -2.7931E+08 -6.4493E+08 -1.4804E+08 -1.6973E+08  2.7625E+08  2.2484E+00
       8-
 mid.  surface     7.1494E+08  8.2068E+08  5.3705E+08  2.1872E+07  6.2276E+07  2.5895E+08  2.1557E+00
       9-
 mid.  surface    -4.0247E+08 -1.2352E+08  5.2599E+08  1.7868E+08  3.1637E+08  3.4649E+08  2.6931E+00
      10-
 mid.  surface     2.4237E+08  8.0950E+07 -3.2332E+08 -1.9072E+07  6.9104E+07  1.8951E+08 -3.7533E+00
      15-
 mid.  surface     1.0088E+09  8.9054E+08  1.2173E+09  1.1165E+08  1.4939E+07  1.1680E+08 -1.3832E+00
      16-
 mid.  surface     2.3068E+08  1.3906E+08  3.2038E+08  5.7931E+07 -1.8595E+07 -5.5486E+07  1.0629E+00
      18-
 mid.  surface     1.4133E+09  1.0859E+09  6.3625E+08  4.1419E+07  9.7175E+07 -8.1762E+07 -4.2679E+00
      40-
 mid.  surface     1.2331E+09  6.8760E+08  1.5197E+08 -6.3212E+07 -9.5987E+07 -2.4502E+08 -2.5342E+00
      41-
 mid.  surface     1.5237E+08 -1.2075E+06 -1.5117E+08 -7.6698E+07 -5.0989E+07 -9.6596E+07 -3.7443E-01
      50-
 mid.  surface    -2.4987E+08 -1.5064E+08 -3.4704E+08 -6.2751E+07  2.0142E+07  6.0103E+07 -7.8244E-01
      51-
 mid.  surface     0.0000E+00  0.0000E+00  0.0000E+00  0.0000E+00  0.0000E+00  0.0000E+00  9.3432E-02
      52-
 mid.  surface     0.0000E+00  0.0000E+00  0.0000E+00  0.0000E+00  0.0000E+00  0.0000E+00  1.8681E+00
      53-
 mid.  surface    -6.8073E+08 -4.1038E+08 -9.4545E+08 -1.7095E+08  5.4874E+07  1.6374E+08 -2.1656E-01
      72-
 mid.  surface    -4.9025E+08 -5.8432E+08 -4.8043E+08  2.4361E+07 -6.9639E+07 -2.4985E+08 -1.8459E+00
      95-
 mid.  surface    -2.3493E+09 -1.8274E+09 -2.6873E+09 -3.2035E+08 -2.1537E+08  3.7584E+07  1.6961E+00
     100-
 mid.  surface    -6.7512E+08 -7.0013E+08 -8.6987E+08 -7.9618E+07 -1.7747E+08 -2.9403E+08  5.0301E+00
     110-
 mid.  surface    -6.3584E+08 -5.1429E+08  1.1501E+09  2.1395E+08  6.6811E+07  7.3173E+07  7.0472E+00



 n o d a l  s t r a i n  c a l c u l a t i o n s   f o r   t i m e  s t e p     1025   ( at time 6.37274E+01 )

 node (global)
          strain       eps-xx      eps-yy      eps-zz      eps-xy      eps-yz      eps-zx       
       4-
 mid.  surface     8.5789E-02  2.0820E-01 -1.9454E-01  7.2615E-02  2.5546E-01  1.9226E-01
       5-
 mid.  surface     2.8022E-01  2.0642E-01 -3.3383E-01  1.3804E-01  1.2656E-01  3.7989E-02
       6-
 mid.  surface     3.5863E-01  4.6985E-01 -5.6907E-01  5.8320E-02 -1.3514E-01  3.0608E-02
       7-
 mid.  surface     4.3232E-01  4.2168E-01 -7.0621E-01  2.0236E-02 -1.2508E-02 -1.4266E-01
       8-
 mid.  surface     4.8428E-01 -3.4036E-03 -5.1249E-01 -1.0762E-01  1.6435E-02  1.6854E-01
       9-
 mid.  surface     6.1053E-01  4.9787E-03 -5.2158E-01 -1.5147E-01 -4.6453E-01 -2.9083E-01
      10-
 mid.  surface     6.5812E-01  1.0990E-01 -2.4741E-01 -1.3011E-01  5.5811E-01  1.2204E-01
      15-
 mid.  surface     4.7087E-01  5.1623E-01 -1.1547E+00  3.5007E-02 -1.4980E-01 -2.6677E-02
      16-
 mid.  surface     2.7252E-01  4.3674E-01 -9.8032E-01  5.2544E-02  8.4986E-02  5.2180E-02
      18-
 mid.  surface     5.0412E-01  2.4800E-01 -4.2196E-01 -8.8573E-02  3.1302E-01  4.1412E-01
      40-
 mid.  surface     4.1897E-01  6.3558E-01 -1.0555E+00 -1.3854E-01  6.4369E-01  3.4435E-01
      41-
 mid.  surface     5.4257E-01  1.0266E+00 -1.4979E+00  2.0179E-01  7.2153E-01  4.2213E-02
      50-
 mid.  surface     3.9609E-01  5.5745E-01 -1.3447E+00 -7.1576E-02 -3.1353E-01 -7.6976E-02
      51-
 mid.  surface     3.0223E-01  5.2268E-01 -8.4379E-01 -1.7096E-01  4.2937E-01 -3.2911E-01
      52-
 mid.  surface     4.3618E-01  4.9694E-01 -8.3044E-01 -2.0903E-01  2.0213E-01 -1.0673E-01
      53-
 mid.  surface     3.6297E-01  4.6920E-01 -8.1838E-01 -6.7284E-02  8.3790E-04 -5.9875E-02
      72-
 mid.  surface     4.1404E-01  5.1625E-01 -1.2650E+00 -1.7457E-01  1.3290E-01  2.3914E-01
      95-
 mid.  surface     4.7665E-01  3.6133E-01 -8.4597E-01 -1.7398E-01  4.3739E-02  1.1410E-01
     100-
 mid.  surface     5.0937E-01  5.9736E-01 -1.4481E+00 -1.5630E-02 -5.8152E-01 -3.1172E-01
     110-
 mid.  surface     5.3582E-01  1.0506E+00 -1.6509E+00  2.9381E-01 -1.5505E+00 -4.4630E-01



 n o d a l  s t r e s s  c a l c u l a t i o n s   f o r   t i m e  s t e p     1467   ( at time 6.46513E+01 )

 node (global)
          stress       sig-xx      sig-yy      sig-zz      sig-xy      sig-yz      sig-zx       plastic
                                                                                                 strain 
       4-
 mid.  surface     0.0000E+00  0.0000E+00  0.0000E+00  0.0000E+00  0.0000E+00  0.0000E+00  3.1262E+00
       5-
 mid.  surface     0.0000E+00  0.0000E+00  0.0000E+00  0.0000E+00  0.0000E+00  0.0000E+00  4.8938E+00
       6-
 mid.  surface    -1.9595E+08 -1.1480E+08 -2.9251E+08 -8.1564E+07  1.0893E+07  4.2059E+07  2.2780E+00
       7-
 mid.  surface    -9.5149E+08 -1.0091E+09 -9.7893E+08  2.0296E+07  2.9074E+07 -2.0935E+07  2.2484E+00
       8-
 mid.  surface    -9.8689E+08 -1.0028E+09 -8.7926E+08  5.0779E+07 -3.6125E+07 -1.6520E+07  2.1557E+00
       9-
 mid.  surface     2.5343E+08  2.5343E+08  2.5343E+08  0.0000E+00  0.0000E+00  0.0000E+00  2.6931E+00
      10-
 mid.  surface     1.8073E+09  1.8073E+09  1.8073E+09  0.0000E+00  0.0000E+00  0.0000E+00 -3.7533E+00
      15-
 mid.  surface     5.3688E+08  4.0762E+08  7.7935E+08  1.6469E+08 -5.1338E+07 -7.5259E+07 -1.3832E+00
      16-
 mid.  surface     1.8090E+08  1.0598E+08  2.7004E+08  7.5299E+07 -1.0057E+07 -3.8829E+07  1.0629E+00
      18-
 mid.  surface     1.0670E+09  1.0429E+09  1.2298E+09  7.6817E+07 -5.4649E+07 -2.4991E+07 -4.2679E+00
      40-
 mid.  surface     6.1249E+08  5.9655E+08  7.2011E+08  5.0779E+07 -3.6125E+07 -1.6520E+07 -2.5342E+00
      41-
 mid.  surface     1.6543E+09  1.6543E+09  1.6543E+09  0.0000E+00  0.0000E+00  0.0000E+00 -3.7443E-01
      50-
 mid.  surface    -1.9595E+08 -1.1480E+08 -2.9251E+08 -8.1564E+07  1.0893E+07  4.2059E+07 -7.8244E-01
      51-
 mid.  surface     0.0000E+00  0.0000E+00  0.0000E+00  0.0000E+00  0.0000E+00  0.0000E+00  9.3432E-02
      52-
 mid.  surface     0.0000E+00  0.0000E+00  0.0000E+00  0.0000E+00  0.0000E+00  0.0000E+00  1.8681E+00
      53-
 mid.  surface    -5.3383E+08 -3.1276E+08 -7.9689E+08 -2.2221E+08  2.9677E+07  1.1458E+08 -2.1656E-01
      72-
 mid.  surface    -1.3983E+08 -1.9748E+08 -1.6727E+08  2.0295E+07  2.9074E+07 -2.0934E+07 -1.8459E+00
      95-
 mid.  surface    -1.8519E+09 -1.7237E+09 -2.2661E+09 -2.3141E+08  1.1750E+08  9.0809E+07  1.6961E+00
     100-
 mid.  surface    -1.8494E+09 -1.8322E+09 -1.9660E+09 -5.5004E+07  3.9131E+07  1.7894E+07  5.0301E+00
     110-
 mid.  surface    -3.6805E+08 -3.6805E+08 -3.6805E+08  0.0000E+00  0.0000E+00  0.0000E+00  7.0472E+00



 n o d a l  s t r a i n  c a l c u l a t i o n s   f o r   t i m e  s t e p     1467   ( at time 6.46513E+01 )

 node (global)
          strain       eps-xx      eps-yy      eps-zz      eps-xy      eps-yz      eps-zx       
       4-
 mid.  surface     8.8989E-02  2.0666E-01 -2.0054E-01  7.3198E-02  2.5403E-01  1.9039E-01
       5-
 mid.  surface     2.8300E-01  2.0696E-01 -3.3750E-01  1.3824E-01  1.2533E-01  3.5092E-02
       6-
 mid.  surface     3.6055E-01  4.7086E-01 -5.6489E-01  5.9617E-02 -1.3668E-01  2.4161E-02
       7-
 mid.  surface     4.3256E-01  4.1289E-01 -7.0975E-01  1.7875E-02 -4.6877E-03 -1.4452E-01
       8-
 mid.  surface     4.8500E-01 -5.9231E-02 -4.7519E-01 -1.1630E-01  1.4236E-02  1.7406E-01
       9-
 mid.  surface     6.1107E-01 -2.3665E-02 -4.6223E-01 -1.6719E-01 -4.8302E-01 -2.9938E-01
      10-
 mid.  surface     6.5924E-01  7.7355E-02 -1.8369E-01 -1.4392E-01  5.8209E-01  1.3442E-01
      15-
 mid.  surface     4.6916E-01  5.1226E-01 -1.1533E+00  3.4346E-02 -1.4733E-01 -2.1088E-02
      16-
 mid.  surface     2.7308E-01  4.3698E-01 -9.7982E-01  5.3307E-02  8.2998E-02  4.8319E-02
      18-
 mid.  surface     5.0447E-01  2.0237E-01 -3.6611E-01 -9.3414E-02  3.2118E-01  4.3223E-01
      40-
 mid.  surface     4.2011E-01  6.4205E-01 -1.0860E+00 -1.3411E-01  6.7348E-01  3.6002E-01
      41-
 mid.  surface     5.4395E-01  1.0789E+00 -1.5653E+00  2.0647E-01  7.9438E-01  5.3805E-02
      50-
 mid.  surface     3.9260E-01  5.5832E-01 -1.3421E+00 -7.3511E-02 -3.1135E-01 -7.3316E-02
      51-
 mid.  surface     3.0140E-01  5.2246E-01 -8.4781E-01 -1.7122E-01  4.3159E-01 -3.2697E-01
      52-
 mid.  surface     4.3446E-01  4.9820E-01 -8.3077E-01 -2.1010E-01  2.0675E-01 -1.0415E-01
      53-
 mid.  surface     3.6206E-01  4.6961E-01 -8.1147E-01 -6.8869E-02  1.1800E-04 -5.9518E-02
      72-
 mid.  surface     4.1285E-01  5.2137E-01 -1.2730E+00 -1.7485E-01  1.2453E-01  2.3274E-01
      95-
 mid.  surface     4.7595E-01  3.5884E-01 -8.5633E-01 -1.7759E-01  4.9630E-02  1.1237E-01
     100-
 mid.  surface     5.1333E-01  6.0998E-01 -1.4882E+00 -9.4243E-03 -5.9461E-01 -3.3058E-01
     110-
 mid.  surface     5.3991E-01  1.1323E+00 -1.7113E+00  3.0501E-01 -1.6257E+00 -4.7080E-01
