 LS-DYNA keyword deck by LS-PrePost                                      
                    ls-dyna smp d R14 R14.1.1s_1_ef50e1 date 06/16/2024

{BEGIN LEGEND}
 Entity #        Title
        1                                                                                     
        2                                                                                     
        3                                                                                     
        4                                                                                     
        5                                                                                     
        6                                                                                     
        7                                                                                     
        8                                                                                     
        9                                                                                     
       10                                                                                     
       11                                                                                     
       12                                                                                     
       13                                                                                     
       14                                                                                     
       15                                                                                     
       16                                                                                     
       17                                                                                     
       18                                                                                     
       19                                                                                     
      179                                                                                     
      180                                                                                     
      181                                                                                     
      182                                                                                     
      247                                                                                     
      248                                                                                     
      249                                                                                     
      250                                                                                     
      283                                                                                     
      284                                                                                     
      333                                                                                     
      334                                                                                     
      335                                                                                     
      368                                                                                     
      369                                                                                     
      386                                                                                     
      403                                                                                     
      436                                                                                     
      437                                                                                     
      438                                                                                     
      439                                                                                     
      440                                                                                     
      441                                                                                     
      442                                                                                     
      443                                                                                     
      444                                                                                     
      628                                                                                     
      631                                                                                     
      632                                                                                     
      635                                                                                     
      636                                                                                     
      639                                                                                     
      640                                                                                     
      643                                                                                     
      692                                                                                     
      694                                                                                     
      696                                                                                     
      698                                                                                     
      900                                                                                     
      902                                                                                     
      903                                                                                     
      905                                                                                     
      906                                                                                     
      908                                                                                     
      909                                                                                     
      911                                                                                     
     1012                                                                                     
     1013                                                                                     
     1014                                                                                     
     1015                                                                                     
     1060                                                                                     
     1061                                                                                     
     1062                                                                                     
     1063                                                                                     
{END LEGEND}




 n o d a l   p r i n t   o u t   f o r   t i m e  s t e p       1                              ( at time 0.0000000E+00 )

 nodal point  x-disp     y-disp      z-disp      x-vel       y-vel       z-vel      x-accl      y-accl      z-accl      x-coor      y-coor      z-coor
        1  0.00000E+00 0.00000E+00 0.00000E+00 0.00000E+00 0.00000E+00 0.00000E+00 0.00000E+00 0.00000E+00 0.00000E+00 0.00000E+00 0.00000E+00 0.00000E+00
        2  0.00000E+00 0.00000E+00 0.00000E+00 0.00000E+00 0.00000E+00 0.00000E+00 0.00000E+00 0.00000E+00 0.00000E+00 7.93750E-04 0.00000E+00 0.00000E+00
        3  0.00000E+00 0.00000E+00 0.00000E+00 0.00000E+00 0.00000E+00 0.00000E+00 0.00000E+00 0.00000E+00 0.00000E+00 1.58750E-03 0.00000E+00 0.00000E+00
        4  0.00000E+00 0.00000E+00 0.00000E+00 0.00000E+00 0.00000E+00 0.00000E+00 0.00000E+00 0.00000E+00 0.00000E+00 2.38130E-03 0.00000E+00 0.00000E+00
        5  0.00000E+00 0.00000E+00 0.00000E+00 0.00000E+00 0.00000E+00 0.00000E+00 0.00000E+00 0.00000E+00 0.00000E+00 3.17500E-03 0.00000E+00 0.00000E+00
        6  0.00000E+00 0.00000E+00 0.00000E+00 0.00000E+00 0.00000E+00 0.00000E+00 0.00000E+00 0.00000E+00 0.00000E+00 2.93330E-03 1.21500E-03-1.78000E-18
        7  0.00000E+00 0.00000E+00 0.00000E+00 0.00000E+00 0.00000E+00 0.00000E+00 0.00000E+00 0.00000E+00 0.00000E+00 2.24510E-03 2.24510E-03-1.78000E-18
        8  0.00000E+00 0.00000E+00 0.00000E+00 0.00000E+00 0.00000E+00 0.00000E+00 0.00000E+00 0.00000E+00 0.00000E+00 1.21500E-03 2.93330E-03-1.78000E-18
        9  0.00000E+00 0.00000E+00 0.00000E+00 0.00000E+00 0.00000E+00 0.00000E+00 0.00000E+00 0.00000E+00 0.00000E+00 1.94400E-19 3.17500E-03-1.78000E-18
       10  0.00000E+00 0.00000E+00 0.00000E+00 0.00000E+00 0.00000E+00 0.00000E+00 0.00000E+00 0.00000E+00 0.00000E+00 1.45800E-19 2.38130E-03 0.00000E+00
       11  0.00000E+00 0.00000E+00 0.00000E+00 0.00000E+00 0.00000E+00 0.00000E+00 0.00000E+00 0.00000E+00 0.00000E+00 9.72100E-20 1.58750E-03 0.00000E+00
       12  0.00000E+00 0.00000E+00 0.00000E+00 0.00000E+00 0.00000E+00 0.00000E+00 0.00000E+00 0.00000E+00 0.00000E+00 4.86000E-20 7.93750E-04 0.00000E+00
       13  0.00000E+00 0.00000E+00 0.00000E+00 0.00000E+00 0.00000E+00 0.00000E+00 0.00000E+00 0.00000E+00 0.00000E+00 1.35190E-03 1.30830E-03 0.00000E+00
       14  0.00000E+00 0.00000E+00 0.00000E+00 0.00000E+00 0.00000E+00 0.00000E+00 0.00000E+00 0.00000E+00 0.00000E+00 1.50690E-03 6.69579E-04 0.00000E+00
       15  0.00000E+00 0.00000E+00 0.00000E+00 0.00000E+00 0.00000E+00 0.00000E+00 0.00000E+00 0.00000E+00 0.00000E+00 1.76750E-03 1.73630E-03 0.00000E+00
       16  0.00000E+00 0.00000E+00 0.00000E+00 0.00000E+00 0.00000E+00 0.00000E+00 0.00000E+00 0.00000E+00 0.00000E+00 2.19110E-03 9.20134E-04 0.00000E+00
       17  0.00000E+00 0.00000E+00 0.00000E+00 0.00000E+00 0.00000E+00 0.00000E+00 0.00000E+00 0.00000E+00 0.00000E+00 7.06977E-04 1.48830E-03 0.00000E+00
       18  0.00000E+00 0.00000E+00 0.00000E+00 0.00000E+00 0.00000E+00 0.00000E+00 0.00000E+00 0.00000E+00 0.00000E+00 9.50859E-04 2.16330E-03 0.00000E+00
       19  0.00000E+00 0.00000E+00 0.00000E+00 0.00000E+00 0.00000E+00 0.00000E+00 0.00000E+00 0.00000E+00 0.00000E+00 7.82454E-04 7.53789E-04 0.00000E+00
      179  0.00000E+00 0.00000E+00 0.00000E+00 0.00000E+00 0.00000E+00 0.00000E+00 0.00000E+00 0.00000E+00 0.00000E+00 4.49010E-03 4.49010E-03 2.54000E-02
      180  0.00000E+00 0.00000E+00 0.00000E+00 0.00000E+00 0.00000E+00 0.00000E+00 0.00000E+00 0.00000E+00 0.00000E+00 3.53300E-03 3.47070E-03 2.54000E-02
      181  0.00000E+00 0.00000E+00 0.00000E+00 0.00000E+00 0.00000E+00 0.00000E+00 0.00000E+00 0.00000E+00 0.00000E+00 4.37980E-03 1.83920E-03 2.54000E-02
      182  0.00000E+00 0.00000E+00 0.00000E+00 0.00000E+00 0.00000E+00 0.00000E+00 0.00000E+00 0.00000E+00 0.00000E+00 5.86670E-03 2.42980E-03 2.54000E-02
      247  0.00000E+00 0.00000E+00 0.00000E+00 0.00000E+00 0.00000E+00 0.00000E+00 0.00000E+00 0.00000E+00 0.00000E+00 1.58750E-03 0.00000E+00 2.54000E-02
      248  0.00000E+00 0.00000E+00 0.00000E+00 0.00000E+00 0.00000E+00 0.00000E+00 0.00000E+00 0.00000E+00 0.00000E+00 1.56390E-03 1.50640E-03 2.54000E-02
      249  0.00000E+00 0.00000E+00 0.00000E+00 0.00000E+00 0.00000E+00 0.00000E+00 0.00000E+00 0.00000E+00 0.00000E+00 9.72100E-20 1.58750E-03 2.54000E-02
      250  0.00000E+00 0.00000E+00 0.00000E+00 0.00000E+00 0.00000E+00 0.00000E+00 0.00000E+00 0.00000E+00 0.00000E+00 0.00000E+00 0.00000E+00 2.54000E-02
      283  0.00000E+00 0.00000E+00 0.00000E+00 0.00000E+00 0.00000E+00 0.00000E+00 0.00000E+00 0.00000E+00 0.00000E+00 3.17500E-03 0.00000E+00 2.54000E-02
      284  0.00000E+00 0.00000E+00 0.00000E+00 0.00000E+00 0.00000E+00 0.00000E+00 0.00000E+00 0.00000E+00 0.00000E+00 3.01180E-03 1.33810E-03 2.54000E-02
      333  0.00000E+00 0.00000E+00 0.00000E+00 0.00000E+00 0.00000E+00 0.00000E+00 0.00000E+00 0.00000E+00 0.00000E+00 1.41330E-03 2.97530E-03 2.54000E-02
      334  0.00000E+00 0.00000E+00 0.00000E+00 0.00000E+00 0.00000E+00 0.00000E+00 0.00000E+00 0.00000E+00 0.00000E+00 2.70270E-03 2.61550E-03 2.54000E-02
      335  0.00000E+00 0.00000E+00 0.00000E+00 0.00000E+00 0.00000E+00 0.00000E+00 0.00000E+00 0.00000E+00 0.00000E+00 1.90050E-03 4.32390E-03 2.54000E-02
      368  0.00000E+00 0.00000E+00 0.00000E+00 0.00000E+00 0.00000E+00 0.00000E+00 0.00000E+00 0.00000E+00 0.00000E+00 1.94400E-19 3.17500E-03 2.54000E-02
      369  0.00000E+00 0.00000E+00 0.00000E+00 0.00000E+00 0.00000E+00 0.00000E+00 0.00000E+00 0.00000E+00 0.00000E+00 2.91600E-19 4.76250E-03 2.54000E-02
      386  0.00000E+00 0.00000E+00 0.00000E+00 0.00000E+00 0.00000E+00 0.00000E+00 0.00000E+00 0.00000E+00 0.00000E+00 4.76250E-03 0.00000E+00 2.54000E-02
      403  0.00000E+00 0.00000E+00 0.00000E+00 0.00000E+00 0.00000E+00 0.00000E+00 0.00000E+00 0.00000E+00 0.00000E+00 6.35000E-03 0.00000E+00 2.54000E-02
      436  0.00000E+00 0.00000E+00 0.00000E+00 0.00000E+00 0.00000E+00 0.00000E+00 0.00000E+00 0.00000E+00 0.00000E+00 2.42980E-03 5.86670E-03 2.54000E-02
      437  0.00000E+00 0.00000E+00 0.00000E+00 0.00000E+00 0.00000E+00 0.00000E+00 0.00000E+00 0.00000E+00 0.00000E+00 3.88800E-19 6.35000E-03 2.54000E-02
      438  0.00000E+00 0.00000E+00 0.00000E+00 0.00000E+00 0.00000E+00 0.00000E+00 0.00000E+00 0.00000E+00 0.00000E+00 7.25710E-03 0.00000E+00 2.54000E-02
      439  0.00000E+00 0.00000E+00 0.00000E+00 0.00000E+00 0.00000E+00 0.00000E+00 0.00000E+00 0.00000E+00 0.00000E+00 8.16430E-03 0.00000E+00 2.54000E-02
      440  0.00000E+00 0.00000E+00 0.00000E+00 0.00000E+00 0.00000E+00 0.00000E+00 0.00000E+00 0.00000E+00 0.00000E+00 9.07140E-03 0.00000E+00 2.54000E-02
      441  0.00000E+00 0.00000E+00 0.00000E+00 0.00000E+00 0.00000E+00 0.00000E+00 0.00000E+00 0.00000E+00 0.00000E+00 9.97860E-03 0.00000E+00 2.54000E-02
      442  0.00000E+00 0.00000E+00 0.00000E+00 0.00000E+00 0.00000E+00 0.00000E+00 0.00000E+00 0.00000E+00 0.00000E+00 1.08857E-02 0.00000E+00 2.54000E-02
      443  0.00000E+00 0.00000E+00 0.00000E+00 0.00000E+00 0.00000E+00 0.00000E+00 0.00000E+00 0.00000E+00 0.00000E+00 1.17929E-02 0.00000E+00 2.54000E-02
      444  0.00000E+00 0.00000E+00 0.00000E+00 0.00000E+00 0.00000E+00 0.00000E+00 0.00000E+00 0.00000E+00 0.00000E+00 1.27000E-02 0.00000E+00 2.54000E-02
      628  0.00000E+00 0.00000E+00 0.00000E+00 0.00000E+00 0.00000E+00 0.00000E+00 0.00000E+00 0.00000E+00 0.00000E+00 8.39690E-03 3.43240E-03 2.54000E-02
      631  0.00000E+00 0.00000E+00 0.00000E+00 0.00000E+00 0.00000E+00 0.00000E+00 0.00000E+00 0.00000E+00 0.00000E+00 7.55350E-03 3.09820E-03 2.54000E-02
      632  0.00000E+00 0.00000E+00 0.00000E+00 0.00000E+00 0.00000E+00 0.00000E+00 0.00000E+00 0.00000E+00 0.00000E+00 6.41810E-03 6.41090E-03 2.54000E-02
      635  0.00000E+00 0.00000E+00 0.00000E+00 0.00000E+00 0.00000E+00 0.00000E+00 0.00000E+00 0.00000E+00 0.00000E+00 5.77540E-03 5.77060E-03 2.54000E-02
      636  0.00000E+00 0.00000E+00 0.00000E+00 0.00000E+00 0.00000E+00 0.00000E+00 0.00000E+00 0.00000E+00 0.00000E+00 3.43920E-03 8.39420E-03 2.54000E-02
      639  0.00000E+00 0.00000E+00 0.00000E+00 0.00000E+00 0.00000E+00 0.00000E+00 0.00000E+00 0.00000E+00 0.00000E+00 3.10270E-03 7.55170E-03 2.54000E-02
      640  0.00000E+00 0.00000E+00 0.00000E+00 0.00000E+00 0.00000E+00 0.00000E+00 0.00000E+00 0.00000E+00 0.00000E+00 5.55500E-19 9.07140E-03 2.54000E-02
      643  0.00000E+00 0.00000E+00 0.00000E+00 0.00000E+00 0.00000E+00 0.00000E+00 0.00000E+00 0.00000E+00 0.00000E+00 4.99900E-19 8.16430E-03 2.54000E-02
      692  0.00000E+00 0.00000E+00 0.00000E+00 0.00000E+00 0.00000E+00 0.00000E+00 0.00000E+00 0.00000E+00 0.00000E+00 9.24030E-03 3.76660E-03 2.54000E-02
      694  0.00000E+00 0.00000E+00 0.00000E+00 0.00000E+00 0.00000E+00 0.00000E+00 0.00000E+00 0.00000E+00 0.00000E+00 7.06070E-03 7.05110E-03 2.54000E-02
      696  0.00000E+00 0.00000E+00 0.00000E+00 0.00000E+00 0.00000E+00 0.00000E+00 0.00000E+00 0.00000E+00 0.00000E+00 3.77570E-03 9.23660E-03 2.54000E-02
      698  0.00000E+00 0.00000E+00 0.00000E+00 0.00000E+00 0.00000E+00 0.00000E+00 0.00000E+00 0.00000E+00 0.00000E+00 6.11000E-19 9.97860E-03 2.54000E-02
      900  0.00000E+00 0.00000E+00 0.00000E+00 0.00000E+00 0.00000E+00 0.00000E+00 0.00000E+00 0.00000E+00 0.00000E+00 1.09271E-02 4.43500E-03 2.54000E-02
      902  0.00000E+00 0.00000E+00 0.00000E+00 0.00000E+00 0.00000E+00 0.00000E+00 0.00000E+00 0.00000E+00 0.00000E+00 1.00837E-02 4.10080E-03 2.54000E-02
      903  0.00000E+00 0.00000E+00 0.00000E+00 0.00000E+00 0.00000E+00 0.00000E+00 0.00000E+00 0.00000E+00 0.00000E+00 8.34610E-03 8.33160E-03 2.54000E-02
      905  0.00000E+00 0.00000E+00 0.00000E+00 0.00000E+00 0.00000E+00 0.00000E+00 0.00000E+00 0.00000E+00 0.00000E+00 7.70340E-03 7.69130E-03 2.54000E-02
      906  0.00000E+00 0.00000E+00 0.00000E+00 0.00000E+00 0.00000E+00 0.00000E+00 0.00000E+00 0.00000E+00 0.00000E+00 4.44870E-03 1.09215E-02 2.54000E-02
      908  0.00000E+00 0.00000E+00 0.00000E+00 0.00000E+00 0.00000E+00 0.00000E+00 0.00000E+00 0.00000E+00 0.00000E+00 4.11220E-03 1.00791E-02 2.54000E-02
      909  0.00000E+00 0.00000E+00 0.00000E+00 0.00000E+00 0.00000E+00 0.00000E+00 0.00000E+00 0.00000E+00 0.00000E+00 7.22100E-19 1.17929E-02 2.54000E-02
      911  0.00000E+00 0.00000E+00 0.00000E+00 0.00000E+00 0.00000E+00 0.00000E+00 0.00000E+00 0.00000E+00 0.00000E+00 6.66600E-19 1.08857E-02 2.54000E-02
     1012  0.00000E+00 0.00000E+00 0.00000E+00 0.00000E+00 0.00000E+00 0.00000E+00 0.00000E+00 0.00000E+00 0.00000E+00 6.71010E-03 2.76400E-03 2.54000E-02
     1013  0.00000E+00 0.00000E+00 0.00000E+00 0.00000E+00 0.00000E+00 0.00000E+00 0.00000E+00 0.00000E+00 0.00000E+00 5.13280E-03 5.13040E-03 2.54000E-02
     1014  0.00000E+00 0.00000E+00 0.00000E+00 0.00000E+00 0.00000E+00 0.00000E+00 0.00000E+00 0.00000E+00 0.00000E+00 2.76620E-03 6.70920E-03 2.54000E-02
     1015  0.00000E+00 0.00000E+00 0.00000E+00 0.00000E+00 0.00000E+00 0.00000E+00 0.00000E+00 0.00000E+00 0.00000E+00 4.44400E-19 7.25710E-03 2.54000E-02
     1060  0.00000E+00 0.00000E+00 0.00000E+00 0.00000E+00 0.00000E+00 0.00000E+00 0.00000E+00 0.00000E+00 0.00000E+00 1.17705E-02 4.76920E-03 2.54000E-02
     1061  0.00000E+00 0.00000E+00 0.00000E+00 0.00000E+00 0.00000E+00 0.00000E+00 0.00000E+00 0.00000E+00 0.00000E+00 8.98870E-03 8.97180E-03 2.54000E-02
     1062  0.00000E+00 0.00000E+00 0.00000E+00 0.00000E+00 0.00000E+00 0.00000E+00 0.00000E+00 0.00000E+00 0.00000E+00 4.78520E-03 1.17640E-02 2.54000E-02
     1063  0.00000E+00 0.00000E+00 0.00000E+00 0.00000E+00 0.00000E+00 0.00000E+00 0.00000E+00 0.00000E+00 0.00000E+00 7.77700E-19 1.27000E-02 2.54000E-02



 n o d a l   p r i n t   o u t   f o r   t i m e  s t e p      10                              ( at time 1.2924466E+00 )

 nodal point  x-disp     y-disp      z-disp      x-vel       y-vel       z-vel      x-accl      y-accl      z-accl      x-coor      y-coor      z-coor
        1  0.00000E+00 0.00000E+00 0.00000E+00 0.00000E+00 0.00000E+00 0.00000E+00 0.00000E+00 0.00000E+00 0.00000E+00 0.00000E+00 0.00000E+00 0.00000E+00
        2  1.39298E-07 0.00000E+00 0.00000E+00 0.00000E+00 0.00000E+00 0.00000E+00 0.00000E+00 0.00000E+00 0.00000E+00 7.93889E-04 0.00000E+00 0.00000E+00
        3  4.13166E-07 0.00000E+00 0.00000E+00 0.00000E+00 0.00000E+00 0.00000E+00 0.00000E+00 0.00000E+00 0.00000E+00 1.58791E-03 0.00000E+00 0.00000E+00
        4  1.09727E-06 0.00000E+00 0.00000E+00 0.00000E+00 0.00000E+00 0.00000E+00 0.00000E+00 0.00000E+00 0.00000E+00 2.38240E-03 0.00000E+00 0.00000E+00
        5  3.18228E-06 0.00000E+00 0.00000E+00 0.00000E+00 0.00000E+00 0.00000E+00 0.00000E+00 0.00000E+00 0.00000E+00 3.17818E-03 0.00000E+00 0.00000E+00
        6  2.92730E-06 1.66523E-06 0.00000E+00 0.00000E+00 0.00000E+00 0.00000E+00 0.00000E+00 0.00000E+00 0.00000E+00 2.93623E-03 1.21667E-03-1.78000E-18
        7  2.25688E-06 2.87563E-06 0.00000E+00 0.00000E+00 0.00000E+00 0.00000E+00 0.00000E+00 0.00000E+00 0.00000E+00 2.24736E-03 2.24798E-03-1.78000E-18
        8  1.20099E-06 3.42123E-06 0.00000E+00 0.00000E+00 0.00000E+00 0.00000E+00 0.00000E+00 0.00000E+00 0.00000E+00 1.21620E-03 2.93672E-03-1.78000E-18
        9  0.00000E+00 3.44589E-06 0.00000E+00 0.00000E+00 0.00000E+00 0.00000E+00 0.00000E+00 0.00000E+00 0.00000E+00 1.94400E-19 3.17845E-03-1.78000E-18
       10  0.00000E+00 1.15528E-06 0.00000E+00 0.00000E+00 0.00000E+00 0.00000E+00 0.00000E+00 0.00000E+00 0.00000E+00 1.45800E-19 2.38246E-03 0.00000E+00
       11  0.00000E+00 3.29757E-07 0.00000E+00 0.00000E+00 0.00000E+00 0.00000E+00 0.00000E+00 0.00000E+00 0.00000E+00 9.72100E-20 1.58783E-03 0.00000E+00
       12  0.00000E+00 8.05402E-08 0.00000E+00 0.00000E+00 0.00000E+00 0.00000E+00 0.00000E+00 0.00000E+00 0.00000E+00 4.86000E-20 7.93831E-04 0.00000E+00
       13  7.08746E-07 5.68960E-07 0.00000E+00 0.00000E+00 0.00000E+00 0.00000E+00 0.00000E+00 0.00000E+00 0.00000E+00 1.35261E-03 1.30887E-03 0.00000E+00
       14  5.05085E-07 2.49679E-07 0.00000E+00 0.00000E+00 0.00000E+00 0.00000E+00 0.00000E+00 0.00000E+00 0.00000E+00 1.50741E-03 6.69828E-04 0.00000E+00
       15  1.25048E-06 1.02900E-06 0.00000E+00 0.00000E+00 0.00000E+00 0.00000E+00 0.00000E+00 0.00000E+00 0.00000E+00 1.76875E-03 1.73733E-03 0.00000E+00
       16  1.17928E-06 4.18177E-07 0.00000E+00 0.00000E+00 0.00000E+00 0.00000E+00 0.00000E+00 0.00000E+00 0.00000E+00 2.19228E-03 9.20552E-04 0.00000E+00
       17  3.27928E-07 5.53851E-07 0.00000E+00 0.00000E+00 0.00000E+00 0.00000E+00 0.00000E+00 0.00000E+00 0.00000E+00 7.07305E-04 1.48885E-03 0.00000E+00
       18  6.61522E-07 1.22821E-06 0.00000E+00 0.00000E+00 0.00000E+00 0.00000E+00 0.00000E+00 0.00000E+00 0.00000E+00 9.51520E-04 2.16453E-03 0.00000E+00
       19  2.13312E-07 2.23822E-07 0.00000E+00 0.00000E+00 0.00000E+00 0.00000E+00 0.00000E+00 0.00000E+00 0.00000E+00 7.82668E-04 7.54013E-04 0.00000E+00
      179  4.68410E-07 5.76131E-07-2.58489E-05 0.00000E+00 0.00000E+00 0.00000E+00 0.00000E+00 0.00000E+00 0.00000E+00 4.49057E-03 4.49068E-03 2.53742E-02
      180  3.64352E-07 4.17108E-07-2.58489E-05 0.00000E+00 0.00000E+00 0.00000E+00 0.00000E+00 0.00000E+00 0.00000E+00 3.53336E-03 3.47112E-03 2.53742E-02
      181  3.62130E-07 2.14899E-07-2.58489E-05 0.00000E+00 0.00000E+00 0.00000E+00 0.00000E+00 0.00000E+00 0.00000E+00 4.38016E-03 1.83941E-03 2.53742E-02
      182  5.91504E-07 3.18029E-07-2.58489E-05 0.00000E+00 0.00000E+00 0.00000E+00 0.00000E+00 0.00000E+00 0.00000E+00 5.86729E-03 2.43012E-03 2.53742E-02
      247  1.37316E-07 0.00000E+00-2.58489E-05 0.00000E+00 0.00000E+00 0.00000E+00 0.00000E+00 0.00000E+00 0.00000E+00 1.58764E-03 0.00000E+00 2.53742E-02
      248  1.73995E-07 1.81003E-07-2.58489E-05 0.00000E+00 0.00000E+00 0.00000E+00 0.00000E+00 0.00000E+00 0.00000E+00 1.56407E-03 1.50658E-03 2.53742E-02
      249  0.00000E+00 1.91326E-07-2.58489E-05 0.00000E+00 0.00000E+00 0.00000E+00 0.00000E+00 0.00000E+00 0.00000E+00 9.72100E-20 1.58769E-03 2.53742E-02
      250  0.00000E+00 0.00000E+00-2.58489E-05 0.00000E+00 0.00000E+00 0.00000E+00 0.00000E+00 0.00000E+00 0.00000E+00 0.00000E+00 0.00000E+00 2.53742E-02
      283  2.83607E-07 0.00000E+00-2.58489E-05 0.00000E+00 0.00000E+00 0.00000E+00 0.00000E+00 0.00000E+00 0.00000E+00 3.17528E-03 0.00000E+00 2.53742E-02
      284  2.57768E-07 8.17273E-08-2.58489E-05 0.00000E+00 0.00000E+00 0.00000E+00 0.00000E+00 0.00000E+00 0.00000E+00 3.01206E-03 1.33818E-03 2.53742E-02
      333  1.03808E-07 2.89284E-07-2.58489E-05 0.00000E+00 0.00000E+00 0.00000E+00 0.00000E+00 0.00000E+00 0.00000E+00 1.41340E-03 2.97559E-03 2.53742E-02
      334  2.54827E-07 2.64319E-07-2.58489E-05 0.00000E+00 0.00000E+00 0.00000E+00 0.00000E+00 0.00000E+00 0.00000E+00 2.70295E-03 2.61576E-03 2.53742E-02
      335  1.84557E-07 4.21873E-07-2.58489E-05 0.00000E+00 0.00000E+00 0.00000E+00 0.00000E+00 0.00000E+00 0.00000E+00 1.90068E-03 4.32432E-03 2.53742E-02
      368  0.00000E+00 3.75314E-07-2.58489E-05 0.00000E+00 0.00000E+00 0.00000E+00 0.00000E+00 0.00000E+00 0.00000E+00 1.94400E-19 3.17538E-03 2.53742E-02
      369  0.00000E+00 6.05293E-07-2.58489E-05 0.00000E+00 0.00000E+00 0.00000E+00 0.00000E+00 0.00000E+00 0.00000E+00 2.91600E-19 4.76311E-03 2.53742E-02
      386  4.52925E-07 0.00000E+00-2.58489E-05 0.00000E+00 0.00000E+00 0.00000E+00 0.00000E+00 0.00000E+00 0.00000E+00 4.76295E-03 0.00000E+00 2.53742E-02
      403  6.44234E-07 0.00000E+00-2.58489E-05 0.00000E+00 0.00000E+00 0.00000E+00 0.00000E+00 0.00000E+00 0.00000E+00 6.35064E-03 0.00000E+00 2.53742E-02
      436  2.47698E-07 7.50577E-07-2.58489E-05 0.00000E+00 0.00000E+00 0.00000E+00 0.00000E+00 0.00000E+00 0.00000E+00 2.43005E-03 5.86745E-03 2.53742E-02
      437  0.00000E+00 8.82949E-07-2.58489E-05 0.00000E+00 0.00000E+00 0.00000E+00 0.00000E+00 0.00000E+00 0.00000E+00 3.88800E-19 6.35088E-03 2.53742E-02
      438  6.70212E-07 0.00000E+00-2.58489E-05 0.00000E+00 0.00000E+00 0.00000E+00 0.00000E+00 0.00000E+00 0.00000E+00 7.25777E-03 0.00000E+00 2.53742E-02
      439  7.38391E-07 0.00000E+00-2.58489E-05 0.00000E+00 0.00000E+00 0.00000E+00 0.00000E+00 0.00000E+00 0.00000E+00 8.16504E-03 0.00000E+00 2.53742E-02
      440  8.09039E-07 0.00000E+00-2.58489E-05 0.00000E+00 0.00000E+00 0.00000E+00 0.00000E+00 0.00000E+00 0.00000E+00 9.07221E-03 0.00000E+00 2.53742E-02
      441  8.78150E-07 0.00000E+00-2.58489E-05 0.00000E+00 0.00000E+00 0.00000E+00 0.00000E+00 0.00000E+00 0.00000E+00 9.97948E-03 0.00000E+00 2.53742E-02
      442  9.44554E-07 0.00000E+00-2.58489E-05 0.00000E+00 0.00000E+00 0.00000E+00 0.00000E+00 0.00000E+00 0.00000E+00 1.08866E-02 0.00000E+00 2.53742E-02
      443  1.00962E-06 0.00000E+00-2.58489E-05 0.00000E+00 0.00000E+00 0.00000E+00 0.00000E+00 0.00000E+00 0.00000E+00 1.17939E-02 0.00000E+00 2.53742E-02
      444  1.08129E-06 0.00000E+00-2.58489E-05 0.00000E+00 0.00000E+00 0.00000E+00 0.00000E+00 0.00000E+00 0.00000E+00 1.27011E-02 0.00000E+00 2.53742E-02
      628  7.68515E-07 4.00201E-07-2.58489E-05 0.00000E+00 0.00000E+00 0.00000E+00 0.00000E+00 0.00000E+00 0.00000E+00 8.39767E-03 3.43280E-03 2.53742E-02
      631  7.00252E-07 3.68199E-07-2.58489E-05 0.00000E+00 0.00000E+00 0.00000E+00 0.00000E+00 0.00000E+00 0.00000E+00 7.55420E-03 3.09857E-03 2.53742E-02
      632  6.15984E-07 7.34298E-07-2.58489E-05 0.00000E+00 0.00000E+00 0.00000E+00 0.00000E+00 0.00000E+00 0.00000E+00 6.41872E-03 6.41163E-03 2.53742E-02
      635  5.60167E-07 6.73837E-07-2.58489E-05 0.00000E+00 0.00000E+00 0.00000E+00 0.00000E+00 0.00000E+00 0.00000E+00 5.77596E-03 5.77127E-03 2.53742E-02
      636  3.33598E-07 9.36529E-07-2.58489E-05 0.00000E+00 0.00000E+00 0.00000E+00 0.00000E+00 0.00000E+00 0.00000E+00 3.43953E-03 8.39514E-03 2.53742E-02
      639  3.01588E-07 8.63130E-07-2.58489E-05 0.00000E+00 0.00000E+00 0.00000E+00 0.00000E+00 0.00000E+00 0.00000E+00 3.10300E-03 7.55256E-03 2.53742E-02
      640  0.00000E+00 1.00509E-06-2.58489E-05 0.00000E+00 0.00000E+00 0.00000E+00 0.00000E+00 0.00000E+00 0.00000E+00 5.55500E-19 9.07241E-03 2.53742E-02
      643  0.00000E+00 9.32523E-07-2.58489E-05 0.00000E+00 0.00000E+00 0.00000E+00 0.00000E+00 0.00000E+00 0.00000E+00 4.99900E-19 8.16523E-03 2.53742E-02
      692  8.37112E-07 4.30240E-07-2.58489E-05 0.00000E+00 0.00000E+00 0.00000E+00 0.00000E+00 0.00000E+00 0.00000E+00 9.24114E-03 3.76703E-03 2.53742E-02
      694  6.73765E-07 7.94081E-07-2.58489E-05 0.00000E+00 0.00000E+00 0.00000E+00 0.00000E+00 0.00000E+00 0.00000E+00 7.06137E-03 7.05189E-03 2.53742E-02
      696  3.66718E-07 1.01042E-06-2.58489E-05 0.00000E+00 0.00000E+00 0.00000E+00 0.00000E+00 0.00000E+00 0.00000E+00 3.77607E-03 9.23761E-03 2.53742E-02
      698  0.00000E+00 1.08007E-06-2.58489E-05 0.00000E+00 0.00000E+00 0.00000E+00 0.00000E+00 0.00000E+00 0.00000E+00 6.11000E-19 9.97968E-03 2.53742E-02
      900  9.73995E-07 4.83283E-07-2.58489E-05 0.00000E+00 0.00000E+00 0.00000E+00 0.00000E+00 0.00000E+00 0.00000E+00 1.09281E-02 4.43548E-03 2.53742E-02
      902  9.05619E-07 4.57751E-07-2.58489E-05 0.00000E+00 0.00000E+00 0.00000E+00 0.00000E+00 0.00000E+00 0.00000E+00 1.00846E-02 4.10126E-03 2.53742E-02
      903  7.94712E-07 9.13116E-07-2.58489E-05 0.00000E+00 0.00000E+00 0.00000E+00 0.00000E+00 0.00000E+00 0.00000E+00 8.34689E-03 8.33251E-03 2.53742E-02
      905  7.33444E-07 8.53133E-07-2.58489E-05 0.00000E+00 0.00000E+00 0.00000E+00 0.00000E+00 0.00000E+00 0.00000E+00 7.70413E-03 7.69215E-03 2.53742E-02
      906  4.32952E-07 1.16068E-06-2.58489E-05 0.00000E+00 0.00000E+00 0.00000E+00 0.00000E+00 0.00000E+00 0.00000E+00 4.44913E-03 1.09227E-02 2.53742E-02
      908  3.99755E-07 1.08314E-06-2.58489E-05 0.00000E+00 0.00000E+00 0.00000E+00 0.00000E+00 0.00000E+00 0.00000E+00 4.11260E-03 1.00802E-02 2.53742E-02
      909  0.00000E+00 1.23536E-06-2.58489E-05 0.00000E+00 0.00000E+00 0.00000E+00 0.00000E+00 0.00000E+00 0.00000E+00 7.22100E-19 1.17941E-02 2.53742E-02
      911  0.00000E+00 1.15241E-06-2.58489E-05 0.00000E+00 0.00000E+00 0.00000E+00 0.00000E+00 0.00000E+00 0.00000E+00 6.66600E-19 1.08869E-02 2.53742E-02
     1012  6.35016E-07 3.39016E-07-2.58489E-05 0.00000E+00 0.00000E+00 0.00000E+00 0.00000E+00 0.00000E+00 0.00000E+00 6.71074E-03 2.76434E-03 2.53742E-02
     1013  5.06518E-07 6.19096E-07-2.58489E-05 0.00000E+00 0.00000E+00 0.00000E+00 0.00000E+00 0.00000E+00 0.00000E+00 5.13331E-03 5.13102E-03 2.53742E-02
     1014  2.71369E-07 8.01130E-07-2.58489E-05 0.00000E+00 0.00000E+00 0.00000E+00 0.00000E+00 0.00000E+00 0.00000E+00 2.76647E-03 6.71000E-03 2.53742E-02
     1015  0.00000E+00 8.82875E-07-2.58489E-05 0.00000E+00 0.00000E+00 0.00000E+00 0.00000E+00 0.00000E+00 0.00000E+00 4.44400E-19 7.25798E-03 2.53742E-02
     1060  1.01283E-06 5.04582E-07-2.58489E-05 0.00000E+00 0.00000E+00 0.00000E+00 0.00000E+00 0.00000E+00 0.00000E+00 1.17715E-02 4.76970E-03 2.53742E-02
     1061  8.01910E-07 9.51522E-07-2.58489E-05 0.00000E+00 0.00000E+00 0.00000E+00 0.00000E+00 0.00000E+00 0.00000E+00 8.98950E-03 8.97275E-03 2.53742E-02
     1062  4.61299E-07 1.30246E-06-2.58489E-05 0.00000E+00 0.00000E+00 0.00000E+00 0.00000E+00 0.00000E+00 0.00000E+00 4.78566E-03 1.17653E-02 2.53742E-02
     1063  0.00000E+00 1.45265E-06-2.58489E-05 0.00000E+00 0.00000E+00 0.00000E+00 0.00000E+00 0.00000E+00 0.00000E+00 7.77700E-19 1.27015E-02 2.53742E-02



 n o d a l   p r i n t   o u t   f o r   t i m e  s t e p     268                              ( at time 2.4583610E+00 )

 nodal point  x-disp     y-disp      z-disp      x-vel       y-vel       z-vel      x-accl      y-accl      z-accl      x-coor      y-coor      z-coor
        1  0.00000E+00 0.00000E+00 0.00000E+00 0.00000E+00 0.00000E+00 0.00000E+00 0.00000E+00 0.00000E+00 0.00000E+00 0.00000E+00 0.00000E+00 0.00000E+00
        2 -6.39981E-07 0.00000E+00 0.00000E+00 0.00000E+00 0.00000E+00 0.00000E+00 0.00000E+00 0.00000E+00 0.00000E+00 7.93110E-04 0.00000E+00 0.00000E+00
        3  9.00599E-07 0.00000E+00 0.00000E+00 0.00000E+00 0.00000E+00 0.00000E+00 0.00000E+00 0.00000E+00 0.00000E+00 1.58840E-03 0.00000E+00 0.00000E+00
        4  6.07826E-06 0.00000E+00 0.00000E+00 0.00000E+00 0.00000E+00 0.00000E+00 0.00000E+00 0.00000E+00 0.00000E+00 2.38738E-03 0.00000E+00 0.00000E+00
        5  1.73829E-05 0.00000E+00 0.00000E+00 0.00000E+00 0.00000E+00 0.00000E+00 0.00000E+00 0.00000E+00 0.00000E+00 3.19238E-03 0.00000E+00 0.00000E+00
        6  2.08753E-05 1.10996E-05 0.00000E+00 0.00000E+00 0.00000E+00 0.00000E+00 0.00000E+00 0.00000E+00 0.00000E+00 2.95418E-03 1.22610E-03-1.78000E-18
        7  1.73341E-05 1.71128E-05 0.00000E+00 0.00000E+00 0.00000E+00 0.00000E+00 0.00000E+00 0.00000E+00 0.00000E+00 2.26243E-03 2.26221E-03-1.78000E-18
        8  1.03597E-05 2.03416E-05 0.00000E+00 0.00000E+00 0.00000E+00 0.00000E+00 0.00000E+00 0.00000E+00 0.00000E+00 1.22536E-03 2.95364E-03-1.78000E-18
        9  0.00000E+00 2.07245E-05 0.00000E+00 0.00000E+00 0.00000E+00 0.00000E+00 0.00000E+00 0.00000E+00 0.00000E+00 1.94400E-19 3.19572E-03-1.78000E-18
       10  0.00000E+00 1.03008E-05 0.00000E+00 0.00000E+00 0.00000E+00 0.00000E+00 0.00000E+00 0.00000E+00 0.00000E+00 1.45800E-19 2.39160E-03 0.00000E+00
       11  0.00000E+00 2.96562E-06 0.00000E+00 0.00000E+00 0.00000E+00 0.00000E+00 0.00000E+00 0.00000E+00 0.00000E+00 9.72100E-20 1.59047E-03 0.00000E+00
       12  0.00000E+00-3.40067E-07 0.00000E+00 0.00000E+00 0.00000E+00 0.00000E+00 0.00000E+00 0.00000E+00 0.00000E+00 4.86000E-20 7.93410E-04 0.00000E+00
       13  1.00919E-05 9.36708E-06 0.00000E+00 0.00000E+00 0.00000E+00 0.00000E+00 0.00000E+00 0.00000E+00 0.00000E+00 1.36199E-03 1.31767E-03 0.00000E+00
       14  9.91334E-06 6.40263E-06 0.00000E+00 0.00000E+00 0.00000E+00 0.00000E+00 0.00000E+00 0.00000E+00 0.00000E+00 1.51681E-03 6.75981E-04 0.00000E+00
       15  1.37304E-05 1.22591E-05 0.00000E+00 0.00000E+00 0.00000E+00 0.00000E+00 0.00000E+00 0.00000E+00 0.00000E+00 1.78123E-03 1.74856E-03 0.00000E+00
       16  1.52327E-05 7.48969E-06 0.00000E+00 0.00000E+00 0.00000E+00 0.00000E+00 0.00000E+00 0.00000E+00 0.00000E+00 2.20633E-03 9.27623E-04 0.00000E+00
       17  5.27899E-06 7.16596E-06 0.00000E+00 0.00000E+00 0.00000E+00 0.00000E+00 0.00000E+00 0.00000E+00 0.00000E+00 7.12256E-04 1.49547E-03 0.00000E+00
       18  7.85058E-06 1.24087E-05 0.00000E+00 0.00000E+00 0.00000E+00 0.00000E+00 0.00000E+00 0.00000E+00 0.00000E+00 9.58709E-04 2.17571E-03 0.00000E+00
       19  4.76167E-06 3.42365E-06 0.00000E+00 0.00000E+00 0.00000E+00 0.00000E+00 0.00000E+00 0.00000E+00 0.00000E+00 7.87216E-04 7.57213E-04 0.00000E+00
      179  4.90726E-07 1.54686E-06-4.91672E-05 0.00000E+00 0.00000E+00 0.00000E+00 0.00000E+00 0.00000E+00 0.00000E+00 4.49059E-03 4.49165E-03 2.53508E-02
      180  1.64555E-07 1.36757E-06-4.91672E-05 0.00000E+00 0.00000E+00 0.00000E+00 0.00000E+00 0.00000E+00 0.00000E+00 3.53316E-03 3.47207E-03 2.53508E-02
      181 -2.83064E-07 1.45832E-06-4.91672E-05 0.00000E+00 0.00000E+00 0.00000E+00 0.00000E+00 0.00000E+00 0.00000E+00 4.37952E-03 1.84066E-03 2.53508E-02
      182  1.01234E-07 1.42613E-06-4.91672E-05 0.00000E+00 0.00000E+00 0.00000E+00 0.00000E+00 0.00000E+00 0.00000E+00 5.86680E-03 2.43123E-03 2.53508E-02
      247  1.30339E-06 0.00000E+00-4.91672E-05 0.00000E+00 0.00000E+00 0.00000E+00 0.00000E+00 0.00000E+00 0.00000E+00 1.58880E-03 0.00000E+00 2.53508E-02
      248 -1.17528E-07 9.93871E-07-4.91672E-05 0.00000E+00 0.00000E+00 0.00000E+00 0.00000E+00 0.00000E+00 0.00000E+00 1.56378E-03 1.50739E-03 2.53508E-02
      249  0.00000E+00 1.18764E-06-4.91672E-05 0.00000E+00 0.00000E+00 0.00000E+00 0.00000E+00 0.00000E+00 0.00000E+00 9.72100E-20 1.58869E-03 2.53508E-02
      250  0.00000E+00 0.00000E+00-4.91672E-05 0.00000E+00 0.00000E+00 0.00000E+00 0.00000E+00 0.00000E+00 0.00000E+00 0.00000E+00 0.00000E+00 2.53508E-02
      283  1.74240E-06 0.00000E+00-4.91672E-05 0.00000E+00 0.00000E+00 0.00000E+00 0.00000E+00 0.00000E+00 0.00000E+00 3.17674E-03 0.00000E+00 2.53508E-02
      284 -1.55700E-07 1.15554E-06-4.91672E-05 0.00000E+00 0.00000E+00 0.00000E+00 0.00000E+00 0.00000E+00 0.00000E+00 3.01164E-03 1.33926E-03 2.53508E-02
      333  1.05927E-07 8.71092E-07-4.91672E-05 0.00000E+00 0.00000E+00 0.00000E+00 0.00000E+00 0.00000E+00 0.00000E+00 1.41341E-03 2.97617E-03 2.53508E-02
      334  2.46466E-07 8.77452E-07-4.91672E-05 0.00000E+00 0.00000E+00 0.00000E+00 0.00000E+00 0.00000E+00 0.00000E+00 2.70295E-03 2.61638E-03 2.53508E-02
      335  1.61758E-08 9.90217E-07-4.91672E-05 0.00000E+00 0.00000E+00 0.00000E+00 0.00000E+00 0.00000E+00 0.00000E+00 1.90052E-03 4.32489E-03 2.53508E-02
      368  0.00000E+00 1.57339E-06-4.91672E-05 0.00000E+00 0.00000E+00 0.00000E+00 0.00000E+00 0.00000E+00 0.00000E+00 1.94400E-19 3.17657E-03 2.53508E-02
      369  0.00000E+00 2.27356E-06-4.91672E-05 0.00000E+00 0.00000E+00 0.00000E+00 0.00000E+00 0.00000E+00 0.00000E+00 2.91600E-19 4.76477E-03 2.53508E-02
      386  1.40173E-06 0.00000E+00-4.91672E-05 0.00000E+00 0.00000E+00 0.00000E+00 0.00000E+00 0.00000E+00 0.00000E+00 4.76390E-03 0.00000E+00 2.53508E-02
      403  1.10856E-06 0.00000E+00-4.91672E-05 0.00000E+00 0.00000E+00 0.00000E+00 0.00000E+00 0.00000E+00 0.00000E+00 6.35111E-03 0.00000E+00 2.53508E-02
      436  1.32164E-07 1.30762E-06-4.91672E-05 0.00000E+00 0.00000E+00 0.00000E+00 0.00000E+00 0.00000E+00 0.00000E+00 2.42993E-03 5.86801E-03 2.53508E-02
      437  0.00000E+00 2.74215E-06-4.91672E-05 0.00000E+00 0.00000E+00 0.00000E+00 0.00000E+00 0.00000E+00 0.00000E+00 3.88800E-19 6.35274E-03 2.53508E-02
      438  5.65720E-07 0.00000E+00-4.91672E-05 0.00000E+00 0.00000E+00 0.00000E+00 0.00000E+00 0.00000E+00 0.00000E+00 7.25767E-03 0.00000E+00 2.53508E-02
      439  3.88836E-07 0.00000E+00-4.91672E-05 0.00000E+00 0.00000E+00 0.00000E+00 0.00000E+00 0.00000E+00 0.00000E+00 8.16469E-03 0.00000E+00 2.53508E-02
      440  3.07635E-07 0.00000E+00-4.91672E-05 0.00000E+00 0.00000E+00 0.00000E+00 0.00000E+00 0.00000E+00 0.00000E+00 9.07171E-03 0.00000E+00 2.53508E-02
      441  2.70504E-07 0.00000E+00-4.91672E-05 0.00000E+00 0.00000E+00 0.00000E+00 0.00000E+00 0.00000E+00 0.00000E+00 9.97887E-03 0.00000E+00 2.53508E-02
      442  2.46280E-07 0.00000E+00-4.91672E-05 0.00000E+00 0.00000E+00 0.00000E+00 0.00000E+00 0.00000E+00 0.00000E+00 1.08859E-02 0.00000E+00 2.53508E-02
      443  2.24126E-07 0.00000E+00-4.91672E-05 0.00000E+00 0.00000E+00 0.00000E+00 0.00000E+00 0.00000E+00 0.00000E+00 1.17931E-02 0.00000E+00 2.53508E-02
      444  4.35935E-08 0.00000E+00-4.91672E-05 0.00000E+00 0.00000E+00 0.00000E+00 0.00000E+00 0.00000E+00 0.00000E+00 1.27000E-02 0.00000E+00 2.53508E-02
      628  4.62936E-07 1.55211E-06-4.91672E-05 0.00000E+00 0.00000E+00 0.00000E+00 0.00000E+00 0.00000E+00 0.00000E+00 8.39736E-03 3.43395E-03 2.53508E-02
      631  4.02956E-07 1.55607E-06-4.91672E-05 0.00000E+00 0.00000E+00 0.00000E+00 0.00000E+00 0.00000E+00 0.00000E+00 7.55390E-03 3.09976E-03 2.53508E-02
      632  5.72500E-07 1.41231E-06-4.91672E-05 0.00000E+00 0.00000E+00 0.00000E+00 0.00000E+00 0.00000E+00 0.00000E+00 6.41867E-03 6.41231E-03 2.53508E-02
      635  4.84391E-07 1.42324E-06-4.91672E-05 0.00000E+00 0.00000E+00 0.00000E+00 0.00000E+00 0.00000E+00 0.00000E+00 5.77588E-03 5.77202E-03 2.53508E-02
      636  4.04654E-07 1.52442E-06-4.91672E-05 0.00000E+00 0.00000E+00 0.00000E+00 0.00000E+00 0.00000E+00 0.00000E+00 3.43960E-03 8.39572E-03 2.53508E-02
      639  3.31185E-07 1.51420E-06-4.91672E-05 0.00000E+00 0.00000E+00 0.00000E+00 0.00000E+00 0.00000E+00 0.00000E+00 3.10303E-03 7.55321E-03 2.53508E-02
      640  0.00000E+00 2.13396E-06-4.91672E-05 0.00000E+00 0.00000E+00 0.00000E+00 0.00000E+00 0.00000E+00 0.00000E+00 5.55500E-19 9.07353E-03 2.53508E-02
      643  0.00000E+00 2.24344E-06-4.91672E-05 0.00000E+00 0.00000E+00 0.00000E+00 0.00000E+00 0.00000E+00 0.00000E+00 4.99900E-19 8.16654E-03 2.53508E-02
      692  5.29788E-07 1.57588E-06-4.91672E-05 0.00000E+00 0.00000E+00 0.00000E+00 0.00000E+00 0.00000E+00 0.00000E+00 9.24083E-03 3.76818E-03 2.53508E-02
      694  6.61380E-07 1.40059E-06-4.91672E-05 0.00000E+00 0.00000E+00 0.00000E+00 0.00000E+00 0.00000E+00 0.00000E+00 7.06136E-03 7.05250E-03 2.53508E-02
      696  4.71298E-07 1.52599E-06-4.91672E-05 0.00000E+00 0.00000E+00 0.00000E+00 0.00000E+00 0.00000E+00 0.00000E+00 3.77617E-03 9.23813E-03 2.53508E-02
      698  0.00000E+00 2.02257E-06-4.91672E-05 0.00000E+00 0.00000E+00 0.00000E+00 0.00000E+00 0.00000E+00 0.00000E+00 6.11000E-19 9.98062E-03 2.53508E-02
      900  6.42698E-07 1.53412E-06-4.91672E-05 0.00000E+00 0.00000E+00 0.00000E+00 0.00000E+00 0.00000E+00 0.00000E+00 1.09277E-02 4.43653E-03 2.53508E-02
      902  6.17272E-07 1.59095E-06-4.91672E-05 0.00000E+00 0.00000E+00 0.00000E+00 0.00000E+00 0.00000E+00 0.00000E+00 1.00843E-02 4.10239E-03 2.53508E-02
      903  9.45878E-07 1.48950E-06-4.91672E-05 0.00000E+00 0.00000E+00 0.00000E+00 0.00000E+00 0.00000E+00 0.00000E+00 8.34705E-03 8.33309E-03 2.53508E-02
      905  7.54120E-07 1.39129E-06-4.91672E-05 0.00000E+00 0.00000E+00 0.00000E+00 0.00000E+00 0.00000E+00 0.00000E+00 7.70415E-03 7.69269E-03 2.53508E-02
      906  3.71816E-07 1.35965E-06-4.91672E-05 0.00000E+00 0.00000E+00 0.00000E+00 0.00000E+00 0.00000E+00 0.00000E+00 4.44907E-03 1.09229E-02 2.53508E-02
      908  4.92736E-07 1.51247E-06-4.91672E-05 0.00000E+00 0.00000E+00 0.00000E+00 0.00000E+00 0.00000E+00 0.00000E+00 4.11269E-03 1.00806E-02 2.53508E-02
      909  0.00000E+00 2.38896E-06-4.91672E-05 0.00000E+00 0.00000E+00 0.00000E+00 0.00000E+00 0.00000E+00 0.00000E+00 7.22100E-19 1.17953E-02 2.53508E-02
      911  0.00000E+00 2.00946E-06-4.91672E-05 0.00000E+00 0.00000E+00 0.00000E+00 0.00000E+00 0.00000E+00 0.00000E+00 6.66600E-19 1.08877E-02 2.53508E-02
     1012  3.41837E-07 1.54708E-06-4.91672E-05 0.00000E+00 0.00000E+00 0.00000E+00 0.00000E+00 0.00000E+00 0.00000E+00 6.71044E-03 2.76555E-03 2.53508E-02
     1013  3.95422E-07 1.43888E-06-4.91672E-05 0.00000E+00 0.00000E+00 0.00000E+00 0.00000E+00 0.00000E+00 0.00000E+00 5.13320E-03 5.13184E-03 2.53508E-02
     1014  2.39603E-07 1.48451E-06-4.91672E-05 0.00000E+00 0.00000E+00 0.00000E+00 0.00000E+00 0.00000E+00 0.00000E+00 2.76644E-03 6.71068E-03 2.53508E-02
     1015  0.00000E+00 2.40892E-06-4.91672E-05 0.00000E+00 0.00000E+00 0.00000E+00 0.00000E+00 0.00000E+00 0.00000E+00 4.44400E-19 7.25951E-03 2.53508E-02
     1060  3.43439E-07 1.33080E-06-4.91672E-05 0.00000E+00 0.00000E+00 0.00000E+00 0.00000E+00 0.00000E+00 0.00000E+00 1.17708E-02 4.77053E-03 2.53508E-02
     1061  6.05572E-07 1.37683E-06-4.91672E-05 0.00000E+00 0.00000E+00 0.00000E+00 0.00000E+00 0.00000E+00 0.00000E+00 8.98931E-03 8.97318E-03 2.53508E-02
     1062  2.35471E-07 1.75304E-06-4.91672E-05 0.00000E+00 0.00000E+00 0.00000E+00 0.00000E+00 0.00000E+00 0.00000E+00 4.78544E-03 1.17658E-02 2.53508E-02
     1063  0.00000E+00 3.36801E-06-4.91672E-05 0.00000E+00 0.00000E+00 0.00000E+00 0.00000E+00 0.00000E+00 0.00000E+00 7.77700E-19 1.27034E-02 2.53508E-02



 n o d a l   p r i n t   o u t   f o r   t i m e  s t e p     276                              ( at time 3.3822859E+00 )

 nodal point  x-disp     y-disp      z-disp      x-vel       y-vel       z-vel      x-accl      y-accl      z-accl      x-coor      y-coor      z-coor
        1  0.00000E+00 0.00000E+00 0.00000E+00 0.00000E+00 0.00000E+00 0.00000E+00 0.00000E+00 0.00000E+00 0.00000E+00 0.00000E+00 0.00000E+00 0.00000E+00
        2  1.12819E-07 0.00000E+00 0.00000E+00 0.00000E+00 0.00000E+00 0.00000E+00 0.00000E+00 0.00000E+00 0.00000E+00 7.93863E-04 0.00000E+00 0.00000E+00
        3  4.22978E-06 0.00000E+00 0.00000E+00 0.00000E+00 0.00000E+00 0.00000E+00 0.00000E+00 0.00000E+00 0.00000E+00 1.59173E-03 0.00000E+00 0.00000E+00
        4  1.39993E-05 0.00000E+00 0.00000E+00 0.00000E+00 0.00000E+00 0.00000E+00 0.00000E+00 0.00000E+00 0.00000E+00 2.39530E-03 0.00000E+00 0.00000E+00
        5  3.19170E-05 0.00000E+00 0.00000E+00 0.00000E+00 0.00000E+00 0.00000E+00 0.00000E+00 0.00000E+00 0.00000E+00 3.20692E-03 0.00000E+00 0.00000E+00
        6  3.44546E-05 1.76863E-05 0.00000E+00 0.00000E+00 0.00000E+00 0.00000E+00 0.00000E+00 0.00000E+00 0.00000E+00 2.96775E-03 1.23269E-03-1.78000E-18
        7  2.84720E-05 2.68950E-05 0.00000E+00 0.00000E+00 0.00000E+00 0.00000E+00 0.00000E+00 0.00000E+00 0.00000E+00 2.27357E-03 2.27200E-03-1.78000E-18
        8  1.72660E-05 3.33961E-05 0.00000E+00 0.00000E+00 0.00000E+00 0.00000E+00 0.00000E+00 0.00000E+00 0.00000E+00 1.23227E-03 2.96670E-03-1.78000E-18
        9  0.00000E+00 3.54439E-05 0.00000E+00 0.00000E+00 0.00000E+00 0.00000E+00 0.00000E+00 0.00000E+00 0.00000E+00 1.94400E-19 3.21044E-03-1.78000E-18
       10  0.00000E+00 1.96985E-05 0.00000E+00 0.00000E+00 0.00000E+00 0.00000E+00 0.00000E+00 0.00000E+00 0.00000E+00 1.45800E-19 2.40100E-03 0.00000E+00
       11  0.00000E+00 7.86810E-06 0.00000E+00 0.00000E+00 0.00000E+00 0.00000E+00 0.00000E+00 0.00000E+00 0.00000E+00 9.72100E-20 1.59537E-03 0.00000E+00
       12  0.00000E+00 1.44178E-06 0.00000E+00 0.00000E+00 0.00000E+00 0.00000E+00 0.00000E+00 0.00000E+00 0.00000E+00 4.86000E-20 7.95192E-04 0.00000E+00
       13  1.78008E-05 1.58741E-05 0.00000E+00 0.00000E+00 0.00000E+00 0.00000E+00 0.00000E+00 0.00000E+00 0.00000E+00 1.36970E-03 1.32417E-03 0.00000E+00
       14  1.79581E-05 1.06477E-05 0.00000E+00 0.00000E+00 0.00000E+00 0.00000E+00 0.00000E+00 0.00000E+00 0.00000E+00 1.52486E-03 6.80226E-04 0.00000E+00
       15  2.32228E-05 2.02482E-05 0.00000E+00 0.00000E+00 0.00000E+00 0.00000E+00 0.00000E+00 0.00000E+00 0.00000E+00 1.79072E-03 1.75655E-03 0.00000E+00
       16  2.63780E-05 1.23245E-05 0.00000E+00 0.00000E+00 0.00000E+00 0.00000E+00 0.00000E+00 0.00000E+00 0.00000E+00 2.21748E-03 9.32458E-04 0.00000E+00
       17  9.58263E-06 1.33942E-05 0.00000E+00 0.00000E+00 0.00000E+00 0.00000E+00 0.00000E+00 0.00000E+00 0.00000E+00 7.16560E-04 1.50169E-03 0.00000E+00
       18  1.35519E-05 2.17993E-05 0.00000E+00 0.00000E+00 0.00000E+00 0.00000E+00 0.00000E+00 0.00000E+00 0.00000E+00 9.64410E-04 2.18510E-03 0.00000E+00
       19  9.13759E-06 7.03890E-06 0.00000E+00 0.00000E+00 0.00000E+00 0.00000E+00 0.00000E+00 0.00000E+00 0.00000E+00 7.91592E-04 7.60828E-04 0.00000E+00
      179  6.62998E-07 1.80784E-06-6.76457E-05 0.00000E+00 0.00000E+00 0.00000E+00 0.00000E+00 0.00000E+00 0.00000E+00 4.49076E-03 4.49191E-03 2.53324E-02
      180  2.93613E-07 1.61361E-06-6.76457E-05 0.00000E+00 0.00000E+00 0.00000E+00 0.00000E+00 0.00000E+00 0.00000E+00 3.53329E-03 3.47231E-03 2.53324E-02
      181 -1.78414E-07 1.65970E-06-6.76457E-05 0.00000E+00 0.00000E+00 0.00000E+00 0.00000E+00 0.00000E+00 0.00000E+00 4.37962E-03 1.84086E-03 2.53324E-02
      182  2.31812E-07 1.64131E-06-6.76457E-05 0.00000E+00 0.00000E+00 0.00000E+00 0.00000E+00 0.00000E+00 0.00000E+00 5.86693E-03 2.43144E-03 2.53324E-02
      247  2.15741E-06 0.00000E+00-6.76457E-05 0.00000E+00 0.00000E+00 0.00000E+00 0.00000E+00 0.00000E+00 0.00000E+00 1.58966E-03 0.00000E+00 2.53324E-02
      248 -4.70011E-08 1.14415E-06-6.76457E-05 0.00000E+00 0.00000E+00 0.00000E+00 0.00000E+00 0.00000E+00 0.00000E+00 1.56385E-03 1.50754E-03 2.53324E-02
      249  0.00000E+00 1.62611E-06-6.76457E-05 0.00000E+00 0.00000E+00 0.00000E+00 0.00000E+00 0.00000E+00 0.00000E+00 9.72100E-20 1.58913E-03 2.53324E-02
      250  0.00000E+00 0.00000E+00-6.76457E-05 0.00000E+00 0.00000E+00 0.00000E+00 0.00000E+00 0.00000E+00 0.00000E+00 0.00000E+00 0.00000E+00 2.53324E-02
      283  2.99973E-06 0.00000E+00-6.76457E-05 0.00000E+00 0.00000E+00 0.00000E+00 0.00000E+00 0.00000E+00 0.00000E+00 3.17800E-03 0.00000E+00 2.53324E-02
      284 -4.06835E-07 1.55584E-06-6.76457E-05 0.00000E+00 0.00000E+00 0.00000E+00 0.00000E+00 0.00000E+00 0.00000E+00 3.01139E-03 1.33966E-03 2.53324E-02
      333  1.73836E-07 1.13817E-06-6.76457E-05 0.00000E+00 0.00000E+00 0.00000E+00 0.00000E+00 0.00000E+00 0.00000E+00 1.41347E-03 2.97644E-03 2.53324E-02
      334  3.77223E-07 9.33379E-07-6.76457E-05 0.00000E+00 0.00000E+00 0.00000E+00 0.00000E+00 0.00000E+00 0.00000E+00 2.70308E-03 2.61643E-03 2.53324E-02
      335  1.00024E-07 1.21554E-06-6.76457E-05 0.00000E+00 0.00000E+00 0.00000E+00 0.00000E+00 0.00000E+00 0.00000E+00 1.90060E-03 4.32512E-03 2.53324E-02
      368  0.00000E+00 2.02649E-06-6.76457E-05 0.00000E+00 0.00000E+00 0.00000E+00 0.00000E+00 0.00000E+00 0.00000E+00 1.94400E-19 3.17703E-03 2.53324E-02
      369  0.00000E+00 2.83778E-06-6.76457E-05 0.00000E+00 0.00000E+00 0.00000E+00 0.00000E+00 0.00000E+00 0.00000E+00 2.91600E-19 4.76534E-03 2.53324E-02
      386  2.01615E-06 0.00000E+00-6.76457E-05 0.00000E+00 0.00000E+00 0.00000E+00 0.00000E+00 0.00000E+00 0.00000E+00 4.76452E-03 0.00000E+00 2.53324E-02
      403  1.46951E-06 0.00000E+00-6.76457E-05 0.00000E+00 0.00000E+00 0.00000E+00 0.00000E+00 0.00000E+00 0.00000E+00 6.35147E-03 0.00000E+00 2.53324E-02
      436  2.30999E-07 1.56211E-06-6.76457E-05 0.00000E+00 0.00000E+00 0.00000E+00 0.00000E+00 0.00000E+00 0.00000E+00 2.43003E-03 5.86826E-03 2.53324E-02
      437  0.00000E+00 3.24168E-06-6.76457E-05 0.00000E+00 0.00000E+00 0.00000E+00 0.00000E+00 0.00000E+00 0.00000E+00 3.88800E-19 6.35324E-03 2.53324E-02
      438  7.92602E-07 0.00000E+00-6.76457E-05 0.00000E+00 0.00000E+00 0.00000E+00 0.00000E+00 0.00000E+00 0.00000E+00 7.25789E-03 0.00000E+00 2.53324E-02
      439  5.73219E-07 0.00000E+00-6.76457E-05 0.00000E+00 0.00000E+00 0.00000E+00 0.00000E+00 0.00000E+00 0.00000E+00 8.16487E-03 0.00000E+00 2.53324E-02
      440  4.95685E-07 0.00000E+00-6.76457E-05 0.00000E+00 0.00000E+00 0.00000E+00 0.00000E+00 0.00000E+00 0.00000E+00 9.07190E-03 0.00000E+00 2.53324E-02
      441  4.60301E-07 0.00000E+00-6.76457E-05 0.00000E+00 0.00000E+00 0.00000E+00 0.00000E+00 0.00000E+00 0.00000E+00 9.97906E-03 0.00000E+00 2.53324E-02
      442  4.39707E-07 0.00000E+00-6.76457E-05 0.00000E+00 0.00000E+00 0.00000E+00 0.00000E+00 0.00000E+00 0.00000E+00 1.08861E-02 0.00000E+00 2.53324E-02
      443  4.18622E-07 0.00000E+00-6.76457E-05 0.00000E+00 0.00000E+00 0.00000E+00 0.00000E+00 0.00000E+00 0.00000E+00 1.17933E-02 0.00000E+00 2.53324E-02
      444  1.98571E-07 0.00000E+00-6.76457E-05 0.00000E+00 0.00000E+00 0.00000E+00 0.00000E+00 0.00000E+00 0.00000E+00 1.27002E-02 0.00000E+00 2.53324E-02
      628  6.61302E-07 1.81197E-06-6.76457E-05 0.00000E+00 0.00000E+00 0.00000E+00 0.00000E+00 0.00000E+00 0.00000E+00 8.39756E-03 3.43421E-03 2.53324E-02
      631  5.89205E-07 1.83239E-06-6.76457E-05 0.00000E+00 0.00000E+00 0.00000E+00 0.00000E+00 0.00000E+00 0.00000E+00 7.55409E-03 3.10003E-03 2.53324E-02
      632  7.54877E-07 1.64340E-06-6.76457E-05 0.00000E+00 0.00000E+00 0.00000E+00 0.00000E+00 0.00000E+00 0.00000E+00 6.41885E-03 6.41254E-03 2.53324E-02
      635  6.55523E-07 1.65917E-06-6.76457E-05 0.00000E+00 0.00000E+00 0.00000E+00 0.00000E+00 0.00000E+00 0.00000E+00 5.77606E-03 5.77226E-03 2.53324E-02
      636  5.18431E-07 1.79966E-06-6.76457E-05 0.00000E+00 0.00000E+00 0.00000E+00 0.00000E+00 0.00000E+00 0.00000E+00 3.43972E-03 8.39600E-03 2.53324E-02
      639  4.35030E-07 1.77484E-06-6.76457E-05 0.00000E+00 0.00000E+00 0.00000E+00 0.00000E+00 0.00000E+00 0.00000E+00 3.10314E-03 7.55347E-03 2.53324E-02
      640  0.00000E+00 2.60735E-06-6.76457E-05 0.00000E+00 0.00000E+00 0.00000E+00 0.00000E+00 0.00000E+00 0.00000E+00 5.55500E-19 9.07401E-03 2.53324E-02
      643  0.00000E+00 2.79216E-06-6.76457E-05 0.00000E+00 0.00000E+00 0.00000E+00 0.00000E+00 0.00000E+00 0.00000E+00 4.99900E-19 8.16709E-03 2.53324E-02
      692  7.45063E-07 1.80733E-06-6.76457E-05 0.00000E+00 0.00000E+00 0.00000E+00 0.00000E+00 0.00000E+00 0.00000E+00 9.24105E-03 3.76841E-03 2.53324E-02
      694  8.61459E-07 1.63140E-06-6.76457E-05 0.00000E+00 0.00000E+00 0.00000E+00 0.00000E+00 0.00000E+00 0.00000E+00 7.06156E-03 7.05273E-03 2.53324E-02
      696  5.80166E-07 1.81390E-06-6.76457E-05 0.00000E+00 0.00000E+00 0.00000E+00 0.00000E+00 0.00000E+00 0.00000E+00 3.77628E-03 9.23841E-03 2.53324E-02
      698  0.00000E+00 2.46161E-06-6.76457E-05 0.00000E+00 0.00000E+00 0.00000E+00 0.00000E+00 0.00000E+00 0.00000E+00 6.11000E-19 9.98106E-03 2.53324E-02
      900  8.63989E-07 1.75451E-06-6.76457E-05 0.00000E+00 0.00000E+00 0.00000E+00 0.00000E+00 0.00000E+00 0.00000E+00 1.09280E-02 4.43675E-03 2.53324E-02
      902  8.42562E-07 1.81010E-06-6.76457E-05 0.00000E+00 0.00000E+00 0.00000E+00 0.00000E+00 0.00000E+00 0.00000E+00 1.00845E-02 4.10261E-03 2.53324E-02
      903  1.17701E-06 1.73883E-06-6.76457E-05 0.00000E+00 0.00000E+00 0.00000E+00 0.00000E+00 0.00000E+00 0.00000E+00 8.34728E-03 8.33334E-03 2.53324E-02
      905  9.63744E-07 1.63270E-06-6.76457E-05 0.00000E+00 0.00000E+00 0.00000E+00 0.00000E+00 0.00000E+00 0.00000E+00 7.70436E-03 7.69293E-03 2.53324E-02
      906  4.56839E-07 1.64084E-06-6.76457E-05 0.00000E+00 0.00000E+00 0.00000E+00 0.00000E+00 0.00000E+00 0.00000E+00 4.44916E-03 1.09231E-02 2.53324E-02
      908  6.04297E-07 1.80221E-06-6.76457E-05 0.00000E+00 0.00000E+00 0.00000E+00 0.00000E+00 0.00000E+00 0.00000E+00 4.11280E-03 1.00809E-02 2.53324E-02
      909  0.00000E+00 2.79098E-06-6.76457E-05 0.00000E+00 0.00000E+00 0.00000E+00 0.00000E+00 0.00000E+00 0.00000E+00 7.22100E-19 1.17957E-02 2.53324E-02
      911  0.00000E+00 2.42800E-06-6.76457E-05 0.00000E+00 0.00000E+00 0.00000E+00 0.00000E+00 0.00000E+00 0.00000E+00 6.66600E-19 1.08881E-02 2.53324E-02
     1012  5.10411E-07 1.80875E-06-6.76457E-05 0.00000E+00 0.00000E+00 0.00000E+00 0.00000E+00 0.00000E+00 0.00000E+00 6.71061E-03 2.76581E-03 2.53324E-02
     1013  5.33116E-07 1.67915E-06-6.76457E-05 0.00000E+00 0.00000E+00 0.00000E+00 0.00000E+00 0.00000E+00 0.00000E+00 5.13333E-03 5.13208E-03 2.53324E-02
     1014  3.45751E-07 1.75707E-06-6.76457E-05 0.00000E+00 0.00000E+00 0.00000E+00 0.00000E+00 0.00000E+00 0.00000E+00 2.76655E-03 6.71096E-03 2.53324E-02
     1015  0.00000E+00 2.97794E-06-6.76457E-05 0.00000E+00 0.00000E+00 0.00000E+00 0.00000E+00 0.00000E+00 0.00000E+00 4.44400E-19 7.26008E-03 2.53324E-02
     1060  5.89872E-07 1.55882E-06-6.76457E-05 0.00000E+00 0.00000E+00 0.00000E+00 0.00000E+00 0.00000E+00 0.00000E+00 1.17711E-02 4.77076E-03 2.53324E-02
     1061  8.07042E-07 1.58787E-06-6.76457E-05 0.00000E+00 0.00000E+00 0.00000E+00 0.00000E+00 0.00000E+00 0.00000E+00 8.98951E-03 8.97339E-03 2.53324E-02
     1062  3.27889E-07 2.07858E-06-6.76457E-05 0.00000E+00 0.00000E+00 0.00000E+00 0.00000E+00 0.00000E+00 0.00000E+00 4.78553E-03 1.17661E-02 2.53324E-02
     1063  0.00000E+00 3.75166E-06-6.76457E-05 0.00000E+00 0.00000E+00 0.00000E+00 0.00000E+00 0.00000E+00 0.00000E+00 7.77700E-19 1.27038E-02 2.53324E-02



 n o d a l   p r i n t   o u t   f o r   t i m e  s t e p     283                              ( at time 4.3062108E+00 )

 nodal point  x-disp     y-disp      z-disp      x-vel       y-vel       z-vel      x-accl      y-accl      z-accl      x-coor      y-coor      z-coor
        1  0.00000E+00 0.00000E+00 0.00000E+00 0.00000E+00 0.00000E+00 0.00000E+00 0.00000E+00 0.00000E+00 0.00000E+00 0.00000E+00 0.00000E+00 0.00000E+00
        2  1.76506E-06 0.00000E+00 0.00000E+00 0.00000E+00 0.00000E+00 0.00000E+00 0.00000E+00 0.00000E+00 0.00000E+00 7.95515E-04 0.00000E+00 0.00000E+00
        3  9.26156E-06 0.00000E+00 0.00000E+00 0.00000E+00 0.00000E+00 0.00000E+00 0.00000E+00 0.00000E+00 0.00000E+00 1.59676E-03 0.00000E+00 0.00000E+00
        4  2.41550E-05 0.00000E+00 0.00000E+00 0.00000E+00 0.00000E+00 0.00000E+00 0.00000E+00 0.00000E+00 0.00000E+00 2.40546E-03 0.00000E+00 0.00000E+00
        5  5.16590E-05 0.00000E+00 0.00000E+00 0.00000E+00 0.00000E+00 0.00000E+00 0.00000E+00 0.00000E+00 0.00000E+00 3.22666E-03 0.00000E+00 0.00000E+00
        6  5.00054E-05 2.60412E-05 0.00000E+00 0.00000E+00 0.00000E+00 0.00000E+00 0.00000E+00 0.00000E+00 0.00000E+00 2.98331E-03 1.24104E-03-1.78000E-18
        7  4.04352E-05 3.84806E-05 0.00000E+00 0.00000E+00 0.00000E+00 0.00000E+00 0.00000E+00 0.00000E+00 0.00000E+00 2.28554E-03 2.28358E-03-1.78000E-18
        8  2.41771E-05 4.85455E-05 0.00000E+00 0.00000E+00 0.00000E+00 0.00000E+00 0.00000E+00 0.00000E+00 0.00000E+00 1.23918E-03 2.98185E-03-1.78000E-18
        9  0.00000E+00 5.24052E-05 0.00000E+00 0.00000E+00 0.00000E+00 0.00000E+00 0.00000E+00 0.00000E+00 0.00000E+00 1.94400E-19 3.22741E-03-1.78000E-18
       10  0.00000E+00 3.13987E-05 0.00000E+00 0.00000E+00 0.00000E+00 0.00000E+00 0.00000E+00 0.00000E+00 0.00000E+00 1.45800E-19 2.41270E-03 0.00000E+00
       11  0.00000E+00 1.46291E-05 0.00000E+00 0.00000E+00 0.00000E+00 0.00000E+00 0.00000E+00 0.00000E+00 0.00000E+00 9.72100E-20 1.60213E-03 0.00000E+00
       12  0.00000E+00 3.83857E-06 0.00000E+00 0.00000E+00 0.00000E+00 0.00000E+00 0.00000E+00 0.00000E+00 0.00000E+00 4.86000E-20 7.97589E-04 0.00000E+00
       13  2.55641E-05 2.27932E-05 0.00000E+00 0.00000E+00 0.00000E+00 0.00000E+00 0.00000E+00 0.00000E+00 0.00000E+00 1.37746E-03 1.33109E-03 0.00000E+00
       14  2.63011E-05 1.50127E-05 0.00000E+00 0.00000E+00 0.00000E+00 0.00000E+00 0.00000E+00 0.00000E+00 0.00000E+00 1.53320E-03 6.84591E-04 0.00000E+00
       15  3.28705E-05 2.91592E-05 0.00000E+00 0.00000E+00 0.00000E+00 0.00000E+00 0.00000E+00 0.00000E+00 0.00000E+00 1.80037E-03 1.76546E-03 0.00000E+00
       16  3.78090E-05 1.78382E-05 0.00000E+00 0.00000E+00 0.00000E+00 0.00000E+00 0.00000E+00 0.00000E+00 0.00000E+00 2.22891E-03 9.37972E-04 0.00000E+00
       17  1.38238E-05 2.06925E-05 0.00000E+00 0.00000E+00 0.00000E+00 0.00000E+00 0.00000E+00 0.00000E+00 0.00000E+00 7.20801E-04 1.50899E-03 0.00000E+00
       18  1.92113E-05 3.27554E-05 0.00000E+00 0.00000E+00 0.00000E+00 0.00000E+00 0.00000E+00 0.00000E+00 0.00000E+00 9.70070E-04 2.19606E-03 0.00000E+00
       19  1.35774E-05 1.11635E-05 0.00000E+00 0.00000E+00 0.00000E+00 0.00000E+00 0.00000E+00 0.00000E+00 0.00000E+00 7.96032E-04 7.64952E-04 0.00000E+00
      179  6.65876E-07 1.93199E-06-8.61242E-05 0.00000E+00 0.00000E+00 0.00000E+00 0.00000E+00 0.00000E+00 0.00000E+00 4.49077E-03 4.49203E-03 2.53139E-02
      180  2.79400E-07 1.67382E-06-8.61242E-05 0.00000E+00 0.00000E+00 0.00000E+00 0.00000E+00 0.00000E+00 0.00000E+00 3.53328E-03 3.47237E-03 2.53139E-02
      181 -3.13100E-07 1.73211E-06-8.61242E-05 0.00000E+00 0.00000E+00 0.00000E+00 0.00000E+00 0.00000E+00 0.00000E+00 4.37949E-03 1.84093E-03 2.53139E-02
      182  2.21146E-07 1.75082E-06-8.61242E-05 0.00000E+00 0.00000E+00 0.00000E+00 0.00000E+00 0.00000E+00 0.00000E+00 5.86692E-03 2.43155E-03 2.53139E-02
      247  2.16435E-06 0.00000E+00-8.61242E-05 0.00000E+00 0.00000E+00 0.00000E+00 0.00000E+00 0.00000E+00 0.00000E+00 1.58966E-03 0.00000E+00 2.53139E-02
      248 -1.09739E-07 1.11070E-06-8.61242E-05 0.00000E+00 0.00000E+00 0.00000E+00 0.00000E+00 0.00000E+00 0.00000E+00 1.56379E-03 1.50751E-03 2.53139E-02
      249  0.00000E+00 1.62337E-06-8.61242E-05 0.00000E+00 0.00000E+00 0.00000E+00 0.00000E+00 0.00000E+00 0.00000E+00 9.72100E-20 1.58912E-03 2.53139E-02
      250  0.00000E+00 0.00000E+00-8.61242E-05 0.00000E+00 0.00000E+00 0.00000E+00 0.00000E+00 0.00000E+00 0.00000E+00 0.00000E+00 0.00000E+00 2.53139E-02
      283  3.21543E-06 0.00000E+00-8.61242E-05 0.00000E+00 0.00000E+00 0.00000E+00 0.00000E+00 0.00000E+00 0.00000E+00 3.17822E-03 0.00000E+00 2.53139E-02
      284 -2.79715E-07 1.42302E-06-8.61242E-05 0.00000E+00 0.00000E+00 0.00000E+00 0.00000E+00 0.00000E+00 0.00000E+00 3.01152E-03 1.33952E-03 2.53139E-02
      333  2.17016E-07 1.16455E-06-8.61242E-05 0.00000E+00 0.00000E+00 0.00000E+00 0.00000E+00 0.00000E+00 0.00000E+00 1.41352E-03 2.97646E-03 2.53139E-02
      334  4.10263E-07 7.93114E-07-8.61242E-05 0.00000E+00 0.00000E+00 0.00000E+00 0.00000E+00 0.00000E+00 0.00000E+00 2.70311E-03 2.61629E-03 2.53139E-02
      335  1.02066E-07 1.26576E-06-8.61242E-05 0.00000E+00 0.00000E+00 0.00000E+00 0.00000E+00 0.00000E+00 0.00000E+00 1.90060E-03 4.32517E-03 2.53139E-02
      368  0.00000E+00 2.20047E-06-8.61242E-05 0.00000E+00 0.00000E+00 0.00000E+00 0.00000E+00 0.00000E+00 0.00000E+00 1.94400E-19 3.17720E-03 2.53139E-02
      369  0.00000E+00 3.09353E-06-8.61242E-05 0.00000E+00 0.00000E+00 0.00000E+00 0.00000E+00 0.00000E+00 0.00000E+00 2.91600E-19 4.76559E-03 2.53139E-02
      386  2.26616E-06 0.00000E+00-8.61242E-05 0.00000E+00 0.00000E+00 0.00000E+00 0.00000E+00 0.00000E+00 0.00000E+00 4.76477E-03 0.00000E+00 2.53139E-02
      403  1.50366E-06 0.00000E+00-8.61242E-05 0.00000E+00 0.00000E+00 0.00000E+00 0.00000E+00 0.00000E+00 0.00000E+00 6.35150E-03 0.00000E+00 2.53139E-02
      436  2.29554E-07 1.64641E-06-8.61242E-05 0.00000E+00 0.00000E+00 0.00000E+00 0.00000E+00 0.00000E+00 0.00000E+00 2.43003E-03 5.86835E-03 2.53139E-02
      437  0.00000E+00 3.48225E-06-8.61242E-05 0.00000E+00 0.00000E+00 0.00000E+00 0.00000E+00 0.00000E+00 0.00000E+00 3.88800E-19 6.35348E-03 2.53139E-02
      438  7.92603E-07 0.00000E+00-8.61242E-05 0.00000E+00 0.00000E+00 0.00000E+00 0.00000E+00 0.00000E+00 0.00000E+00 7.25789E-03 0.00000E+00 2.53139E-02
      439  5.30458E-07 0.00000E+00-8.61242E-05 0.00000E+00 0.00000E+00 0.00000E+00 0.00000E+00 0.00000E+00 0.00000E+00 8.16483E-03 0.00000E+00 2.53139E-02
      440  4.25677E-07 0.00000E+00-8.61242E-05 0.00000E+00 0.00000E+00 0.00000E+00 0.00000E+00 0.00000E+00 0.00000E+00 9.07183E-03 0.00000E+00 2.53139E-02
      441  3.75608E-07 0.00000E+00-8.61242E-05 0.00000E+00 0.00000E+00 0.00000E+00 0.00000E+00 0.00000E+00 0.00000E+00 9.97898E-03 0.00000E+00 2.53139E-02
      442  3.36827E-07 0.00000E+00-8.61242E-05 0.00000E+00 0.00000E+00 0.00000E+00 0.00000E+00 0.00000E+00 0.00000E+00 1.08860E-02 0.00000E+00 2.53139E-02
      443  3.00096E-07 0.00000E+00-8.61242E-05 0.00000E+00 0.00000E+00 0.00000E+00 0.00000E+00 0.00000E+00 0.00000E+00 1.17932E-02 0.00000E+00 2.53139E-02
      444  5.92217E-08 0.00000E+00-8.61242E-05 0.00000E+00 0.00000E+00 0.00000E+00 0.00000E+00 0.00000E+00 0.00000E+00 1.27001E-02 0.00000E+00 2.53139E-02
      628  6.15536E-07 1.94027E-06-8.61242E-05 0.00000E+00 0.00000E+00 0.00000E+00 0.00000E+00 0.00000E+00 0.00000E+00 8.39752E-03 3.43434E-03 2.53139E-02
      631  5.58713E-07 1.94953E-06-8.61242E-05 0.00000E+00 0.00000E+00 0.00000E+00 0.00000E+00 0.00000E+00 0.00000E+00 7.55406E-03 3.10015E-03 2.53139E-02
      632  7.49042E-07 1.75701E-06-8.61242E-05 0.00000E+00 0.00000E+00 0.00000E+00 0.00000E+00 0.00000E+00 0.00000E+00 6.41885E-03 6.41266E-03 2.53139E-02
      635  6.39888E-07 1.78153E-06-8.61242E-05 0.00000E+00 0.00000E+00 0.00000E+00 0.00000E+00 0.00000E+00 0.00000E+00 5.77604E-03 5.77238E-03 2.53139E-02
      636  5.03402E-07 1.88621E-06-8.61242E-05 0.00000E+00 0.00000E+00 0.00000E+00 0.00000E+00 0.00000E+00 0.00000E+00 3.43970E-03 8.39609E-03 2.53139E-02
      639  4.35607E-07 1.88565E-06-8.61242E-05 0.00000E+00 0.00000E+00 0.00000E+00 0.00000E+00 0.00000E+00 0.00000E+00 3.10314E-03 7.55359E-03 2.53139E-02
      640  0.00000E+00 2.76895E-06-8.61242E-05 0.00000E+00 0.00000E+00 0.00000E+00 0.00000E+00 0.00000E+00 0.00000E+00 5.55500E-19 9.07417E-03 2.53139E-02
      643  0.00000E+00 2.95235E-06-8.61242E-05 0.00000E+00 0.00000E+00 0.00000E+00 0.00000E+00 0.00000E+00 0.00000E+00 4.99900E-19 8.16725E-03 2.53139E-02
      692  6.94422E-07 1.92849E-06-8.61242E-05 0.00000E+00 0.00000E+00 0.00000E+00 0.00000E+00 0.00000E+00 0.00000E+00 9.24099E-03 3.76853E-03 2.53139E-02
      694  8.54869E-07 1.72632E-06-8.61242E-05 0.00000E+00 0.00000E+00 0.00000E+00 0.00000E+00 0.00000E+00 0.00000E+00 7.06155E-03 7.05283E-03 2.53139E-02
      696  5.61568E-07 1.88147E-06-8.61242E-05 0.00000E+00 0.00000E+00 0.00000E+00 0.00000E+00 0.00000E+00 0.00000E+00 3.77626E-03 9.23848E-03 2.53139E-02
      698  0.00000E+00 2.59603E-06-8.61242E-05 0.00000E+00 0.00000E+00 0.00000E+00 0.00000E+00 0.00000E+00 0.00000E+00 6.11000E-19 9.98120E-03 2.53139E-02
      900  8.12813E-07 1.80681E-06-8.61242E-05 0.00000E+00 0.00000E+00 0.00000E+00 0.00000E+00 0.00000E+00 0.00000E+00 1.09279E-02 4.43681E-03 2.53139E-02
      902  7.87775E-07 1.90086E-06-8.61242E-05 0.00000E+00 0.00000E+00 0.00000E+00 0.00000E+00 0.00000E+00 0.00000E+00 1.00845E-02 4.10270E-03 2.53139E-02
      903  1.21963E-06 1.83863E-06-8.61242E-05 0.00000E+00 0.00000E+00 0.00000E+00 0.00000E+00 0.00000E+00 0.00000E+00 8.34732E-03 8.33344E-03 2.53139E-02
      905  9.85312E-07 1.72865E-06-8.61242E-05 0.00000E+00 0.00000E+00 0.00000E+00 0.00000E+00 0.00000E+00 0.00000E+00 7.70439E-03 7.69303E-03 2.53139E-02
      906  4.20741E-07 1.70414E-06-8.61242E-05 0.00000E+00 0.00000E+00 0.00000E+00 0.00000E+00 0.00000E+00 0.00000E+00 4.44912E-03 1.09232E-02 2.53139E-02
      908  5.77796E-07 1.84419E-06-8.61242E-05 0.00000E+00 0.00000E+00 0.00000E+00 0.00000E+00 0.00000E+00 0.00000E+00 4.11278E-03 1.00809E-02 2.53139E-02
      909  0.00000E+00 2.87756E-06-8.61242E-05 0.00000E+00 0.00000E+00 0.00000E+00 0.00000E+00 0.00000E+00 0.00000E+00 7.22100E-19 1.17958E-02 2.53139E-02
      911  0.00000E+00 2.53261E-06-8.61242E-05 0.00000E+00 0.00000E+00 0.00000E+00 0.00000E+00 0.00000E+00 0.00000E+00 6.66600E-19 1.08882E-02 2.53139E-02
     1012  4.96423E-07 1.93095E-06-8.61242E-05 0.00000E+00 0.00000E+00 0.00000E+00 0.00000E+00 0.00000E+00 0.00000E+00 6.71060E-03 2.76593E-03 2.53139E-02
     1013  5.19719E-07 1.80570E-06-8.61242E-05 0.00000E+00 0.00000E+00 0.00000E+00 0.00000E+00 0.00000E+00 0.00000E+00 5.13332E-03 5.13221E-03 2.53139E-02
     1014  3.44951E-07 1.85830E-06-8.61242E-05 0.00000E+00 0.00000E+00 0.00000E+00 0.00000E+00 0.00000E+00 0.00000E+00 2.76654E-03 6.71106E-03 2.53139E-02
     1015  0.00000E+00 3.17123E-06-8.61242E-05 0.00000E+00 0.00000E+00 0.00000E+00 0.00000E+00 0.00000E+00 0.00000E+00 4.44400E-19 7.26027E-03 2.53139E-02
     1060  5.19140E-07 1.55099E-06-8.61242E-05 0.00000E+00 0.00000E+00 0.00000E+00 0.00000E+00 0.00000E+00 0.00000E+00 1.17710E-02 4.77075E-03 2.53139E-02
     1061  7.27657E-07 1.67475E-06-8.61242E-05 0.00000E+00 0.00000E+00 0.00000E+00 0.00000E+00 0.00000E+00 0.00000E+00 8.98943E-03 8.97347E-03 2.53139E-02
     1062  4.21230E-07 2.18690E-06-8.61242E-05 0.00000E+00 0.00000E+00 0.00000E+00 0.00000E+00 0.00000E+00 0.00000E+00 4.78562E-03 1.17662E-02 2.53139E-02
     1063  0.00000E+00 3.75469E-06-8.61242E-05 0.00000E+00 0.00000E+00 0.00000E+00 0.00000E+00 0.00000E+00 0.00000E+00 7.77700E-19 1.27038E-02 2.53139E-02



 n o d a l   p r i n t   o u t   f o r   t i m e  s t e p     301                              ( at time 5.7705331E+00 )

 nodal point  x-disp     y-disp      z-disp      x-vel       y-vel       z-vel      x-accl      y-accl      z-accl      x-coor      y-coor      z-coor
        1  0.00000E+00 0.00000E+00 0.00000E+00 0.00000E+00 0.00000E+00 0.00000E+00 0.00000E+00 0.00000E+00 0.00000E+00 0.00000E+00 0.00000E+00 0.00000E+00
        2  8.44540E-06 0.00000E+00 0.00000E+00 0.00000E+00 0.00000E+00 0.00000E+00 0.00000E+00 0.00000E+00 0.00000E+00 8.02195E-04 0.00000E+00 0.00000E+00
        3  2.52878E-05 0.00000E+00 0.00000E+00 0.00000E+00 0.00000E+00 0.00000E+00 0.00000E+00 0.00000E+00 0.00000E+00 1.61279E-03 0.00000E+00 0.00000E+00
        4  5.15562E-05 0.00000E+00 0.00000E+00 0.00000E+00 0.00000E+00 0.00000E+00 0.00000E+00 0.00000E+00 0.00000E+00 2.43286E-03 0.00000E+00 0.00000E+00
        5  8.88425E-05 0.00000E+00 0.00000E+00 0.00000E+00 0.00000E+00 0.00000E+00 0.00000E+00 0.00000E+00 0.00000E+00 3.26384E-03 0.00000E+00 0.00000E+00
        6  8.11446E-05 4.05293E-05 0.00000E+00 0.00000E+00 0.00000E+00 0.00000E+00 0.00000E+00 0.00000E+00 0.00000E+00 3.01444E-03 1.25553E-03-1.78000E-18
        7  6.23160E-05 6.21495E-05 0.00000E+00 0.00000E+00 0.00000E+00 0.00000E+00 0.00000E+00 0.00000E+00 0.00000E+00 2.30742E-03 2.30725E-03-1.78000E-18
        8  3.58238E-05 7.65922E-05 0.00000E+00 0.00000E+00 0.00000E+00 0.00000E+00 0.00000E+00 0.00000E+00 0.00000E+00 1.25082E-03 3.00989E-03-1.78000E-18
        9  0.00000E+00 8.36516E-05 0.00000E+00 0.00000E+00 0.00000E+00 0.00000E+00 0.00000E+00 0.00000E+00 0.00000E+00 1.94400E-19 3.25865E-03-1.78000E-18
       10  0.00000E+00 5.57439E-05 0.00000E+00 0.00000E+00 0.00000E+00 0.00000E+00 0.00000E+00 0.00000E+00 0.00000E+00 1.45800E-19 2.43704E-03 0.00000E+00
       11  0.00000E+00 3.14963E-05 0.00000E+00 0.00000E+00 0.00000E+00 0.00000E+00 0.00000E+00 0.00000E+00 0.00000E+00 9.72100E-20 1.61900E-03 0.00000E+00
       12  0.00000E+00 1.26667E-05 0.00000E+00 0.00000E+00 0.00000E+00 0.00000E+00 0.00000E+00 0.00000E+00 0.00000E+00 4.86000E-20 8.06417E-04 0.00000E+00
       13  4.26364E-05 4.08031E-05 0.00000E+00 0.00000E+00 0.00000E+00 0.00000E+00 0.00000E+00 0.00000E+00 0.00000E+00 1.39454E-03 1.34910E-03 0.00000E+00
       14  4.48024E-05 2.52060E-05 0.00000E+00 0.00000E+00 0.00000E+00 0.00000E+00 0.00000E+00 0.00000E+00 0.00000E+00 1.55170E-03 6.94785E-04 0.00000E+00
       15  5.26241E-05 4.89641E-05 0.00000E+00 0.00000E+00 0.00000E+00 0.00000E+00 0.00000E+00 0.00000E+00 0.00000E+00 1.82012E-03 1.78526E-03 0.00000E+00
       16  6.30107E-05 2.85534E-05 0.00000E+00 0.00000E+00 0.00000E+00 0.00000E+00 0.00000E+00 0.00000E+00 0.00000E+00 2.25411E-03 9.48687E-04 0.00000E+00
       17  2.17405E-05 3.80553E-05 0.00000E+00 0.00000E+00 0.00000E+00 0.00000E+00 0.00000E+00 0.00000E+00 0.00000E+00 7.28717E-04 1.52636E-03 0.00000E+00
       18  2.96586E-05 5.53875E-05 0.00000E+00 0.00000E+00 0.00000E+00 0.00000E+00 0.00000E+00 0.00000E+00 0.00000E+00 9.80517E-04 2.21869E-03 0.00000E+00
       19  2.20850E-05 2.20090E-05 0.00000E+00 0.00000E+00 0.00000E+00 0.00000E+00 0.00000E+00 0.00000E+00 0.00000E+00 8.04539E-04 7.75798E-04 0.00000E+00
      179  7.41578E-07 1.95844E-06-1.15411E-04 0.00000E+00 0.00000E+00 0.00000E+00 0.00000E+00 0.00000E+00 0.00000E+00 4.49084E-03 4.49206E-03 2.52846E-02
      180  4.30246E-07 1.65073E-06-1.15411E-04 0.00000E+00 0.00000E+00 0.00000E+00 0.00000E+00 0.00000E+00 0.00000E+00 3.53343E-03 3.47235E-03 2.52846E-02
      181 -1.60132E-07 1.62013E-06-1.15411E-04 0.00000E+00 0.00000E+00 0.00000E+00 0.00000E+00 0.00000E+00 0.00000E+00 4.37964E-03 1.84082E-03 2.52846E-02
      182  4.13734E-07 1.72333E-06-1.15411E-04 0.00000E+00 0.00000E+00 0.00000E+00 0.00000E+00 0.00000E+00 0.00000E+00 5.86711E-03 2.43152E-03 2.52846E-02
      247  1.87849E-06 0.00000E+00-1.15411E-04 0.00000E+00 0.00000E+00 0.00000E+00 0.00000E+00 0.00000E+00 0.00000E+00 1.58938E-03 0.00000E+00 2.52846E-02
      248  4.03098E-08 4.43386E-07-1.15411E-04 0.00000E+00 0.00000E+00 0.00000E+00 0.00000E+00 0.00000E+00 0.00000E+00 1.56394E-03 1.50684E-03 2.52846E-02
      249  0.00000E+00 1.41922E-06-1.15411E-04 0.00000E+00 0.00000E+00 0.00000E+00 0.00000E+00 0.00000E+00 0.00000E+00 9.72100E-20 1.58892E-03 2.52846E-02
      250  0.00000E+00 0.00000E+00-1.15411E-04 0.00000E+00 0.00000E+00 0.00000E+00 0.00000E+00 0.00000E+00 0.00000E+00 0.00000E+00 0.00000E+00 2.52846E-02
      283  2.91998E-06 0.00000E+00-1.15411E-04 0.00000E+00 0.00000E+00 0.00000E+00 0.00000E+00 0.00000E+00 0.00000E+00 3.17792E-03 0.00000E+00 2.52846E-02
      284 -1.33023E-07 1.00866E-06-1.15411E-04 0.00000E+00 0.00000E+00 0.00000E+00 0.00000E+00 0.00000E+00 0.00000E+00 3.01167E-03 1.33911E-03 2.52846E-02
      333  3.22808E-07 1.12141E-06-1.15411E-04 0.00000E+00 0.00000E+00 0.00000E+00 0.00000E+00 0.00000E+00 0.00000E+00 1.41362E-03 2.97642E-03 2.52846E-02
      334  5.33077E-07 6.42840E-07-1.15411E-04 0.00000E+00 0.00000E+00 0.00000E+00 0.00000E+00 0.00000E+00 0.00000E+00 2.70323E-03 2.61614E-03 2.52846E-02
      335  2.09860E-07 1.41163E-06-1.15411E-04 0.00000E+00 0.00000E+00 0.00000E+00 0.00000E+00 0.00000E+00 0.00000E+00 1.90071E-03 4.32531E-03 2.52846E-02
      368  0.00000E+00 2.81437E-06-1.15411E-04 0.00000E+00 0.00000E+00 0.00000E+00 0.00000E+00 0.00000E+00 0.00000E+00 1.94400E-19 3.17781E-03 2.52846E-02
      369  0.00000E+00 3.45945E-06-1.15411E-04 0.00000E+00 0.00000E+00 0.00000E+00 0.00000E+00 0.00000E+00 0.00000E+00 2.91600E-19 4.76596E-03 2.52846E-02
      386  2.12335E-06 0.00000E+00-1.15411E-04 0.00000E+00 0.00000E+00 0.00000E+00 0.00000E+00 0.00000E+00 0.00000E+00 4.76462E-03 0.00000E+00 2.52846E-02
      403  1.39924E-06 0.00000E+00-1.15411E-04 0.00000E+00 0.00000E+00 0.00000E+00 0.00000E+00 0.00000E+00 0.00000E+00 6.35140E-03 0.00000E+00 2.52846E-02
      436  3.46180E-07 1.91663E-06-1.15411E-04 0.00000E+00 0.00000E+00 0.00000E+00 0.00000E+00 0.00000E+00 0.00000E+00 2.43015E-03 5.86862E-03 2.52846E-02
      437  0.00000E+00 3.80157E-06-1.15411E-04 0.00000E+00 0.00000E+00 0.00000E+00 0.00000E+00 0.00000E+00 0.00000E+00 3.88800E-19 6.35380E-03 2.52846E-02
      438  8.15463E-07 0.00000E+00-1.15411E-04 0.00000E+00 0.00000E+00 0.00000E+00 0.00000E+00 0.00000E+00 0.00000E+00 7.25792E-03 0.00000E+00 2.52846E-02
      439  6.18335E-07 0.00000E+00-1.15411E-04 0.00000E+00 0.00000E+00 0.00000E+00 0.00000E+00 0.00000E+00 0.00000E+00 8.16492E-03 0.00000E+00 2.52846E-02
      440  5.14823E-07 0.00000E+00-1.15411E-04 0.00000E+00 0.00000E+00 0.00000E+00 0.00000E+00 0.00000E+00 0.00000E+00 9.07191E-03 0.00000E+00 2.52846E-02
      441  4.76865E-07 0.00000E+00-1.15411E-04 0.00000E+00 0.00000E+00 0.00000E+00 0.00000E+00 0.00000E+00 0.00000E+00 9.97908E-03 0.00000E+00 2.52846E-02
      442  4.50547E-07 0.00000E+00-1.15411E-04 0.00000E+00 0.00000E+00 0.00000E+00 0.00000E+00 0.00000E+00 0.00000E+00 1.08862E-02 0.00000E+00 2.52846E-02
      443  4.25533E-07 0.00000E+00-1.15411E-04 0.00000E+00 0.00000E+00 0.00000E+00 0.00000E+00 0.00000E+00 0.00000E+00 1.17933E-02 0.00000E+00 2.52846E-02
      444  2.07420E-07 0.00000E+00-1.15411E-04 0.00000E+00 0.00000E+00 0.00000E+00 0.00000E+00 0.00000E+00 0.00000E+00 1.27002E-02 0.00000E+00 2.52846E-02
      628  7.50571E-07 1.90518E-06-1.15411E-04 0.00000E+00 0.00000E+00 0.00000E+00 0.00000E+00 0.00000E+00 0.00000E+00 8.39765E-03 3.43431E-03 2.52846E-02
      631  6.78164E-07 1.88472E-06-1.15411E-04 0.00000E+00 0.00000E+00 0.00000E+00 0.00000E+00 0.00000E+00 0.00000E+00 7.55418E-03 3.10008E-03 2.52846E-02
      632  8.46248E-07 1.82068E-06-1.15411E-04 0.00000E+00 0.00000E+00 0.00000E+00 0.00000E+00 0.00000E+00 0.00000E+00 6.41895E-03 6.41272E-03 2.52846E-02
      635  7.44624E-07 1.85540E-06-1.15411E-04 0.00000E+00 0.00000E+00 0.00000E+00 0.00000E+00 0.00000E+00 0.00000E+00 5.77614E-03 5.77246E-03 2.52846E-02
      636  5.64473E-07 2.06962E-06-1.15411E-04 0.00000E+00 0.00000E+00 0.00000E+00 0.00000E+00 0.00000E+00 0.00000E+00 3.43976E-03 8.39627E-03 2.52846E-02
      639  4.91522E-07 2.06787E-06-1.15411E-04 0.00000E+00 0.00000E+00 0.00000E+00 0.00000E+00 0.00000E+00 0.00000E+00 3.10319E-03 7.55377E-03 2.52846E-02
      640  0.00000E+00 2.96671E-06-1.15411E-04 0.00000E+00 0.00000E+00 0.00000E+00 0.00000E+00 0.00000E+00 0.00000E+00 5.55500E-19 9.07437E-03 2.52846E-02
      643  0.00000E+00 3.19494E-06-1.15411E-04 0.00000E+00 0.00000E+00 0.00000E+00 0.00000E+00 0.00000E+00 0.00000E+00 4.99900E-19 8.16749E-03 2.52846E-02
      692  8.38332E-07 1.90090E-06-1.15411E-04 0.00000E+00 0.00000E+00 0.00000E+00 0.00000E+00 0.00000E+00 0.00000E+00 9.24114E-03 3.76850E-03 2.52846E-02
      694  9.50937E-07 1.79698E-06-1.15411E-04 0.00000E+00 0.00000E+00 0.00000E+00 0.00000E+00 0.00000E+00 0.00000E+00 7.06165E-03 7.05290E-03 2.52846E-02
      696  6.18142E-07 2.06653E-06-1.15411E-04 0.00000E+00 0.00000E+00 0.00000E+00 0.00000E+00 0.00000E+00 0.00000E+00 3.77632E-03 9.23867E-03 2.52846E-02
      698  0.00000E+00 2.78838E-06-1.15411E-04 0.00000E+00 0.00000E+00 0.00000E+00 0.00000E+00 0.00000E+00 0.00000E+00 6.11000E-19 9.98139E-03 2.52846E-02
      900  9.66843E-07 1.80804E-06-1.15411E-04 0.00000E+00 0.00000E+00 0.00000E+00 0.00000E+00 0.00000E+00 0.00000E+00 1.09281E-02 4.43681E-03 2.52846E-02
      902  9.40247E-07 1.88275E-06-1.15411E-04 0.00000E+00 0.00000E+00 0.00000E+00 0.00000E+00 0.00000E+00 0.00000E+00 1.00846E-02 4.10268E-03 2.52846E-02
      903  1.31680E-06 1.94321E-06-1.15411E-04 0.00000E+00 0.00000E+00 0.00000E+00 0.00000E+00 0.00000E+00 0.00000E+00 8.34742E-03 8.33354E-03 2.52846E-02
      905  1.07398E-06 1.81124E-06-1.15411E-04 0.00000E+00 0.00000E+00 0.00000E+00 0.00000E+00 0.00000E+00 0.00000E+00 7.70447E-03 7.69311E-03 2.52846E-02
      906  4.79413E-07 1.86670E-06-1.15411E-04 0.00000E+00 0.00000E+00 0.00000E+00 0.00000E+00 0.00000E+00 0.00000E+00 4.44918E-03 1.09234E-02 2.52846E-02
      908  6.38789E-07 2.03199E-06-1.15411E-04 0.00000E+00 0.00000E+00 0.00000E+00 0.00000E+00 0.00000E+00 0.00000E+00 4.11284E-03 1.00811E-02 2.52846E-02
      909  0.00000E+00 3.06294E-06-1.15411E-04 0.00000E+00 0.00000E+00 0.00000E+00 0.00000E+00 0.00000E+00 0.00000E+00 7.22100E-19 1.17960E-02 2.52846E-02
      911  0.00000E+00 2.73992E-06-1.15411E-04 0.00000E+00 0.00000E+00 0.00000E+00 0.00000E+00 0.00000E+00 0.00000E+00 6.66600E-19 1.08884E-02 2.52846E-02
     1012  6.26457E-07 1.85250E-06-1.15411E-04 0.00000E+00 0.00000E+00 0.00000E+00 0.00000E+00 0.00000E+00 0.00000E+00 6.71073E-03 2.76585E-03 2.52846E-02
     1013  6.27076E-07 1.87899E-06-1.15411E-04 0.00000E+00 0.00000E+00 0.00000E+00 0.00000E+00 0.00000E+00 0.00000E+00 5.13343E-03 5.13228E-03 2.52846E-02
     1014  4.16731E-07 2.07445E-06-1.15411E-04 0.00000E+00 0.00000E+00 0.00000E+00 0.00000E+00 0.00000E+00 0.00000E+00 2.76662E-03 6.71127E-03 2.52846E-02
     1015  0.00000E+00 3.44978E-06-1.15411E-04 0.00000E+00 0.00000E+00 0.00000E+00 0.00000E+00 0.00000E+00 0.00000E+00 4.44400E-19 7.26055E-03 2.52846E-02
     1060  6.79498E-07 1.57655E-06-1.15411E-04 0.00000E+00 0.00000E+00 0.00000E+00 0.00000E+00 0.00000E+00 0.00000E+00 1.17712E-02 4.77078E-03 2.52846E-02
     1061  8.34679E-07 1.77138E-06-1.15411E-04 0.00000E+00 0.00000E+00 0.00000E+00 0.00000E+00 0.00000E+00 0.00000E+00 8.98953E-03 8.97357E-03 2.52846E-02
     1062  4.92294E-07 2.37610E-06-1.15411E-04 0.00000E+00 0.00000E+00 0.00000E+00 0.00000E+00 0.00000E+00 0.00000E+00 4.78569E-03 1.17664E-02 2.52846E-02
     1063  0.00000E+00 3.90274E-06-1.15411E-04 0.00000E+00 0.00000E+00 0.00000E+00 0.00000E+00 0.00000E+00 0.00000E+00 7.77700E-19 1.27039E-02 2.52846E-02



 n o d a l   p r i n t   o u t   f o r   t i m e  s t e p     311                              ( at time 7.2348554E+00 )

 nodal point  x-disp     y-disp      z-disp      x-vel       y-vel       z-vel      x-accl      y-accl      z-accl      x-coor      y-coor      z-coor
        1  0.00000E+00 0.00000E+00 0.00000E+00 0.00000E+00 0.00000E+00 0.00000E+00 0.00000E+00 0.00000E+00 0.00000E+00 0.00000E+00 0.00000E+00 0.00000E+00
        2  1.63981E-05 0.00000E+00 0.00000E+00 0.00000E+00 0.00000E+00 0.00000E+00 0.00000E+00 0.00000E+00 0.00000E+00 8.10148E-04 0.00000E+00 0.00000E+00
        3  4.13998E-05 0.00000E+00 0.00000E+00 0.00000E+00 0.00000E+00 0.00000E+00 0.00000E+00 0.00000E+00 0.00000E+00 1.62890E-03 0.00000E+00 0.00000E+00
        4  7.86473E-05 0.00000E+00 0.00000E+00 0.00000E+00 0.00000E+00 0.00000E+00 0.00000E+00 0.00000E+00 0.00000E+00 2.45995E-03 0.00000E+00 0.00000E+00
        5  1.27175E-04 0.00000E+00 0.00000E+00 0.00000E+00 0.00000E+00 0.00000E+00 0.00000E+00 0.00000E+00 0.00000E+00 3.30217E-03 0.00000E+00 0.00000E+00
        6  1.13340E-04 5.42978E-05 0.00000E+00 0.00000E+00 0.00000E+00 0.00000E+00 0.00000E+00 0.00000E+00 0.00000E+00 3.04664E-03 1.26930E-03-1.78000E-18
        7  8.53189E-05 8.53221E-05 0.00000E+00 0.00000E+00 0.00000E+00 0.00000E+00 0.00000E+00 0.00000E+00 0.00000E+00 2.33042E-03 2.33042E-03-1.78000E-18
        8  4.80683E-05 1.05357E-04 0.00000E+00 0.00000E+00 0.00000E+00 0.00000E+00 0.00000E+00 0.00000E+00 0.00000E+00 1.26307E-03 3.03866E-03-1.78000E-18
        9  0.00000E+00 1.15920E-04 0.00000E+00 0.00000E+00 0.00000E+00 0.00000E+00 0.00000E+00 0.00000E+00 0.00000E+00 1.94400E-19 3.29092E-03-1.78000E-18
       10  0.00000E+00 8.13083E-05 0.00000E+00 0.00000E+00 0.00000E+00 0.00000E+00 0.00000E+00 0.00000E+00 0.00000E+00 1.45800E-19 2.46261E-03 0.00000E+00
       11  0.00000E+00 5.00230E-05 0.00000E+00 0.00000E+00 0.00000E+00 0.00000E+00 0.00000E+00 0.00000E+00 0.00000E+00 9.72100E-20 1.63752E-03 0.00000E+00
       12  0.00000E+00 2.02489E-05 0.00000E+00 0.00000E+00 0.00000E+00 0.00000E+00 0.00000E+00 0.00000E+00 0.00000E+00 4.86000E-20 8.13999E-04 0.00000E+00
       13  5.95635E-05 5.81871E-05 0.00000E+00 0.00000E+00 0.00000E+00 0.00000E+00 0.00000E+00 0.00000E+00 0.00000E+00 1.41146E-03 1.36649E-03 0.00000E+00
       14  6.28319E-05 3.53504E-05 0.00000E+00 0.00000E+00 0.00000E+00 0.00000E+00 0.00000E+00 0.00000E+00 0.00000E+00 1.56973E-03 7.04929E-04 0.00000E+00
       15  7.30755E-05 6.83966E-05 0.00000E+00 0.00000E+00 0.00000E+00 0.00000E+00 0.00000E+00 0.00000E+00 0.00000E+00 1.84058E-03 1.80470E-03 0.00000E+00
       16  8.85182E-05 4.09253E-05 0.00000E+00 0.00000E+00 0.00000E+00 0.00000E+00 0.00000E+00 0.00000E+00 0.00000E+00 2.27962E-03 9.61059E-04 0.00000E+00
       17  3.09636E-05 5.64130E-05 0.00000E+00 0.00000E+00 0.00000E+00 0.00000E+00 0.00000E+00 0.00000E+00 0.00000E+00 7.37941E-04 1.54471E-03 0.00000E+00
       18  4.05874E-05 7.87322E-05 0.00000E+00 0.00000E+00 0.00000E+00 0.00000E+00 0.00000E+00 0.00000E+00 0.00000E+00 9.91446E-04 2.24203E-03 0.00000E+00
       19  3.14027E-05 3.31841E-05 0.00000E+00 0.00000E+00 0.00000E+00 0.00000E+00 0.00000E+00 0.00000E+00 0.00000E+00 8.13857E-04 7.86973E-04 0.00000E+00
[...]
      179  2.11189E-07 3.37066E-07-1.27455E-03 0.00000E+00 0.00000E+00 0.00000E+00 0.00000E+00 0.00000E+00 0.00000E+00 4.49031E-03 4.49044E-03 2.41255E-02
      180  3.78980E-07-3.93738E-07-1.27455E-03 0.00000E+00 0.00000E+00 0.00000E+00 0.00000E+00 0.00000E+00 0.00000E+00 3.53338E-03 3.47031E-03 2.41255E-02
      181  1.08583E-06-7.75162E-07-1.27455E-03 0.00000E+00 0.00000E+00 0.00000E+00 0.00000E+00 0.00000E+00 0.00000E+00 4.38089E-03 1.83842E-03 2.41255E-02
      182  6.10830E-07-3.35033E-07-1.27455E-03 0.00000E+00 0.00000E+00 0.00000E+00 0.00000E+00 0.00000E+00 0.00000E+00 5.86731E-03 2.42946E-03 2.41255E-02
      247 -2.76554E-06 0.00000E+00-1.27455E-03 0.00000E+00 0.00000E+00 0.00000E+00 0.00000E+00 0.00000E+00 0.00000E+00 1.58473E-03 0.00000E+00 2.41255E-02
      248  3.61335E-07-2.50212E-06-1.27455E-03 0.00000E+00 0.00000E+00 0.00000E+00 0.00000E+00 0.00000E+00 0.00000E+00 1.56426E-03 1.50390E-03 2.41255E-02
      249  0.00000E+00 1.24260E-06-1.27455E-03 0.00000E+00 0.00000E+00 0.00000E+00 0.00000E+00 0.00000E+00 0.00000E+00 9.72100E-20 1.58874E-03 2.41255E-02
      250  0.00000E+00 0.00000E+00-1.27455E-03 0.00000E+00 0.00000E+00 0.00000E+00 0.00000E+00 0.00000E+00 0.00000E+00 0.00000E+00 0.00000E+00 2.41255E-02
      283 -2.56695E-06 0.00000E+00-1.27455E-03 0.00000E+00 0.00000E+00 0.00000E+00 0.00000E+00 0.00000E+00 0.00000E+00 3.17243E-03 0.00000E+00 2.41255E-02
      284  4.16606E-07-3.64122E-06-1.27455E-03 0.00000E+00 0.00000E+00 0.00000E+00 0.00000E+00 0.00000E+00 0.00000E+00 3.01222E-03 1.33446E-03 2.41255E-02
      333  3.06947E-07-5.13712E-07-1.27455E-03 0.00000E+00 0.00000E+00 0.00000E+00 0.00000E+00 0.00000E+00 0.00000E+00 1.41361E-03 2.97479E-03 2.41255E-02
      334  3.46026E-07-1.11052E-06-1.27455E-03 0.00000E+00 0.00000E+00 0.00000E+00 0.00000E+00 0.00000E+00 0.00000E+00 2.70305E-03 2.61439E-03 2.41255E-02
      335  3.84717E-07 2.37334E-07-1.27455E-03 0.00000E+00 0.00000E+00 0.00000E+00 0.00000E+00 0.00000E+00 0.00000E+00 1.90088E-03 4.32414E-03 2.41255E-02
      368  0.00000E+00 1.88241E-06-1.27455E-03 0.00000E+00 0.00000E+00 0.00000E+00 0.00000E+00 0.00000E+00 0.00000E+00 1.94400E-19 3.17688E-03 2.41255E-02
      369  0.00000E+00 1.23817E-06-1.27455E-03 0.00000E+00 0.00000E+00 0.00000E+00 0.00000E+00 0.00000E+00 0.00000E+00 2.91600E-19 4.76374E-03 2.41255E-02
      386 -2.37060E-06 0.00000E+00-1.27455E-03 0.00000E+00 0.00000E+00 0.00000E+00 0.00000E+00 0.00000E+00 0.00000E+00 4.76013E-03 0.00000E+00 2.41255E-02
      403 -1.72986E-06 0.00000E+00-1.27455E-03 0.00000E+00 0.00000E+00 0.00000E+00 0.00000E+00 0.00000E+00 0.00000E+00 6.34827E-03 0.00000E+00 2.41255E-02
      436  4.63755E-07 9.98730E-07-1.27455E-03 0.00000E+00 0.00000E+00 0.00000E+00 0.00000E+00 0.00000E+00 0.00000E+00 2.43026E-03 5.86770E-03 2.41255E-02
      437  0.00000E+00 9.55585E-07-1.27455E-03 0.00000E+00 0.00000E+00 0.00000E+00 0.00000E+00 0.00000E+00 0.00000E+00 3.88800E-19 6.35096E-03 2.41255E-02
      438 -1.10408E-06 0.00000E+00-1.27455E-03 0.00000E+00 0.00000E+00 0.00000E+00 0.00000E+00 0.00000E+00 0.00000E+00 7.25600E-03 0.00000E+00 2.41255E-02
      439 -7.13167E-07 0.00000E+00-1.27455E-03 0.00000E+00 0.00000E+00 0.00000E+00 0.00000E+00 0.00000E+00 0.00000E+00 8.16359E-03 0.00000E+00 2.41255E-02
      440 -4.76887E-07 0.00000E+00-1.27455E-03 0.00000E+00 0.00000E+00 0.00000E+00 0.00000E+00 0.00000E+00 0.00000E+00 9.07092E-03 0.00000E+00 2.41255E-02
      441 -4.20633E-07 0.00000E+00-1.27455E-03 0.00000E+00 0.00000E+00 0.00000E+00 0.00000E+00 0.00000E+00 0.00000E+00 9.97818E-03 0.00000E+00 2.41255E-02
      442 -4.09930E-07 0.00000E+00-1.27455E-03 0.00000E+00 0.00000E+00 0.00000E+00 0.00000E+00 0.00000E+00 0.00000E+00 1.08853E-02 0.00000E+00 2.41255E-02
      443 -4.44810E-07 0.00000E+00-1.27455E-03 0.00000E+00 0.00000E+00 0.00000E+00 0.00000E+00 0.00000E+00 0.00000E+00 1.17925E-02 0.00000E+00 2.41255E-02
      444 -5.39347E-07 0.00000E+00-1.27455E-03 0.00000E+00 0.00000E+00 0.00000E+00 0.00000E+00 0.00000E+00 0.00000E+00 1.26995E-02 0.00000E+00 2.41255E-02
      628  3.20151E-08-2.10722E-07-1.27455E-03 0.00000E+00 0.00000E+00 0.00000E+00 0.00000E+00 0.00000E+00 0.00000E+00 8.39693E-03 3.43219E-03 2.41255E-02
      631  5.93936E-08-2.60938E-07-1.27455E-03 0.00000E+00 0.00000E+00 0.00000E+00 0.00000E+00 0.00000E+00 0.00000E+00 7.55356E-03 3.09794E-03 2.41255E-02
      632  1.61239E-07 5.51682E-07-1.27455E-03 0.00000E+00 0.00000E+00 0.00000E+00 0.00000E+00 0.00000E+00 0.00000E+00 6.41826E-03 6.41145E-03 2.41255E-02
      635  1.90230E-07 5.41233E-07-1.27455E-03 0.00000E+00 0.00000E+00 0.00000E+00 0.00000E+00 0.00000E+00 0.00000E+00 5.77559E-03 5.77114E-03 2.41255E-02
      636  7.21785E-08 7.25671E-07-1.27455E-03 0.00000E+00 0.00000E+00 0.00000E+00 0.00000E+00 0.00000E+00 0.00000E+00 3.43927E-03 8.39493E-03 2.41255E-02
      639  1.55846E-07 8.07039E-07-1.27455E-03 0.00000E+00 0.00000E+00 0.00000E+00 0.00000E+00 0.00000E+00 0.00000E+00 3.10286E-03 7.55251E-03 2.41255E-02
      640  0.00000E+00 1.91141E-06-1.27455E-03 0.00000E+00 0.00000E+00 0.00000E+00 0.00000E+00 0.00000E+00 0.00000E+00 5.55500E-19 9.07331E-03 2.41255E-02
      643  0.00000E+00 1.73427E-06-1.27455E-03 0.00000E+00 0.00000E+00 0.00000E+00 0.00000E+00 0.00000E+00 0.00000E+00 4.99900E-19 8.16603E-03 2.41255E-02
      692  4.34591E-08-2.26683E-07-1.27455E-03 0.00000E+00 0.00000E+00 0.00000E+00 0.00000E+00 0.00000E+00 0.00000E+00 9.24034E-03 3.76637E-03 2.41255E-02
      694  2.09141E-07 5.67057E-07-1.27455E-03 0.00000E+00 0.00000E+00 0.00000E+00 0.00000E+00 0.00000E+00 0.00000E+00 7.06091E-03 7.05167E-03 2.41255E-02
      696 -2.88178E-08 5.64947E-07-1.27455E-03 0.00000E+00 0.00000E+00 0.00000E+00 0.00000E+00 0.00000E+00 0.00000E+00 3.77567E-03 9.23716E-03 2.41255E-02
      698  0.00000E+00 2.12724E-06-1.27455E-03 0.00000E+00 0.00000E+00 0.00000E+00 0.00000E+00 0.00000E+00 0.00000E+00 6.11000E-19 9.98073E-03 2.41255E-02
      900  9.02192E-08-3.87654E-07-1.27455E-03 0.00000E+00 0.00000E+00 0.00000E+00 0.00000E+00 0.00000E+00 0.00000E+00 1.09272E-02 4.43461E-03 2.41255E-02
      902  2.54128E-08-2.88005E-07-1.27455E-03 0.00000E+00 0.00000E+00 0.00000E+00 0.00000E+00 0.00000E+00 0.00000E+00 1.00837E-02 4.10051E-03 2.41255E-02
      903  2.13231E-07 5.57772E-07-1.27455E-03 0.00000E+00 0.00000E+00 0.00000E+00 0.00000E+00 0.00000E+00 0.00000E+00 8.34631E-03 8.33216E-03 2.41255E-02
      905  3.16992E-07 6.45469E-07-1.27455E-03 0.00000E+00 0.00000E+00 0.00000E+00 0.00000E+00 0.00000E+00 0.00000E+00 7.70372E-03 7.69195E-03 2.41255E-02
      906 -1.97540E-08 9.11128E-07-1.27455E-03 0.00000E+00 0.00000E+00 0.00000E+00 0.00000E+00 0.00000E+00 0.00000E+00 4.44868E-03 1.09224E-02 2.41255E-02
      908 -1.22899E-07 4.51480E-07-1.27455E-03 0.00000E+00 0.00000E+00 0.00000E+00 0.00000E+00 0.00000E+00 0.00000E+00 4.11208E-03 1.00796E-02 2.41255E-02
      909  0.00000E+00 1.33042E-06-1.27455E-03 0.00000E+00 0.00000E+00 0.00000E+00 0.00000E+00 0.00000E+00 0.00000E+00 7.22100E-19 1.17942E-02 2.41255E-02
      911  0.00000E+00 2.10458E-06-1.27455E-03 0.00000E+00 0.00000E+00 0.00000E+00 0.00000E+00 0.00000E+00 0.00000E+00 6.66600E-19 1.08878E-02 2.41255E-02
     1012  1.83665E-07-3.35964E-07-1.27455E-03 0.00000E+00 0.00000E+00 0.00000E+00 0.00000E+00 0.00000E+00 0.00000E+00 6.71028E-03 2.76366E-03 2.41255E-02
     1013  3.14239E-07 5.45667E-07-1.27455E-03 0.00000E+00 0.00000E+00 0.00000E+00 0.00000E+00 0.00000E+00 0.00000E+00 5.13311E-03 5.13095E-03 2.41255E-02
     1014  2.25320E-07 8.56476E-07-1.27455E-03 0.00000E+00 0.00000E+00 0.00000E+00 0.00000E+00 0.00000E+00 0.00000E+00 2.76643E-03 6.71006E-03 2.41255E-02
     1015  0.00000E+00 1.47086E-06-1.27455E-03 0.00000E+00 0.00000E+00 0.00000E+00 0.00000E+00 0.00000E+00 0.00000E+00 4.44400E-19 7.25857E-03 2.41255E-02
     1060  2.62167E-07-4.99106E-07-1.27455E-03 0.00000E+00 0.00000E+00 0.00000E+00 0.00000E+00 0.00000E+00 0.00000E+00 1.17708E-02 4.76870E-03 2.41255E-02
     1061 -2.30067E-08 5.27620E-07-1.27455E-03 0.00000E+00 0.00000E+00 0.00000E+00 0.00000E+00 0.00000E+00 0.00000E+00 8.98868E-03 8.97233E-03 2.41255E-02
     1062  5.59053E-07 1.22048E-06-1.27455E-03 0.00000E+00 0.00000E+00 0.00000E+00 0.00000E+00 0.00000E+00 0.00000E+00 4.78576E-03 1.17652E-02 2.41255E-02
     1063  0.00000E+00-4.64972E-07-1.27455E-03 0.00000E+00 0.00000E+00 0.00000E+00 0.00000E+00 0.00000E+00 0.00000E+00 7.77700E-19 1.26995E-02 2.41255E-02



 n o d a l   p r i n t   o u t   f o r   t i m e  s t e p    1467                              ( at time 6.4651310E+01 )

 nodal point  x-disp     y-disp      z-disp      x-vel       y-vel       z-vel      x-accl      y-accl      z-accl      x-coor      y-coor      z-coor
        1  0.00000E+00 0.00000E+00 0.00000E+00 0.00000E+00 0.00000E+00 0.00000E+00 0.00000E+00 0.00000E+00 0.00000E+00 0.00000E+00 0.00000E+00 0.00000E+00
        2  9.56217E-04 0.00000E+00 0.00000E+00 0.00000E+00 0.00000E+00 0.00000E+00 0.00000E+00 0.00000E+00 0.00000E+00 1.74997E-03 0.00000E+00 0.00000E+00
        3  1.65695E-03 0.00000E+00 0.00000E+00 0.00000E+00 0.00000E+00 0.00000E+00 0.00000E+00 0.00000E+00 0.00000E+00 3.24445E-03 0.00000E+00 0.00000E+00
        4  2.01299E-03 0.00000E+00 0.00000E+00 0.00000E+00 0.00000E+00 0.00000E+00 0.00000E+00 0.00000E+00 0.00000E+00 4.39429E-03 0.00000E+00 0.00000E+00
        5  2.36896E-03 0.00000E+00 0.00000E+00 0.00000E+00 0.00000E+00 0.00000E+00 0.00000E+00 0.00000E+00 0.00000E+00 5.54396E-03 0.00000E+00 0.00000E+00
        6  2.09119E-03 8.62027E-04 0.00000E+00 0.00000E+00 0.00000E+00 0.00000E+00 0.00000E+00 0.00000E+00 0.00000E+00 5.02449E-03 2.07703E-03-1.78000E-18
        7  1.53631E-03 1.37241E-03 0.00000E+00 0.00000E+00 0.00000E+00 0.00000E+00 0.00000E+00 0.00000E+00 0.00000E+00 3.78141E-03 3.61751E-03-1.78000E-18
        8  8.46798E-04 1.75232E-03 0.00000E+00 0.00000E+00 0.00000E+00 0.00000E+00 0.00000E+00 0.00000E+00 0.00000E+00 2.06180E-03 4.68562E-03-1.78000E-18
        9  0.00000E+00 1.94733E-03 0.00000E+00 0.00000E+00 0.00000E+00 0.00000E+00 0.00000E+00 0.00000E+00 0.00000E+00 1.94400E-19 5.12233E-03-1.78000E-18
       10  0.00000E+00 1.51852E-03 0.00000E+00 0.00000E+00 0.00000E+00 0.00000E+00 0.00000E+00 0.00000E+00 0.00000E+00 1.45800E-19 3.89982E-03 0.00000E+00
       11  0.00000E+00 8.37491E-04 0.00000E+00 0.00000E+00 0.00000E+00 0.00000E+00 0.00000E+00 0.00000E+00 0.00000E+00 9.72100E-20 2.42499E-03 0.00000E+00
       12  0.00000E+00 3.82747E-04 0.00000E+00 0.00000E+00 0.00000E+00 0.00000E+00 0.00000E+00 0.00000E+00 0.00000E+00 4.86000E-20 1.17650E-03 0.00000E+00
       13  1.29488E-03 7.95286E-04 0.00000E+00 0.00000E+00 0.00000E+00 0.00000E+00 0.00000E+00 0.00000E+00 0.00000E+00 2.64678E-03 2.10359E-03 0.00000E+00
       14  1.48041E-03 3.92619E-04 0.00000E+00 0.00000E+00 0.00000E+00 0.00000E+00 0.00000E+00 0.00000E+00 0.00000E+00 2.98731E-03 1.06220E-03 0.00000E+00
       15  1.42586E-03 1.09037E-03 0.00000E+00 0.00000E+00 0.00000E+00 0.00000E+00 0.00000E+00 0.00000E+00 0.00000E+00 3.19336E-03 2.82667E-03 0.00000E+00
       16  1.85265E-03 5.54879E-04 0.00000E+00 0.00000E+00 0.00000E+00 0.00000E+00 0.00000E+00 0.00000E+00 0.00000E+00 4.04375E-03 1.47501E-03 0.00000E+00
       17  6.89500E-04 8.31906E-04 0.00000E+00 0.00000E+00 0.00000E+00 0.00000E+00 0.00000E+00 0.00000E+00 0.00000E+00 1.39648E-03 2.32021E-03 0.00000E+00
       18  8.29920E-04 1.39158E-03 0.00000E+00 0.00000E+00 0.00000E+00 0.00000E+00 0.00000E+00 0.00000E+00 0.00000E+00 1.78078E-03 3.55488E-03 0.00000E+00
       19  8.12925E-04 4.24381E-04 0.00000E+00 0.00000E+00 0.00000E+00 0.00000E+00 0.00000E+00 0.00000E+00 0.00000E+00 1.59538E-03 1.17817E-03 0.00000E+00
      179  3.75565E-07 2.46541E-07-1.29303E-03 0.00000E+00 0.00000E+00 0.00000E+00 0.00000E+00 0.00000E+00 0.00000E+00 4.49048E-03 4.49035E-03 2.41070E-02
      180  5.80854E-07-3.83422E-07-1.29303E-03 0.00000E+00 0.00000E+00 0.00000E+00 0.00000E+00 0.00000E+00 0.00000E+00 3.53358E-03 3.47032E-03 2.41070E-02
      181  1.30566E-06-7.93464E-07-1.29303E-03 0.00000E+00 0.00000E+00 0.00000E+00 0.00000E+00 0.00000E+00 0.00000E+00 4.38111E-03 1.83841E-03 2.41070E-02
      182  9.96077E-07-4.00940E-07-1.29303E-03 0.00000E+00 0.00000E+00 0.00000E+00 0.00000E+00 0.00000E+00 0.00000E+00 5.86770E-03 2.42940E-03 2.41070E-02
      247 -2.57780E-06 0.00000E+00-1.29303E-03 0.00000E+00 0.00000E+00 0.00000E+00 0.00000E+00 0.00000E+00 0.00000E+00 1.58492E-03 0.00000E+00 2.41070E-02
      248  2.31457E-07-2.20143E-06-1.29303E-03 0.00000E+00 0.00000E+00 0.00000E+00 0.00000E+00 0.00000E+00 0.00000E+00 1.56413E-03 1.50420E-03 2.41070E-02
      249  0.00000E+00-4.18532E-07-1.29303E-03 0.00000E+00 0.00000E+00 0.00000E+00 0.00000E+00 0.00000E+00 0.00000E+00 9.72100E-20 1.58708E-03 2.41070E-02
      250  0.00000E+00 0.00000E+00-1.29303E-03 0.00000E+00 0.00000E+00 0.00000E+00 0.00000E+00 0.00000E+00 0.00000E+00 0.00000E+00 0.00000E+00 2.41070E-02
      283 -2.80530E-06 0.00000E+00-1.29303E-03 0.00000E+00 0.00000E+00 0.00000E+00 0.00000E+00 0.00000E+00 0.00000E+00 3.17219E-03 0.00000E+00 2.41070E-02
      284  8.28637E-07-3.59242E-06-1.29303E-03 0.00000E+00 0.00000E+00 0.00000E+00 0.00000E+00 0.00000E+00 0.00000E+00 3.01263E-03 1.33451E-03 2.41070E-02
      333  3.84966E-07-5.44254E-07-1.29303E-03 0.00000E+00 0.00000E+00 0.00000E+00 0.00000E+00 0.00000E+00 0.00000E+00 1.41368E-03 2.97476E-03 2.41070E-02
      334  4.37938E-07-6.75448E-07-1.29303E-03 0.00000E+00 0.00000E+00 0.00000E+00 0.00000E+00 0.00000E+00 0.00000E+00 2.70314E-03 2.61482E-03 2.41070E-02
      335  4.44892E-07 3.22218E-07-1.29303E-03 0.00000E+00 0.00000E+00 0.00000E+00 0.00000E+00 0.00000E+00 0.00000E+00 1.90094E-03 4.32422E-03 2.41070E-02
      368  0.00000E+00 1.13856E-06-1.29303E-03 0.00000E+00 0.00000E+00 0.00000E+00 0.00000E+00 0.00000E+00 0.00000E+00 1.94400E-19 3.17614E-03 2.41070E-02
      369  0.00000E+00 7.87722E-07-1.29303E-03 0.00000E+00 0.00000E+00 0.00000E+00 0.00000E+00 0.00000E+00 0.00000E+00 2.91600E-19 4.76329E-03 2.41070E-02
      386 -1.36673E-06 0.00000E+00-1.29303E-03 0.00000E+00 0.00000E+00 0.00000E+00 0.00000E+00 0.00000E+00 0.00000E+00 4.76113E-03 0.00000E+00 2.41070E-02
      403 -1.72395E-06 0.00000E+00-1.29303E-03 0.00000E+00 0.00000E+00 0.00000E+00 0.00000E+00 0.00000E+00 0.00000E+00 6.34828E-03 0.00000E+00 2.41070E-02
      436  6.09658E-07 1.06176E-06-1.29303E-03 0.00000E+00 0.00000E+00 0.00000E+00 0.00000E+00 0.00000E+00 0.00000E+00 2.43041E-03 5.86776E-03 2.41070E-02
      437  0.00000E+00 6.55633E-07-1.29303E-03 0.00000E+00 0.00000E+00 0.00000E+00 0.00000E+00 0.00000E+00 0.00000E+00 3.88800E-19 6.35066E-03 2.41070E-02
      438 -1.09384E-06 0.00000E+00-1.29303E-03 0.00000E+00 0.00000E+00 0.00000E+00 0.00000E+00 0.00000E+00 0.00000E+00 7.25601E-03 0.00000E+00 2.41070E-02
      439 -6.30705E-07 0.00000E+00-1.29303E-03 0.00000E+00 0.00000E+00 0.00000E+00 0.00000E+00 0.00000E+00 0.00000E+00 8.16367E-03 0.00000E+00 2.41070E-02
      440 -3.23488E-07 0.00000E+00-1.29303E-03 0.00000E+00 0.00000E+00 0.00000E+00 0.00000E+00 0.00000E+00 0.00000E+00 9.07108E-03 0.00000E+00 2.41070E-02
      441 -1.82632E-07 0.00000E+00-1.29303E-03 0.00000E+00 0.00000E+00 0.00000E+00 0.00000E+00 0.00000E+00 0.00000E+00 9.97842E-03 0.00000E+00 2.41070E-02
      442 -9.94561E-08 0.00000E+00-1.29303E-03 0.00000E+00 0.00000E+00 0.00000E+00 0.00000E+00 0.00000E+00 0.00000E+00 1.08856E-02 0.00000E+00 2.41070E-02
      443 -1.10724E-07 0.00000E+00-1.29303E-03 0.00000E+00 0.00000E+00 0.00000E+00 0.00000E+00 0.00000E+00 0.00000E+00 1.17928E-02 0.00000E+00 2.41070E-02
      444 -1.79449E-07 0.00000E+00-1.29303E-03 0.00000E+00 0.00000E+00 0.00000E+00 0.00000E+00 0.00000E+00 0.00000E+00 1.26998E-02 0.00000E+00 2.41070E-02
      628  3.40535E-07-1.89902E-07-1.29303E-03 0.00000E+00 0.00000E+00 0.00000E+00 0.00000E+00 0.00000E+00 0.00000E+00 8.39724E-03 3.43221E-03 2.41070E-02
      631  4.19336E-07-2.60344E-07-1.29303E-03 0.00000E+00 0.00000E+00 0.00000E+00 0.00000E+00 0.00000E+00 0.00000E+00 7.55392E-03 3.09794E-03 2.41070E-02
      632  3.45624E-07 5.25677E-07-1.29303E-03 0.00000E+00 0.00000E+00 0.00000E+00 0.00000E+00 0.00000E+00 0.00000E+00 6.41845E-03 6.41143E-03 2.41070E-02
      635  3.51180E-07 4.81082E-07-1.29303E-03 0.00000E+00 0.00000E+00 0.00000E+00 0.00000E+00 0.00000E+00 0.00000E+00 5.77575E-03 5.77108E-03 2.41070E-02
      636  1.72165E-07 7.68118E-07-1.29303E-03 0.00000E+00 0.00000E+00 0.00000E+00 0.00000E+00 0.00000E+00 0.00000E+00 3.43937E-03 8.39497E-03 2.41070E-02
      639  2.63410E-07 8.32404E-07-1.29303E-03 0.00000E+00 0.00000E+00 0.00000E+00 0.00000E+00 0.00000E+00 0.00000E+00 3.10296E-03 7.55253E-03 2.41070E-02
      640  0.00000E+00 1.91194E-06-1.29303E-03 0.00000E+00 0.00000E+00 0.00000E+00 0.00000E+00 0.00000E+00 0.00000E+00 5.55500E-19 9.07331E-03 2.41070E-02
      643  0.00000E+00 1.70618E-06-1.29303E-03 0.00000E+00 0.00000E+00 0.00000E+00 0.00000E+00 0.00000E+00 0.00000E+00 4.99900E-19 8.16601E-03 2.41070E-02
      692  3.19276E-07-1.73653E-07-1.29303E-03 0.00000E+00 0.00000E+00 0.00000E+00 0.00000E+00 0.00000E+00 0.00000E+00 9.24062E-03 3.76643E-03 2.41070E-02
      694  4.08855E-07 5.55228E-07-1.29303E-03 0.00000E+00 0.00000E+00 0.00000E+00 0.00000E+00 0.00000E+00 0.00000E+00 7.06111E-03 7.05166E-03 2.41070E-02
      696  6.52199E-08 6.41668E-07-1.29303E-03 0.00000E+00 0.00000E+00 0.00000E+00 0.00000E+00 0.00000E+00 0.00000E+00 3.77577E-03 9.23724E-03 2.41070E-02
      698  0.00000E+00 2.15068E-06-1.29303E-03 0.00000E+00 0.00000E+00 0.00000E+00 0.00000E+00 0.00000E+00 0.00000E+00 6.11000E-19 9.98075E-03 2.41070E-02
      900  4.05882E-07-3.30881E-07-1.29303E-03 0.00000E+00 0.00000E+00 0.00000E+00 0.00000E+00 0.00000E+00 0.00000E+00 1.09275E-02 4.43467E-03 2.41070E-02
      902  3.14618E-07-2.30407E-07-1.29303E-03 0.00000E+00 0.00000E+00 0.00000E+00 0.00000E+00 0.00000E+00 0.00000E+00 1.00840E-02 4.10057E-03 2.41070E-02
      903  4.21494E-07 5.49313E-07-1.29303E-03 0.00000E+00 0.00000E+00 0.00000E+00 0.00000E+00 0.00000E+00 0.00000E+00 8.34652E-03 8.33215E-03 2.41070E-02
      905  5.20030E-07 6.42674E-07-1.29303E-03 0.00000E+00 0.00000E+00 0.00000E+00 0.00000E+00 0.00000E+00 0.00000E+00 7.70392E-03 7.69194E-03 2.41070E-02
      906  8.00409E-08 1.00434E-06-1.29303E-03 0.00000E+00 0.00000E+00 0.00000E+00 0.00000E+00 0.00000E+00 0.00000E+00 4.44878E-03 1.09225E-02 2.41070E-02
      908 -3.40462E-08 5.38729E-07-1.29303E-03 0.00000E+00 0.00000E+00 0.00000E+00 0.00000E+00 0.00000E+00 0.00000E+00 4.11217E-03 1.00796E-02 2.41070E-02
      909  0.00000E+00 1.38554E-06-1.29303E-03 0.00000E+00 0.00000E+00 0.00000E+00 0.00000E+00 0.00000E+00 0.00000E+00 7.22100E-19 1.17943E-02 2.41070E-02
      911  0.00000E+00 2.15431E-06-1.29303E-03 0.00000E+00 0.00000E+00 0.00000E+00 0.00000E+00 0.00000E+00 0.00000E+00 6.66600E-19 1.08879E-02 2.41070E-02
     1012  5.85054E-07-4.17781E-07-1.29303E-03 0.00000E+00 0.00000E+00 0.00000E+00 0.00000E+00 0.00000E+00 0.00000E+00 6.71069E-03 2.76358E-03 2.41070E-02
     1013  4.63846E-07 4.86624E-07-1.29303E-03 0.00000E+00 0.00000E+00 0.00000E+00 0.00000E+00 0.00000E+00 0.00000E+00 5.13326E-03 5.13089E-03 2.41070E-02
     1014  3.34040E-07 8.74931E-07-1.29303E-03 0.00000E+00 0.00000E+00 0.00000E+00 0.00000E+00 0.00000E+00 0.00000E+00 2.76653E-03 6.71007E-03 2.41070E-02
     1015  0.00000E+00 1.36931E-06-1.29303E-03 0.00000E+00 0.00000E+00 0.00000E+00 0.00000E+00 0.00000E+00 0.00000E+00 4.44400E-19 7.25847E-03 2.41070E-02
     1060  5.97262E-07-4.27636E-07-1.29303E-03 0.00000E+00 0.00000E+00 0.00000E+00 0.00000E+00 0.00000E+00 0.00000E+00 1.17711E-02 4.76877E-03 2.41070E-02
     1061  2.27229E-07 5.72602E-07-1.29303E-03 0.00000E+00 0.00000E+00 0.00000E+00 0.00000E+00 0.00000E+00 0.00000E+00 8.98893E-03 8.97237E-03 2.41070E-02
     1062  6.73703E-07 1.26989E-06-1.29303E-03 0.00000E+00 0.00000E+00 0.00000E+00 0.00000E+00 0.00000E+00 0.00000E+00 4.78587E-03 1.17653E-02 2.41070E-02
     1063  0.00000E+00-4.08431E-07-1.29303E-03 0.00000E+00 0.00000E+00 0.00000E+00 0.00000E+00 0.00000E+00 0.00000E+00 7.77700E-19 1.26996E-02 2.41070E-02
