 LS-DYNA keyword deck by LS-PrePost                                      
                    ls-dyna smp d R14 R14.1.1s_1_ef50e1 date 06/16/2024

 n o d a l   f o r c e/e n e r g y    o u t p u t  t=   0.00000E+00

 velocity boundary condition forces/rigid body moments 

 nd#    1393  xforce=   0.0000E+00   yforce=   0.0000E+00  zforce=   0.0000E+00   energy=   0.0000E+00   setid =    1393 xmoment=   0.0000E+00 ymoment=   0.0000E+00 zmoment=   0.0000E+00
 nd#    1394  xforce=   0.0000E+00   yforce=   0.0000E+00  zforce=   0.0000E+00   energy=   0.0000E+00   setid =    1394 xmoment=   0.0000E+00 ymoment=   0.0000E+00 zmoment=   0.0000E+00
 nd#    1395  xforce=   0.0000E+00   yforce=   0.0000E+00  zforce=   0.0000E+00   energy=   0.0000E+00   setid =    1395 xmoment=   0.0000E+00 ymoment=   0.0000E+00 zmoment=   0.0000E+00
 nd#    1396  xforce=   0.0000E+00   yforce=   0.0000E+00  zforce=   0.0000E+00   energy=   0.0000E+00   setid =    1396 xmoment=   0.0000E+00 ymoment=   0.0000E+00 zmoment=   0.0000E+00
 nd#    1508  xforce=   0.0000E+00   yforce=   0.0000E+00  zforce=   0.0000E+00   energy=   0.0000E+00   setid =    1508 xmoment=   0.0000E+00 ymoment=   0.0000E+00 zmoment=   0.0000E+00
 nd#    1509  xforce=   0.0000E+00   yforce=   0.0000E+00  zforce=   0.0000E+00   energy=   0.0000E+00   setid =    1509 xmoment=   0.0000E+00 ymoment=   0.0000E+00 zmoment=   0.0000E+00
 nd#    1510  xforce=   0.0000E+00   yforce=   0.0000E+00  zforce=   0.0000E+00   energy=   0.0000E+00   setid =    1510 xmoment=   0.0000E+00 ymoment=   0.0000E+00 zmoment=   0.0000E+00
 nd#    1659  xforce=   0.0000E+00   yforce=   0.0000E+00  zforce=   0.0000E+00   energy=   0.0000E+00   setid =    1659 xmoment=   0.0000E+00 ymoment=   0.0000E+00 zmoment=   0.0000E+00
 nd#    1660  xforce=   0.0000E+00   yforce=   0.0000E+00  zforce=   0.0000E+00   energy=   0.0000E+00   setid =    1660 xmoment=   0.0000E+00 ymoment=   0.0000E+00 zmoment=   0.0000E+00
 nd#    1661  xforce=   0.0000E+00   yforce=   0.0000E+00  zforce=   0.0000E+00   energy=   0.0000E+00   setid =    1661 xmoment=   0.0000E+00 ymoment=   0.0000E+00 zmoment=   0.0000E+00
 nd#    1662  xforce=   0.0000E+00   yforce=   0.0000E+00  zforce=   0.0000E+00   energy=   0.0000E+00   setid =    1662 xmoment=   0.0000E+00 ymoment=   0.0000E+00 zmoment=   0.0000E+00
 nd#    1737  xforce=   0.0000E+00   yforce=   0.0000E+00  zforce=   0.0000E+00   energy=   0.0000E+00   setid =    1737 xmoment=   0.0000E+00 ymoment=   0.0000E+00 zmoment=   0.0000E+00
 nd#    1738  xforce=   0.0000E+00   yforce=   0.0000E+00  zforce=   0.0000E+00   energy=   0.0000E+00   setid =    1738 xmoment=   0.0000E+00 ymoment=   0.0000E+00 zmoment=   0.0000E+00
 nd#    1887  xforce=   0.0000E+00   yforce=   0.0000E+00  zforce=   0.0000E+00   energy=   0.0000E+00   setid =    1887 xmoment=   0.0000E+00 ymoment=   0.0000E+00 zmoment=   0.0000E+00
 nd#    1888  xforce=   0.0000E+00   yforce=   0.0000E+00  zforce=   0.0000E+00   energy=   0.0000E+00   setid =    1888 xmoment=   0.0000E+00 ymoment=   0.0000E+00 zmoment=   0.0000E+00
 nd#    1889  xforce=   0.0000E+00   yforce=   0.0000E+00  zforce=   0.0000E+00   energy=   0.0000E+00   setid =    1889 xmoment=   0.0000E+00 ymoment=   0.0000E+00 zmoment=   0.0000E+00
 nd#    1890  xforce=   0.0000E+00   yforce=   0.0000E+00  zforce=   0.0000E+00   energy=   0.0000E+00   setid =    1890 xmoment=   0.0000E+00 ymoment=   0.0000E+00 zmoment=   0.0000E+00
 nd#    2039  xforce=   0.0000E+00   yforce=   0.0000E+00  zforce=   0.0000E+00   energy=   0.0000E+00   setid =    2039 xmoment=   0.0000E+00 ymoment=   0.0000E+00 zmoment=   0.0000E+00
 nd#    2040  xforce=   0.0000E+00   yforce=   0.0000E+00  zforce=   0.0000E+00   energy=   0.0000E+00   setid =    2040 xmoment=   0.0000E+00 ymoment=   0.0000E+00 zmoment=   0.0000E+00
 nd#    2041  xforce=   0.0000E+00   yforce=   0.0000E+00  zforce=   0.0000E+00   energy=   0.0000E+00   setid =    2041 xmoment=   0.0000E+00 ymoment=   0.0000E+00 zmoment=   0.0000E+00
 nd#    2042  xforce=   0.0000E+00   yforce=   0.0000E+00  zforce=   0.0000E+00   energy=   0.0000E+00   setid =    2042 xmoment=   0.0000E+00 ymoment=   0.0000E+00 zmoment=   0.0000E+00
 nd#    2117  xforce=   0.0000E+00   yforce=   0.0000E+00  zforce=   0.0000E+00   energy=   0.0000E+00   setid =    2117 xmoment=   0.0000E+00 ymoment=   0.0000E+00 zmoment=   0.0000E+00
 nd#    2118  xforce=   0.0000E+00   yforce=   0.0000E+00  zforce=   0.0000E+00   energy=   0.0000E+00   setid =    2118 xmoment=   0.0000E+00 ymoment=   0.0000E+00 zmoment=   0.0000E+00
 nd#    2267  xforce=   0.0000E+00   yforce=   0.0000E+00  zforce=   0.0000E+00   energy=   0.0000E+00   setid =    2267 xmoment=   0.0000E+00 ymoment=   0.0000E+00 zmoment=   0.0000E+00
 nd#    2268  xforce=   0.0000E+00   yforce=   0.0000E+00  zforce=   0.0000E+00   energy=   0.0000E+00   setid =    2268 xmoment=   0.0000E+00 ymoment=   0.0000E+00 zmoment=   0.0000E+00
 nd#    2269  xforce=   0.0000E+00   yforce=   0.0000E+00  zforce=   0.0000E+00   energy=   0.0000E+00   setid =    2269 xmoment=   0.0000E+00 ymoment=   0.0000E+00 zmoment=   0.0000E+00
 nd#    2270  xforce=   0.0000E+00   yforce=   0.0000E+00  zforce=   0.0000E+00   energy=   0.0000E+00   setid =    2270 xmoment=   0.0000E+00 ymoment=   0.0000E+00 zmoment=   0.0000E+00
 nd#    2419  xforce=   0.0000E+00   yforce=   0.0000E+00  zforce=   0.0000E+00   energy=   0.0000E+00   setid =    2419 xmoment=   0.0000E+00 ymoment=   0.0000E+00 zmoment=   0.0000E+00
 nd#    2420  xforce=   0.0000E+00   yforce=   0.0000E+00  zforce=   0.0000E+00   energy=   0.0000E+00   setid =    2420 xmoment=   0.0000E+00 ymoment=   0.0000E+00 zmoment=   0.0000E+00
 nd#    2421  xforce=   0.0000E+00   yforce=   0.0000E+00  zforce=   0.0000E+00   energy=   0.0000E+00   setid =    2421 xmoment=   0.0000E+00 ymoment=   0.0000E+00 zmoment=   0.0000E+00
 nd#    2422  xforce=   0.0000E+00   yforce=   0.0000E+00  zforce=   0.0000E+00   energy=   0.0000E+00   setid =    2422 xmoment=   0.0000E+00 ymoment=   0.0000E+00 zmoment=   0.0000E+00
 nd#    2497  xforce=   0.0000E+00   yforce=   0.0000E+00  zforce=   0.0000E+00   energy=   0.0000E+00   setid =    2497 xmoment=   0.0000E+00 ymoment=   0.0000E+00 zmoment=   0.0000E+00
 nd#    2498  xforce=   0.0000E+00   yforce=   0.0000E+00  zforce=   0.0000E+00   energy=   0.0000E+00   setid =    2498 xmoment=   0.0000E+00 ymoment=   0.0000E+00 zmoment=   0.0000E+00
 nd#    2573  xforce=   0.0000E+00   yforce=   0.0000E+00  zforce=   0.0000E+00   energy=   0.0000E+00   setid =    2573 xmoment=   0.0000E+00 ymoment=   0.0000E+00 zmoment=   0.0000E+00
 nd#    2574  xforce=   0.0000E+00   yforce=   0.0000E+00  zforce=   0.0000E+00   energy=   0.0000E+00   setid =    2574 xmoment=   0.0000E+00 ymoment=   0.0000E+00 zmoment=   0.0000E+00
 nd#    2649  xforce=   0.0000E+00   yforce=   0.0000E+00  zforce=   0.0000E+00   energy=   0.0000E+00   setid =    2649 xmoment=   0.0000E+00 ymoment=   0.0000E+00 zmoment=   0.0000E+00
 nd#    2650  xforce=   0.0000E+00   yforce=   0.0000E+00  zforce=   0.0000E+00   energy=   0.0000E+00   setid =    2650 xmoment=   0.0000E+00 ymoment=   0.0000E+00 zmoment=   0.0000E+00
 nd#    2725  xforce=   0.0000E+00   yforce=   0.0000E+00  zforce=   0.0000E+00   energy=   0.0000E+00   setid =    2725 xmoment=   0.0000E+00 ymoment=   0.0000E+00 zmoment=   0.0000E+00
 nd#    2726  xforce=   0.0000E+00   yforce=   0.0000E+00  zforce=   0.0000E+00   energy=   0.0000E+00   setid =    2726 xmoment=   0.0000E+00 ymoment=   0.0000E+00 zmoment=   0.0000E+00
 nd#    2801  xforce=   0.0000E+00   yforce=   0.0000E+00  zforce=   0.0000E+00   energy=   0.0000E+00   setid =    2801 xmoment=   0.0000E+00 ymoment=   0.0000E+00 zmoment=   0.0000E+00
 nd#    2802  xforce=   0.0000E+00   yforce=   0.0000E+00  zforce=   0.0000E+00   energy=   0.0000E+00   setid =    2802 xmoment=   0.0000E+00 ymoment=   0.0000E+00 zmoment=   0.0000E+00
 nd#    2840  xforce=   0.0000E+00   yforce=   0.0000E+00  zforce=   0.0000E+00   energy=   0.0000E+00   setid =    2840 xmoment=   0.0000E+00 ymoment=   0.0000E+00 zmoment=   0.0000E+00
 nd#    2915  xforce=   0.0000E+00   yforce=   0.0000E+00  zforce=   0.0000E+00   energy=   0.0000E+00   setid =    2915 xmoment=   0.0000E+00 ymoment=   0.0000E+00 zmoment=   0.0000E+00
 nd#    2916  xforce=   0.0000E+00   yforce=   0.0000E+00  zforce=   0.0000E+00   energy=   0.0000E+00   setid =    2916 xmoment=   0.0000E+00 ymoment=   0.0000E+00 zmoment=   0.0000E+00
 nd#    2991  xforce=   0.0000E+00   yforce=   0.0000E+00  zforce=   0.0000E+00   energy=   0.0000E+00   setid =    2991 xmoment=   0.0000E+00 ymoment=   0.0000E+00 zmoment=   0.0000E+00
 nd#    2992  xforce=   0.0000E+00   yforce=   0.0000E+00  zforce=   0.0000E+00   energy=   0.0000E+00   setid =    2992 xmoment=   0.0000E+00 ymoment=   0.0000E+00 zmoment=   0.0000E+00
 nd#    3067  xforce=   0.0000E+00   yforce=   0.0000E+00  zforce=   0.0000E+00   energy=   0.0000E+00   setid =    3067 xmoment=   0.0000E+00 ymoment=   0.0000E+00 zmoment=   0.0000E+00
 nd#    3068  xforce=   0.0000E+00   yforce=   0.0000E+00  zforce=   0.0000E+00   energy=   0.0000E+00   setid =    3068 xmoment=   0.0000E+00 ymoment=   0.0000E+00 zmoment=   0.0000E+00
 nd#    3143  xforce=   0.0000E+00   yforce=   0.0000E+00  zforce=   0.0000E+00   energy=   0.0000E+00   setid =    3143 xmoment=   0.0000E+00 ymoment=   0.0000E+00 zmoment=   0.0000E+00
 nd#    3144  xforce=   0.0000E+00   yforce=   0.0000E+00  zforce=   0.0000E+00   energy=   0.0000E+00   setid =    3144 xmoment=   0.0000E+00 ymoment=   0.0000E+00 zmoment=   0.0000E+00
 nd#    3182  xforce=   0.0000E+00   yforce=   0.0000E+00  zforce=   0.0000E+00   energy=   0.0000E+00   setid =    3182 xmoment=   0.0000E+00 ymoment=   0.0000E+00 zmoment=   0.0000E+00
 nd#    3220  xforce=   0.0000E+00   yforce=   0.0000E+00  zforce=   0.0000E+00   energy=   0.0000E+00   setid =    3220 xmoment=   0.0000E+00 ymoment=   0.0000E+00 zmoment=   0.0000E+00
 nd#    3258  xforce=   0.0000E+00   yforce=   0.0000E+00  zforce=   0.0000E+00   energy=   0.0000E+00   setid =    3258 xmoment=   0.0000E+00 ymoment=   0.0000E+00 zmoment=   0.0000E+00
 nd#    3333  xforce=   0.0000E+00   yforce=   0.0000E+00  zforce=   0.0000E+00   energy=   0.0000E+00   setid =    3333 xmoment=   0.0000E+00 ymoment=   0.0000E+00 zmoment=   0.0000E+00
 nd#    3334  xforce=   0.0000E+00   yforce=   0.0000E+00  zforce=   0.0000E+00   energy=   0.0000E+00   setid =    3334 xmoment=   0.0000E+00 ymoment=   0.0000E+00 zmoment=   0.0000E+00
 nd#    3372  xforce=   0.0000E+00   yforce=   0.0000E+00  zforce=   0.0000E+00   energy=   0.0000E+00   setid =    3372 xmoment=   0.0000E+00 ymoment=   0.0000E+00 zmoment=   0.0000E+00
 nd#    3410  xforce=   0.0000E+00   yforce=   0.0000E+00  zforce=   0.0000E+00   energy=   0.0000E+00   setid =    3410 xmoment=   0.0000E+00 ymoment=   0.0000E+00 zmoment=   0.0000E+00
 nd#    3448  xforce=   0.0000E+00   yforce=   0.0000E+00  zforce=   0.0000E+00   energy=   0.0000E+00   setid =    3448 xmoment=   0.0000E+00 ymoment=   0.0000E+00 zmoment=   0.0000E+00
 nd#    3486  xforce=   0.0000E+00   yforce=   0.0000E+00  zforce=   0.0000E+00   energy=   0.0000E+00   setid =    3486 xmoment=   0.0000E+00 ymoment=   0.0000E+00 zmoment=   0.0000E+00
 nd#    3524  xforce=   0.0000E+00   yforce=   0.0000E+00  zforce=   0.0000E+00   energy=   0.0000E+00   setid =    3524 xmoment=   0.0000E+00 ymoment=   0.0000E+00 zmoment=   0.0000E+00
 nd#    3562  xforce=   0.0000E+00   yforce=   0.0000E+00  zforce=   0.0000E+00   energy=   0.0000E+00   setid =    3562 xmoment=   0.0000E+00 ymoment=   0.0000E+00 zmoment=   0.0000E+00
 nd#    3613  xforce=   0.0000E+00   yforce=   0.0000E+00  zforce=   0.0000E+00   energy=   0.0000E+00   setid =    3613 xmoment=   0.0000E+00 ymoment=   0.0000E+00 zmoment=   0.0000E+00
 nd#    3614  xforce=   0.0000E+00   yforce=   0.0000E+00  zforce=   0.0000E+00   energy=   0.0000E+00   setid =    3614 xmoment=   0.0000E+00 ymoment=   0.0000E+00 zmoment=   0.0000E+00
 nd#    3615  xforce=   0.0000E+00   yforce=   0.0000E+00  zforce=   0.0000E+00   energy=   0.0000E+00   setid =    3615 xmoment=   0.0000E+00 ymoment=   0.0000E+00 zmoment=   0.0000E+00
 nd#    3616  xforce=   0.0000E+00   yforce=   0.0000E+00  zforce=   0.0000E+00   energy=   0.0000E+00   setid =    3616 xmoment=   0.0000E+00 ymoment=   0.0000E+00 zmoment=   0.0000E+00
 nd#    3617  xforce=   0.0000E+00   yforce=   0.0000E+00  zforce=   0.0000E+00   energy=   0.0000E+00   setid =    3617 xmoment=   0.0000E+00 ymoment=   0.0000E+00 zmoment=   0.0000E+00
 nd#    3618  xforce=   0.0000E+00   yforce=   0.0000E+00  zforce=   0.0000E+00   energy=   0.0000E+00   setid =    3618 xmoment=   0.0000E+00 ymoment=   0.0000E+00 zmoment=   0.0000E+00
 nd#    3619  xforce=   0.0000E+00   yforce=   0.0000E+00  zforce=   0.0000E+00   energy=   0.0000E+00   setid =    3619 xmoment=   0.0000E+00 ymoment=   0.0000E+00 zmoment=   0.0000E+00
 nd#    3620  xforce=   0.0000E+00   yforce=   0.0000E+00  zforce=   0.0000E+00   energy=   0.0000E+00   setid =    3620 xmoment=   0.0000E+00 ymoment=   0.0000E+00 zmoment=   0.0000E+00
 nd#    3621  xforce=   0.0000E+00   yforce=   0.0000E+00  zforce=   0.0000E+00   energy=   0.0000E+00   setid =    3621 xmoment=   0.0000E+00 ymoment=   0.0000E+00 zmoment=   0.0000E+00
 nd#    3622  xforce=   0.0000E+00   yforce=   0.0000E+00  zforce=   0.0000E+00   energy=   0.0000E+00   setid =    3622 xmoment=   0.0000E+00 ymoment=   0.0000E+00 zmoment=   0.0000E+00
 nd#    3623  xforce=   0.0000E+00   yforce=   0.0000E+00  zforce=   0.0000E+00   energy=   0.0000E+00   setid =    3623 xmoment=   0.0000E+00 ymoment=   0.0000E+00 zmoment=   0.0000E+00
 nd#    3624  xforce=   0.0000E+00   yforce=   0.0000E+00  zforce=   0.0000E+00   energy=   0.0000E+00   setid =    3624 xmoment=   0.0000E+00 ymoment=   0.0000E+00 zmoment=   0.0000E+00
 nd#    3625  xforce=   0.0000E+00   yforce=   0.0000E+00  zforce=   0.0000E+00   energy=   0.0000E+00   setid =    3625 xmoment=   0.0000E+00 ymoment=   0.0000E+00 zmoment=   0.0000E+00
 nd#    4590  xforce=   0.0000E+00   yforce=   0.0000E+00  zforce=   0.0000E+00   energy=   0.0000E+00   setid =    4590 xmoment=   0.0000E+00 ymoment=   0.0000E+00 zmoment=   0.0000E+00
 nd#    4591  xforce=   0.0000E+00   yforce=   0.0000E+00  zforce=   0.0000E+00   energy=   0.0000E+00   setid =    4591 xmoment=   0.0000E+00 ymoment=   0.0000E+00 zmoment=   0.0000E+00
 nd#    4594  xforce=   0.0000E+00   yforce=   0.0000E+00  zforce=   0.0000E+00   energy=   0.0000E+00   setid =    4594 xmoment=   0.0000E+00 ymoment=   0.0000E+00 zmoment=   0.0000E+00
 nd#    4595  xforce=   0.0000E+00   yforce=   0.0000E+00  zforce=   0.0000E+00   energy=   0.0000E+00   setid =    4595 xmoment=   0.0000E+00 ymoment=   0.0000E+00 zmoment=   0.0000E+00
 nd#    4598  xforce=   0.0000E+00   yforce=   0.0000E+00  zforce=   0.0000E+00   energy=   0.0000E+00   setid =    4598 xmoment=   0.0000E+00 ymoment=   0.0000E+00 zmoment=   0.0000E+00
 nd#    4599  xforce=   0.0000E+00   yforce=   0.0000E+00  zforce=   0.0000E+00   energy=   0.0000E+00   setid =    4599 xmoment=   0.0000E+00 ymoment=   0.0000E+00 zmoment=   0.0000E+00
 nd#    4602  xforce=   0.0000E+00   yforce=   0.0000E+00  zforce=   0.0000E+00   energy=   0.0000E+00   setid =    4602 xmoment=   0.0000E+00 ymoment=   0.0000E+00 zmoment=   0.0000E+00
 nd#    4603  xforce=   0.0000E+00   yforce=   0.0000E+00  zforce=   0.0000E+00   energy=   0.0000E+00   setid =    4603 xmoment=   0.0000E+00 ymoment=   0.0000E+00 zmoment=   0.0000E+00
 nd#    4606  xforce=   0.0000E+00   yforce=   0.0000E+00  zforce=   0.0000E+00   energy=   0.0000E+00   setid =    4606 xmoment=   0.0000E+00 ymoment=   0.0000E+00 zmoment=   0.0000E+00
 nd#    4607  xforce=   0.0000E+00   yforce=   0.0000E+00  zforce=   0.0000E+00   energy=   0.0000E+00   setid =    4607 xmoment=   0.0000E+00 ymoment=   0.0000E+00 zmoment=   0.0000E+00
 nd#    4610  xforce=   0.0000E+00   yforce=   0.0000E+00  zforce=   0.0000E+00   energy=   0.0000E+00   setid =    4610 xmoment=   0.0000E+00 ymoment=   0.0000E+00 zmoment=   0.0000E+00
 nd#    4611  xforce=   0.0000E+00   yforce=   0.0000E+00  zforce=   0.0000E+00   energy=   0.0000E+00   setid =    4611 xmoment=   0.0000E+00 ymoment=   0.0000E+00 zmoment=   0.0000E+00
 nd#    4614  xforce=   0.0000E+00   yforce=   0.0000E+00  zforce=   0.0000E+00   energy=   0.0000E+00   setid =    4614 xmoment=   0.0000E+00 ymoment=   0.0000E+00 zmoment=   0.0000E+00
 nd#    4615  xforce=   0.0000E+00   yforce=   0.0000E+00  zforce=   0.0000E+00   energy=   0.0000E+00   setid =    4615 xmoment=   0.0000E+00 ymoment=   0.0000E+00 zmoment=   0.0000E+00
 nd#    4618  xforce=   0.0000E+00   yforce=   0.0000E+00  zforce=   0.0000E+00   energy=   0.0000E+00   setid =    4618 xmoment=   0.0000E+00 ymoment=   0.0000E+00 zmoment=   0.0000E+00
 nd#    4619  xforce=   0.0000E+00   yforce=   0.0000E+00  zforce=   0.0000E+00   energy=   0.0000E+00   setid =    4619 xmoment=   0.0000E+00 ymoment=   0.0000E+00 zmoment=   0.0000E+00
 nd#    4622  xforce=   0.0000E+00   yforce=   0.0000E+00  zforce=   0.0000E+00   energy=   0.0000E+00   setid =    4622 xmoment=   0.0000E+00 ymoment=   0.0000E+00 zmoment=   0.0000E+00
 nd#    4623  xforce=   0.0000E+00   yforce=   0.0000E+00  zforce=   0.0000E+00   energy=   0.0000E+00   setid =    4623 xmoment=   0.0000E+00 ymoment=   0.0000E+00 zmoment=   0.0000E+00
 nd#    4626  xforce=   0.0000E+00   yforce=   0.0000E+00  zforce=   0.0000E+00   energy=   0.0000E+00   setid =    4626 xmoment=   0.0000E+00 ymoment=   0.0000E+00 zmoment=   0.0000E+00
 nd#    4627  xforce=   0.0000E+00   yforce=   0.0000E+00  zforce=   0.0000E+00   energy=   0.0000E+00   setid =    4627 xmoment=   0.0000E+00 ymoment=   0.0000E+00 zmoment=   0.0000E+00
 nd#    4630  xforce=   0.0000E+00   yforce=   0.0000E+00  zforce=   0.0000E+00   energy=   0.0000E+00   setid =    4630 xmoment=   0.0000E+00 ymoment=   0.0000E+00 zmoment=   0.0000E+00
 nd#    4631  xforce=   0.0000E+00   yforce=   0.0000E+00  zforce=   0.0000E+00   energy=   0.0000E+00   setid =    4631 xmoment=   0.0000E+00 ymoment=   0.0000E+00 zmoment=   0.0000E+00
 nd#    4634  xforce=   0.0000E+00   yforce=   0.0000E+00  zforce=   0.0000E+00   energy=   0.0000E+00   setid =    4634 xmoment=   0.0000E+00 ymoment=   0.0000E+00 zmoment=   0.0000E+00
 nd#    4635  xforce=   0.0000E+00   yforce=   0.0000E+00  zforce=   0.0000E+00   energy=   0.0000E+00   setid =    4635 xmoment=   0.0000E+00 ymoment=   0.0000E+00 zmoment=   0.0000E+00
 nd#    4638  xforce=   0.0000E+00   yforce=   0.0000E+00  zforce=   0.0000E+00   energy=   0.0000E+00   setid =    4638 xmoment=   0.0000E+00 ymoment=   0.0000E+00 zmoment=   0.0000E+00
 nd#    4639  xforce=   0.0000E+00   yforce=   0.0000E+00  zforce=   0.0000E+00   energy=   0.0000E+00   setid =    4639 xmoment=   0.0000E+00 ymoment=   0.0000E+00 zmoment=   0.0000E+00
 nd#    4642  xforce=   0.0000E+00   yforce=   0.0000E+00  zforce=   0.0000E+00   energy=   0.0000E+00   setid =    4642 xmoment=   0.0000E+00 ymoment=   0.0000E+00 zmoment=   0.0000E+00
 nd#    4643  xforce=   0.0000E+00   yforce=   0.0000E+00  zforce=   0.0000E+00   energy=   0.0000E+00   setid =    4643 xmoment=   0.0000E+00 ymoment=   0.0000E+00 zmoment=   0.0000E+00
 nd#    4646  xforce=   0.0000E+00   yforce=   0.0000E+00  zforce=   0.0000E+00   energy=   0.0000E+00   setid =    4646 xmoment=   0.0000E+00 ymoment=   0.0000E+00 zmoment=   0.0000E+00
 nd#    4647  xforce=   0.0000E+00   yforce=   0.0000E+00  zforce=   0.0000E+00   energy=   0.0000E+00   setid =    4647 xmoment=   0.0000E+00 ymoment=   0.0000E+00 zmoment=   0.0000E+00
 nd#    4650  xforce=   0.0000E+00   yforce=   0.0000E+00  zforce=   0.0000E+00   energy=   0.0000E+00   setid =    4650 xmoment=   0.0000E+00 ymoment=   0.0000E+00 zmoment=   0.0000E+00
 nd#    4651  xforce=   0.0000E+00   yforce=   0.0000E+00  zforce=   0.0000E+00   energy=   0.0000E+00   setid =    4651 xmoment=   0.0000E+00 ymoment=   0.0000E+00 zmoment=   0.0000E+00
 nd#    4838  xforce=   0.0000E+00   yforce=   0.0000E+00  zforce=   0.0000E+00   energy=   0.0000E+00   setid =    4838 xmoment=   0.0000E+00 ymoment=   0.0000E+00 zmoment=   0.0000E+00
 nd#    4839  xforce=   0.0000E+00   yforce=   0.0000E+00  zforce=   0.0000E+00   energy=   0.0000E+00   setid =    4839 xmoment=   0.0000E+00 ymoment=   0.0000E+00 zmoment=   0.0000E+00
 nd#    4842  xforce=   0.0000E+00   yforce=   0.0000E+00  zforce=   0.0000E+00   energy=   0.0000E+00   setid =    4842 xmoment=   0.0000E+00 ymoment=   0.0000E+00 zmoment=   0.0000E+00
 nd#    4843  xforce=   0.0000E+00   yforce=   0.0000E+00  zforce=   0.0000E+00   energy=   0.0000E+00   setid =    4843 xmoment=   0.0000E+00 ymoment=   0.0000E+00 zmoment=   0.0000E+00
 nd#    4846  xforce=   0.0000E+00   yforce=   0.0000E+00  zforce=   0.0000E+00   energy=   0.0000E+00   setid =    4846 xmoment=   0.0000E+00 ymoment=   0.0000E+00 zmoment=   0.0000E+00
 nd#    4847  xforce=   0.0000E+00   yforce=   0.0000E+00  zforce=   0.0000E+00   energy=   0.0000E+00   setid =    4847 xmoment=   0.0000E+00 ymoment=   0.0000E+00 zmoment=   0.0000E+00
 nd#    4850  xforce=   0.0000E+00   yforce=   0.0000E+00  zforce=   0.0000E+00   energy=   0.0000E+00   setid =    4850 xmoment=   0.0000E+00 ymoment=   0.0000E+00 zmoment=   0.0000E+00
 nd#    4851  xforce=   0.0000E+00   yforce=   0.0000E+00  zforce=   0.0000E+00   energy=   0.0000E+00   setid =    4851 xmoment=   0.0000E+00 ymoment=   0.0000E+00 zmoment=   0.0000E+00
 nd#    4854  xforce=   0.0000E+00   yforce=   0.0000E+00  zforce=   0.0000E+00   energy=   0.0000E+00   setid =    4854 xmoment=   0.0000E+00 ymoment=   0.0000E+00 zmoment=   0.0000E+00
 nd#    4855  xforce=   0.0000E+00   yforce=   0.0000E+00  zforce=   0.0000E+00   energy=   0.0000E+00   setid =    4855 xmoment=   0.0000E+00 ymoment=   0.0000E+00 zmoment=   0.0000E+00
 nd#    4858  xforce=   0.0000E+00   yforce=   0.0000E+00  zforce=   0.0000E+00   energy=   0.0000E+00   setid =    4858 xmoment=   0.0000E+00 ymoment=   0.0000E+00 zmoment=   0.0000E+00
 nd#    4859  xforce=   0.0000E+00   yforce=   0.0000E+00  zforce=   0.0000E+00   energy=   0.0000E+00   setid =    4859 xmoment=   0.0000E+00 ymoment=   0.0000E+00 zmoment=   0.0000E+00
 nd#    4862  xforce=   0.0000E+00   yforce=   0.0000E+00  zforce=   0.0000E+00   energy=   0.0000E+00   setid =    4862 xmoment=   0.0000E+00 ymoment=   0.0000E+00 zmoment=   0.0000E+00
 nd#    4863  xforce=   0.0000E+00   yforce=   0.0000E+00  zforce=   0.0000E+00   energy=   0.0000E+00   setid =    4863 xmoment=   0.0000E+00 ymoment=   0.0000E+00 zmoment=   0.0000E+00
 nd#    4866  xforce=   0.0000E+00   yforce=   0.0000E+00  zforce=   0.0000E+00   energy=   0.0000E+00   setid =    4866 xmoment=   0.0000E+00 ymoment=   0.0000E+00 zmoment=   0.0000E+00
 nd#    4867  xforce=   0.0000E+00   yforce=   0.0000E+00  zforce=   0.0000E+00   energy=   0.0000E+00   setid =    4867 xmoment=   0.0000E+00 ymoment=   0.0000E+00 zmoment=   0.0000E+00
 nd#    6646  xforce=   0.0000E+00   yforce=   0.0000E+00  zforce=   0.0000E+00   energy=   0.0000E+00   setid =    6646 xmoment=   0.0000E+00 ymoment=   0.0000E+00 zmoment=   0.0000E+00
 nd#    6647  xforce=   0.0000E+00   yforce=   0.0000E+00  zforce=   0.0000E+00   energy=   0.0000E+00   setid =    6647 xmoment=   0.0000E+00 ymoment=   0.0000E+00 zmoment=   0.0000E+00
 nd#    6648  xforce=   0.0000E+00   yforce=   0.0000E+00  zforce=   0.0000E+00   energy=   0.0000E+00   setid =    6648 xmoment=   0.0000E+00 ymoment=   0.0000E+00 zmoment=   0.0000E+00
 nd#    6649  xforce=   0.0000E+00   yforce=   0.0000E+00  zforce=   0.0000E+00   energy=   0.0000E+00   setid =    6649 xmoment=   0.0000E+00 ymoment=   0.0000E+00 zmoment=   0.0000E+00
 nd#    6650  xforce=   0.0000E+00   yforce=   0.0000E+00  zforce=   0.0000E+00   energy=   0.0000E+00   setid =    6650 xmoment=   0.0000E+00 ymoment=   0.0000E+00 zmoment=   0.0000E+00
 nd#    6651  xforce=   0.0000E+00   yforce=   0.0000E+00  zforce=   0.0000E+00   energy=   0.0000E+00   setid =    6651 xmoment=   0.0000E+00 ymoment=   0.0000E+00 zmoment=   0.0000E+00
 nd#    6652  xforce=   0.0000E+00   yforce=   0.0000E+00  zforce=   0.0000E+00   energy=   0.0000E+00   setid =    6652 xmoment=   0.0000E+00 ymoment=   0.0000E+00 zmoment=   0.0000E+00
 nd#    6653  xforce=   0.0000E+00   yforce=   0.0000E+00  zforce=   0.0000E+00   energy=   0.0000E+00   setid =    6653 xmoment=   0.0000E+00 ymoment=   0.0000E+00 zmoment=   0.0000E+00
 nd#    6838  xforce=   0.0000E+00   yforce=   0.0000E+00  zforce=   0.0000E+00   energy=   0.0000E+00   setid =    6838 xmoment=   0.0000E+00 ymoment=   0.0000E+00 zmoment=   0.0000E+00
 nd#    6839  xforce=   0.0000E+00   yforce=   0.0000E+00  zforce=   0.0000E+00   energy=   0.0000E+00   setid =    6839 xmoment=   0.0000E+00 ymoment=   0.0000E+00 zmoment=   0.0000E+00
 nd#    6841  xforce=   0.0000E+00   yforce=   0.0000E+00  zforce=   0.0000E+00   energy=   0.0000E+00   setid =    6841 xmoment=   0.0000E+00 ymoment=   0.0000E+00 zmoment=   0.0000E+00
 nd#    6842  xforce=   0.0000E+00   yforce=   0.0000E+00  zforce=   0.0000E+00   energy=   0.0000E+00   setid =    6842 xmoment=   0.0000E+00 ymoment=   0.0000E+00 zmoment=   0.0000E+00
 nd#    6844  xforce=   0.0000E+00   yforce=   0.0000E+00  zforce=   0.0000E+00   energy=   0.0000E+00   setid =    6844 xmoment=   0.0000E+00 ymoment=   0.0000E+00 zmoment=   0.0000E+00
 nd#    6845  xforce=   0.0000E+00   yforce=   0.0000E+00  zforce=   0.0000E+00   energy=   0.0000E+00   setid =    6845 xmoment=   0.0000E+00 ymoment=   0.0000E+00 zmoment=   0.0000E+00
 nd#    6847  xforce=   0.0000E+00   yforce=   0.0000E+00  zforce=   0.0000E+00   energy=   0.0000E+00   setid =    6847 xmoment=   0.0000E+00 ymoment=   0.0000E+00 zmoment=   0.0000E+00
 nd#    6848  xforce=   0.0000E+00   yforce=   0.0000E+00  zforce=   0.0000E+00   energy=   0.0000E+00   setid =    6848 xmoment=   0.0000E+00 ymoment=   0.0000E+00 zmoment=   0.0000E+00
 nd#    6850  xforce=   0.0000E+00   yforce=   0.0000E+00  zforce=   0.0000E+00   energy=   0.0000E+00   setid =    6850 xmoment=   0.0000E+00 ymoment=   0.0000E+00 zmoment=   0.0000E+00
 nd#    6851  xforce=   0.0000E+00   yforce=   0.0000E+00  zforce=   0.0000E+00   energy=   0.0000E+00   setid =    6851 xmoment=   0.0000E+00 ymoment=   0.0000E+00 zmoment=   0.0000E+00
 nd#    6853  xforce=   0.0000E+00   yforce=   0.0000E+00  zforce=   0.0000E+00   energy=   0.0000E+00   setid =    6853 xmoment=   0.0000E+00 ymoment=   0.0000E+00 zmoment=   0.0000E+00
 nd#    6854  xforce=   0.0000E+00   yforce=   0.0000E+00  zforce=   0.0000E+00   energy=   0.0000E+00   setid =    6854 xmoment=   0.0000E+00 ymoment=   0.0000E+00 zmoment=   0.0000E+00
 nd#    6856  xforce=   0.0000E+00   yforce=   0.0000E+00  zforce=   0.0000E+00   energy=   0.0000E+00   setid =    6856 xmoment=   0.0000E+00 ymoment=   0.0000E+00 zmoment=   0.0000E+00
 nd#    6857  xforce=   0.0000E+00   yforce=   0.0000E+00  zforce=   0.0000E+00   energy=   0.0000E+00   setid =    6857 xmoment=   0.0000E+00 ymoment=   0.0000E+00 zmoment=   0.0000E+00
 nd#    6859  xforce=   0.0000E+00   yforce=   0.0000E+00  zforce=   0.0000E+00   energy=   0.0000E+00   setid =    6859 xmoment=   0.0000E+00 ymoment=   0.0000E+00 zmoment=   0.0000E+00
 nd#    6860  xforce=   0.0000E+00   yforce=   0.0000E+00  zforce=   0.0000E+00   energy=   0.0000E+00   setid =    6860 xmoment=   0.0000E+00 ymoment=   0.0000E+00 zmoment=   0.0000E+00
 nd#    6894  xforce=   0.0000E+00   yforce=   0.0000E+00  zforce=   0.0000E+00   energy=   0.0000E+00   setid =    6894 xmoment=   0.0000E+00 ymoment=   0.0000E+00 zmoment=   0.0000E+00
 nd#    6895  xforce=   0.0000E+00   yforce=   0.0000E+00  zforce=   0.0000E+00   energy=   0.0000E+00   setid =    6895 xmoment=   0.0000E+00 ymoment=   0.0000E+00 zmoment=   0.0000E+00
 nd#    6896  xforce=   0.0000E+00   yforce=   0.0000E+00  zforce=   0.0000E+00   energy=   0.0000E+00   setid =    6896 xmoment=   0.0000E+00 ymoment=   0.0000E+00 zmoment=   0.0000E+00
 nd#    6897  xforce=   0.0000E+00   yforce=   0.0000E+00  zforce=   0.0000E+00   energy=   0.0000E+00   setid =    6897 xmoment=   0.0000E+00 ymoment=   0.0000E+00 zmoment=   0.0000E+00
 nd#    6898  xforce=   0.0000E+00   yforce=   0.0000E+00  zforce=   0.0000E+00   energy=   0.0000E+00   setid =    6898 xmoment=   0.0000E+00 ymoment=   0.0000E+00 zmoment=   0.0000E+00
 nd#    6899  xforce=   0.0000E+00   yforce=   0.0000E+00  zforce=   0.0000E+00   energy=   0.0000E+00   setid =    6899 xmoment=   0.0000E+00 ymoment=   0.0000E+00 zmoment=   0.0000E+00
 nd#    6900  xforce=   0.0000E+00   yforce=   0.0000E+00  zforce=   0.0000E+00   energy=   0.0000E+00   setid =    6900 xmoment=   0.0000E+00 ymoment=   0.0000E+00 zmoment=   0.0000E+00
 nd#    6901  xforce=   0.0000E+00   yforce=   0.0000E+00  zforce=   0.0000E+00   energy=   0.0000E+00   setid =    6901 xmoment=   0.0000E+00 ymoment=   0.0000E+00 zmoment=   0.0000E+00
 nd#    6990  xforce=   0.0000E+00   yforce=   0.0000E+00  zforce=   0.0000E+00   energy=   0.0000E+00   setid =    6990 xmoment=   0.0000E+00 ymoment=   0.0000E+00 zmoment=   0.0000E+00
 nd#    6991  xforce=   0.0000E+00   yforce=   0.0000E+00  zforce=   0.0000E+00   energy=   0.0000E+00   setid =    6991 xmoment=   0.0000E+00 ymoment=   0.0000E+00 zmoment=   0.0000E+00
 nd#    6992  xforce=   0.0000E+00   yforce=   0.0000E+00  zforce=   0.0000E+00   energy=   0.0000E+00   setid =    6992 xmoment=   0.0000E+00 ymoment=   0.0000E+00 zmoment=   0.0000E+00
 nd#    6993  xforce=   0.0000E+00   yforce=   0.0000E+00  zforce=   0.0000E+00   energy=   0.0000E+00   setid =    6993 xmoment=   0.0000E+00 ymoment=   0.0000E+00 zmoment=   0.0000E+00
 nd#    6994  xforce=   0.0000E+00   yforce=   0.0000E+00  zforce=   0.0000E+00   energy=   0.0000E+00   setid =    6994 xmoment=   0.0000E+00 ymoment=   0.0000E+00 zmoment=   0.0000E+00
 nd#    6995  xforce=   0.0000E+00   yforce=   0.0000E+00  zforce=   0.0000E+00   energy=   0.0000E+00   setid =    6995 xmoment=   0.0000E+00 ymoment=   0.0000E+00 zmoment=   0.0000E+00
 nd#    6996  xforce=   0.0000E+00   yforce=   0.0000E+00  zforce=   0.0000E+00   energy=   0.0000E+00   setid =    6996 xmoment=   0.0000E+00 ymoment=   0.0000E+00 zmoment=   0.0000E+00
 nd#    6997  xforce=   0.0000E+00   yforce=   0.0000E+00  zforce=   0.0000E+00   energy=   0.0000E+00   setid =    6997 xmoment=   0.0000E+00 ymoment=   0.0000E+00 zmoment=   0.0000E+00
 nd#    7454  xforce=   0.0000E+00   yforce=   0.0000E+00  zforce=   0.0000E+00   energy=   0.0000E+00   setid =    7454 xmoment=   0.0000E+00 ymoment=   0.0000E+00 zmoment=   0.0000E+00
 nd#    7455  xforce=   0.0000E+00   yforce=   0.0000E+00  zforce=   0.0000E+00   energy=   0.0000E+00   setid =    7455 xmoment=   0.0000E+00 ymoment=   0.0000E+00 zmoment=   0.0000E+00
 nd#    7456  xforce=   0.0000E+00   yforce=   0.0000E+00  zforce=   0.0000E+00   energy=   0.0000E+00   setid =    7456 xmoment=   0.0000E+00 ymoment=   0.0000E+00 zmoment=   0.0000E+00
 nd#    7457  xforce=   0.0000E+00   yforce=   0.0000E+00  zforce=   0.0000E+00   energy=   0.0000E+00   setid =    7457 xmoment=   0.0000E+00 ymoment=   0.0000E+00 zmoment=   0.0000E+00
 nd#    7458  xforce=   0.0000E+00   yforce=   0.0000E+00  zforce=   0.0000E+00   energy=   0.0000E+00   setid =    7458 xmoment=   0.0000E+00 ymoment=   0.0000E+00 zmoment=   0.0000E+00
 nd#    7459  xforce=   0.0000E+00   yforce=   0.0000E+00  zforce=   0.0000E+00   energy=   0.0000E+00   setid =    7459 xmoment=   0.0000E+00 ymoment=   0.0000E+00 zmoment=   0.0000E+00
 nd#    7460  xforce=   0.0000E+00   yforce=   0.0000E+00  zforce=   0.0000E+00   energy=   0.0000E+00   setid =    7460 xmoment=   0.0000E+00 ymoment=   0.0000E+00 zmoment=   0.0000E+00
 nd#    7461  xforce=   0.0000E+00   yforce=   0.0000E+00  zforce=   0.0000E+00   energy=   0.0000E+00   setid =    7461 xmoment=   0.0000E+00 ymoment=   0.0000E+00 zmoment=   0.0000E+00
 nd#    7934  xforce=   0.0000E+00   yforce=   0.0000E+00  zforce=   0.0000E+00   energy=   0.0000E+00   setid =    7934 xmoment=   0.0000E+00 ymoment=   0.0000E+00 zmoment=   0.0000E+00
 nd#    7936  xforce=   0.0000E+00   yforce=   0.0000E+00  zforce=   0.0000E+00   energy=   0.0000E+00   setid =    7936 xmoment=   0.0000E+00 ymoment=   0.0000E+00 zmoment=   0.0000E+00
 nd#    7938  xforce=   0.0000E+00   yforce=   0.0000E+00  zforce=   0.0000E+00   energy=   0.0000E+00   setid =    7938 xmoment=   0.0000E+00 ymoment=   0.0000E+00 zmoment=   0.0000E+00
 nd#    7940  xforce=   0.0000E+00   yforce=   0.0000E+00  zforce=   0.0000E+00   energy=   0.0000E+00   setid =    7940 xmoment=   0.0000E+00 ymoment=   0.0000E+00 zmoment=   0.0000E+00
 nd#    7942  xforce=   0.0000E+00   yforce=   0.0000E+00  zforce=   0.0000E+00   energy=   0.0000E+00   setid =    7942 xmoment=   0.0000E+00 ymoment=   0.0000E+00 zmoment=   0.0000E+00
 nd#    7944  xforce=   0.0000E+00   yforce=   0.0000E+00  zforce=   0.0000E+00   energy=   0.0000E+00   setid =    7944 xmoment=   0.0000E+00 ymoment=   0.0000E+00 zmoment=   0.0000E+00
 nd#    7946  xforce=   0.0000E+00   yforce=   0.0000E+00  zforce=   0.0000E+00   energy=   0.0000E+00   setid =    7946 xmoment=   0.0000E+00 ymoment=   0.0000E+00 zmoment=   0.0000E+00
 nd#    7948  xforce=   0.0000E+00   yforce=   0.0000E+00  zforce=   0.0000E+00   energy=   0.0000E+00   setid =    7948 xmoment=   0.0000E+00 ymoment=   0.0000E+00 zmoment=   0.0000E+00
              xtotal=   0.0000E+00   ytotal=   0.0000E+00  ztotal=   0.0000E+00   etotal=   0.0000E+00

 n o d a l   f o r c e/e n e r g y    o u t p u t  t=   1.29245E+00

 velocity boundary condition forces/rigid body moments 

 nd#    1393  xforce=   0.0000E+00   yforce=   0.0000E+00  zforce=  -1.6635E+01   energy=   2.1528E-04   setid =    1393 xmoment=   0.0000E+00 ymoment=   0.0000E+00 zmoment=   0.0000E+00
 nd#    1394  xforce=   0.0000E+00   yforce=   0.0000E+00  zforce=  -1.4060E+01   energy=   1.8283E-04   setid =    1394 xmoment=   0.0000E+00 ymoment=   0.0000E+00 zmoment=   0.0000E+00
 nd#    1395  xforce=   0.0000E+00   yforce=   0.0000E+00  zforce=  -1.6305E+01   energy=   2.1050E-04   setid =    1395 xmoment=   0.0000E+00 ymoment=   0.0000E+00 zmoment=   0.0000E+00
 nd#    1396  xforce=   0.0000E+00   yforce=   0.0000E+00  zforce=  -1.8611E+01   energy=   2.3963E-04   setid =    1396 xmoment=   0.0000E+00 ymoment=   0.0000E+00 zmoment=   0.0000E+00
 nd#    1508  xforce=   0.0000E+00   yforce=   0.0000E+00  zforce=  -1.3520E+01   energy=   1.7461E-04   setid =    1508 xmoment=   0.0000E+00 ymoment=   0.0000E+00 zmoment=   0.0000E+00
 nd#    1509  xforce=   0.0000E+00   yforce=   0.0000E+00  zforce=  -1.4259E+01   energy=   1.8387E-04   setid =    1509 xmoment=   0.0000E+00 ymoment=   0.0000E+00 zmoment=   0.0000E+00
 nd#    1510  xforce=   0.0000E+00   yforce=   0.0000E+00  zforce=  -1.7326E+01   energy=   2.2290E-04   setid =    1510 xmoment=   0.0000E+00 ymoment=   0.0000E+00 zmoment=   0.0000E+00
 nd#    1659  xforce=   0.0000E+00   yforce=   0.0000E+00  zforce=  -7.9872E+00   energy=   1.0101E-04   setid =    1659 xmoment=   0.0000E+00 ymoment=   0.0000E+00 zmoment=   0.0000E+00
 nd#    1660  xforce=   0.0000E+00   yforce=   0.0000E+00  zforce=  -1.4397E+01   energy=   1.8566E-04   setid =    1660 xmoment=   0.0000E+00 ymoment=   0.0000E+00 zmoment=   0.0000E+00
 nd#    1661  xforce=   0.0000E+00   yforce=   0.0000E+00  zforce=  -1.5042E+01   energy=   1.9320E-04   setid =    1661 xmoment=   0.0000E+00 ymoment=   0.0000E+00 zmoment=   0.0000E+00
 nd#    1662  xforce=   0.0000E+00   yforce=   0.0000E+00  zforce=  -8.2751E+00   energy=   1.0428E-04   setid =    1662 xmoment=   0.0000E+00 ymoment=   0.0000E+00 zmoment=   0.0000E+00
 nd#    1737  xforce=   0.0000E+00   yforce=   0.0000E+00  zforce=  -1.2500E+01   energy=   1.6222E-04   setid =    1737 xmoment=   0.0000E+00 ymoment=   0.0000E+00 zmoment=   0.0000E+00
 nd#    1738  xforce=   0.0000E+00   yforce=   0.0000E+00  zforce=  -1.6289E+01   energy=   2.0780E-04   setid =    1738 xmoment=   0.0000E+00 ymoment=   0.0000E+00 zmoment=   0.0000E+00
 nd#    1887  xforce=   0.0000E+00   yforce=   0.0000E+00  zforce=  -8.4739E+00   energy=   1.1035E-04   setid =    1887 xmoment=   0.0000E+00 ymoment=   0.0000E+00 zmoment=   0.0000E+00
 nd#    1888  xforce=   0.0000E+00   yforce=   0.0000E+00  zforce=  -1.6479E+01   energy=   2.1482E-04   setid =    1888 xmoment=   0.0000E+00 ymoment=   0.0000E+00 zmoment=   0.0000E+00
 nd#    1889  xforce=   0.0000E+00   yforce=   0.0000E+00  zforce=  -1.5442E+01   energy=   1.9736E-04   setid =    1889 xmoment=   0.0000E+00 ymoment=   0.0000E+00 zmoment=   0.0000E+00
 nd#    1890  xforce=   0.0000E+00   yforce=   0.0000E+00  zforce=  -8.0618E+00   energy=   1.0266E-04   setid =    1890 xmoment=   0.0000E+00 ymoment=   0.0000E+00 zmoment=   0.0000E+00
 nd#    2039  xforce=   0.0000E+00   yforce=   0.0000E+00  zforce=  -1.3892E+01   energy=   1.7946E-04   setid =    2039 xmoment=   0.0000E+00 ymoment=   0.0000E+00 zmoment=   0.0000E+00
 nd#    2040  xforce=   0.0000E+00   yforce=   0.0000E+00  zforce=  -1.2742E+01   energy=   1.6493E-04   setid =    2040 xmoment=   0.0000E+00 ymoment=   0.0000E+00 zmoment=   0.0000E+00
 nd#    2041  xforce=   0.0000E+00   yforce=   0.0000E+00  zforce=  -1.5013E+01   energy=   1.9484E-04   setid =    2041 xmoment=   0.0000E+00 ymoment=   0.0000E+00 zmoment=   0.0000E+00
 nd#    2042  xforce=   0.0000E+00   yforce=   0.0000E+00  zforce=  -1.5784E+01   energy=   2.0479E-04   setid =    2042 xmoment=   0.0000E+00 ymoment=   0.0000E+00 zmoment=   0.0000E+00
 nd#    2117  xforce=   0.0000E+00   yforce=   0.0000E+00  zforce=  -1.6612E+01   energy=   2.1405E-04   setid =    2117 xmoment=   0.0000E+00 ymoment=   0.0000E+00 zmoment=   0.0000E+00
 nd#    2118  xforce=   0.0000E+00   yforce=   0.0000E+00  zforce=  -1.3828E+01   energy=   1.7846E-04   setid =    2118 xmoment=   0.0000E+00 ymoment=   0.0000E+00 zmoment=   0.0000E+00
 nd#    2267  xforce=   0.0000E+00   yforce=   0.0000E+00  zforce=  -1.4478E+01   energy=   1.8604E-04   setid =    2267 xmoment=   0.0000E+00 ymoment=   0.0000E+00 zmoment=   0.0000E+00
 nd#    2268  xforce=   0.0000E+00   yforce=   0.0000E+00  zforce=  -1.3048E+01   energy=   1.6854E-04   setid =    2268 xmoment=   0.0000E+00 ymoment=   0.0000E+00 zmoment=   0.0000E+00
 nd#    2269  xforce=   0.0000E+00   yforce=   0.0000E+00  zforce=  -6.6324E+00   energy=   8.4771E-05   setid =    2269 xmoment=   0.0000E+00 ymoment=   0.0000E+00 zmoment=   0.0000E+00
 nd#    2270  xforce=   0.0000E+00   yforce=   0.0000E+00  zforce=  -7.6194E+00   energy=   9.6834E-05   setid =    2270 xmoment=   0.0000E+00 ymoment=   0.0000E+00 zmoment=   0.0000E+00
 nd#    2419  xforce=   0.0000E+00   yforce=   0.0000E+00  zforce=  -1.6474E+01   energy=   2.1415E-04   setid =    2419 xmoment=   0.0000E+00 ymoment=   0.0000E+00 zmoment=   0.0000E+00
 nd#    2420  xforce=   0.0000E+00   yforce=   0.0000E+00  zforce=  -1.5754E+01   energy=   2.0415E-04   setid =    2420 xmoment=   0.0000E+00 ymoment=   0.0000E+00 zmoment=   0.0000E+00
 nd#    2421  xforce=   0.0000E+00   yforce=   0.0000E+00  zforce=  -1.3026E+01   energy=   1.6898E-04   setid =    2421 xmoment=   0.0000E+00 ymoment=   0.0000E+00 zmoment=   0.0000E+00
 nd#    2422  xforce=   0.0000E+00   yforce=   0.0000E+00  zforce=  -1.4551E+01   energy=   1.8731E-04   setid =    2422 xmoment=   0.0000E+00 ymoment=   0.0000E+00 zmoment=   0.0000E+00
 nd#    2497  xforce=   0.0000E+00   yforce=   0.0000E+00  zforce=  -1.3456E+01   energy=   1.7355E-04   setid =    2497 xmoment=   0.0000E+00 ymoment=   0.0000E+00 zmoment=   0.0000E+00
 nd#    2498  xforce=   0.0000E+00   yforce=   0.0000E+00  zforce=  -1.1809E+01   energy=   1.5345E-04   setid =    2498 xmoment=   0.0000E+00 ymoment=   0.0000E+00 zmoment=   0.0000E+00
 nd#    2573  xforce=   0.0000E+00   yforce=   0.0000E+00  zforce=  -7.7850E+00   energy=   9.9027E-05   setid =    2573 xmoment=   0.0000E+00 ymoment=   0.0000E+00 zmoment=   0.0000E+00
 nd#    2574  xforce=   0.0000E+00   yforce=   0.0000E+00  zforce=  -9.1916E+00   energy=   1.1751E-04   setid =    2574 xmoment=   0.0000E+00 ymoment=   0.0000E+00 zmoment=   0.0000E+00
 nd#    2649  xforce=   0.0000E+00   yforce=   0.0000E+00  zforce=  -7.0804E+00   energy=   9.0942E-05   setid =    2649 xmoment=   0.0000E+00 ymoment=   0.0000E+00 zmoment=   0.0000E+00
 nd#    2650  xforce=   0.0000E+00   yforce=   0.0000E+00  zforce=  -8.1647E+00   energy=   1.0557E-04   setid =    2650 xmoment=   0.0000E+00 ymoment=   0.0000E+00 zmoment=   0.0000E+00
 nd#    2725  xforce=   0.0000E+00   yforce=   0.0000E+00  zforce=  -1.2547E+01   energy=   1.6269E-04   setid =    2725 xmoment=   0.0000E+00 ymoment=   0.0000E+00 zmoment=   0.0000E+00
 nd#    2726  xforce=   0.0000E+00   yforce=   0.0000E+00  zforce=  -1.1922E+01   energy=   1.5456E-04   setid =    2726 xmoment=   0.0000E+00 ymoment=   0.0000E+00 zmoment=   0.0000E+00
 nd#    2801  xforce=   0.0000E+00   yforce=   0.0000E+00  zforce=  -9.2808E+00   energy=   1.1599E-04   setid =    2801 xmoment=   0.0000E+00 ymoment=   0.0000E+00 zmoment=   0.0000E+00
 nd#    2802  xforce=   0.0000E+00   yforce=   0.0000E+00  zforce=  -6.8437E+00   energy=   8.6972E-05   setid =    2802 xmoment=   0.0000E+00 ymoment=   0.0000E+00 zmoment=   0.0000E+00
 nd#    2840  xforce=   0.0000E+00   yforce=   0.0000E+00  zforce=  -8.2345E+00   energy=   1.0429E-04   setid =    2840 xmoment=   0.0000E+00 ymoment=   0.0000E+00 zmoment=   0.0000E+00
 nd#    2915  xforce=   0.0000E+00   yforce=   0.0000E+00  zforce=  -1.1853E+01   energy=   1.5503E-04   setid =    2915 xmoment=   0.0000E+00 ymoment=   0.0000E+00 zmoment=   0.0000E+00
 nd#    2916  xforce=   0.0000E+00   yforce=   0.0000E+00  zforce=  -8.9077E+00   energy=   1.1802E-04   setid =    2916 xmoment=   0.0000E+00 ymoment=   0.0000E+00 zmoment=   0.0000E+00
 nd#    2991  xforce=   0.0000E+00   yforce=   0.0000E+00  zforce=  -1.2140E+01   energy=   1.5845E-04   setid =    2991 xmoment=   0.0000E+00 ymoment=   0.0000E+00 zmoment=   0.0000E+00
 nd#    2992  xforce=   0.0000E+00   yforce=   0.0000E+00  zforce=  -1.0049E+01   energy=   1.3208E-04   setid =    2992 xmoment=   0.0000E+00 ymoment=   0.0000E+00 zmoment=   0.0000E+00
 nd#    3067  xforce=   0.0000E+00   yforce=   0.0000E+00  zforce=  -8.4794E+00   energy=   1.1176E-04   setid =    3067 xmoment=   0.0000E+00 ymoment=   0.0000E+00 zmoment=   0.0000E+00
 nd#    3068  xforce=   0.0000E+00   yforce=   0.0000E+00  zforce=  -1.2066E+01   energy=   1.5717E-04   setid =    3068 xmoment=   0.0000E+00 ymoment=   0.0000E+00 zmoment=   0.0000E+00
 nd#    3143  xforce=   0.0000E+00   yforce=   0.0000E+00  zforce=  -1.9043E+01   energy=   2.4445E-04   setid =    3143 xmoment=   0.0000E+00 ymoment=   0.0000E+00 zmoment=   0.0000E+00
 nd#    3144  xforce=   0.0000E+00   yforce=   0.0000E+00  zforce=  -9.7952E+00   energy=   1.2554E-04   setid =    3144 xmoment=   0.0000E+00 ymoment=   0.0000E+00 zmoment=   0.0000E+00
 nd#    3182  xforce=   0.0000E+00   yforce=   0.0000E+00  zforce=  -1.0348E+01   energy=   1.3361E-04   setid =    3182 xmoment=   0.0000E+00 ymoment=   0.0000E+00 zmoment=   0.0000E+00
 nd#    3220  xforce=   0.0000E+00   yforce=   0.0000E+00  zforce=  -1.0702E+01   energy=   1.4084E-04   setid =    3220 xmoment=   0.0000E+00 ymoment=   0.0000E+00 zmoment=   0.0000E+00
 nd#    3258  xforce=   0.0000E+00   yforce=   0.0000E+00  zforce=  -6.2703E+00   energy=   8.0950E-05   setid =    3258 xmoment=   0.0000E+00 ymoment=   0.0000E+00 zmoment=   0.0000E+00
 nd#    3333  xforce=   0.0000E+00   yforce=   0.0000E+00  zforce=  -1.3324E+01   energy=   1.7382E-04   setid =    3333 xmoment=   0.0000E+00 ymoment=   0.0000E+00 zmoment=   0.0000E+00
 nd#    3334  xforce=   0.0000E+00   yforce=   0.0000E+00  zforce=  -1.3606E+01   energy=   1.7683E-04   setid =    3334 xmoment=   0.0000E+00 ymoment=   0.0000E+00 zmoment=   0.0000E+00
 nd#    3372  xforce=   0.0000E+00   yforce=   0.0000E+00  zforce=  -5.4004E+00   energy=   6.8530E-05   setid =    3372 xmoment=   0.0000E+00 ymoment=   0.0000E+00 zmoment=   0.0000E+00
 nd#    3410  xforce=   0.0000E+00   yforce=   0.0000E+00  zforce=  -4.5828E+00   energy=   5.7003E-05   setid =    3410 xmoment=   0.0000E+00 ymoment=   0.0000E+00 zmoment=   0.0000E+00
 nd#    3448  xforce=   0.0000E+00   yforce=   0.0000E+00  zforce=  -1.2382E+01   energy=   1.6208E-04   setid =    3448 xmoment=   0.0000E+00 ymoment=   0.0000E+00 zmoment=   0.0000E+00
 nd#    3486  xforce=   0.0000E+00   yforce=   0.0000E+00  zforce=  -1.2855E+01   energy=   1.6728E-04   setid =    3486 xmoment=   0.0000E+00 ymoment=   0.0000E+00 zmoment=   0.0000E+00
 nd#    3524  xforce=   0.0000E+00   yforce=   0.0000E+00  zforce=  -1.3735E+01   energy=   1.7858E-04   setid =    3524 xmoment=   0.0000E+00 ymoment=   0.0000E+00 zmoment=   0.0000E+00
 nd#    3562  xforce=   0.0000E+00   yforce=   0.0000E+00  zforce=  -6.9776E+00   energy=   9.0598E-05   setid =    3562 xmoment=   0.0000E+00 ymoment=   0.0000E+00 zmoment=   0.0000E+00
 nd#    3613  xforce=   0.0000E+00   yforce=   0.0000E+00  zforce=  -1.7493E+00   energy=   2.3620E-05   setid =    3613 xmoment=   0.0000E+00 ymoment=   0.0000E+00 zmoment=   0.0000E+00
 nd#    3614  xforce=   0.0000E+00   yforce=   0.0000E+00  zforce=  -7.8536E+00   energy=   1.0279E-04   setid =    3614 xmoment=   0.0000E+00 ymoment=   0.0000E+00 zmoment=   0.0000E+00
 nd#    3615  xforce=   0.0000E+00   yforce=   0.0000E+00  zforce=  -7.8152E+00   energy=   1.0186E-04   setid =    3615 xmoment=   0.0000E+00 ymoment=   0.0000E+00 zmoment=   0.0000E+00
 nd#    3616  xforce=   0.0000E+00   yforce=   0.0000E+00  zforce=  -7.5383E+00   energy=   9.7997E-05   setid =    3616 xmoment=   0.0000E+00 ymoment=   0.0000E+00 zmoment=   0.0000E+00
 nd#    3617  xforce=   0.0000E+00   yforce=   0.0000E+00  zforce=  -7.3142E+00   energy=   9.4966E-05   setid =    3617 xmoment=   0.0000E+00 ymoment=   0.0000E+00 zmoment=   0.0000E+00
 nd#    3618  xforce=   0.0000E+00   yforce=   0.0000E+00  zforce=  -7.1109E+00   energy=   9.2218E-05   setid =    3618 xmoment=   0.0000E+00 ymoment=   0.0000E+00 zmoment=   0.0000E+00
 nd#    3619  xforce=   0.0000E+00   yforce=   0.0000E+00  zforce=  -6.9112E+00   energy=   8.9525E-05   setid =    3619 xmoment=   0.0000E+00 ymoment=   0.0000E+00 zmoment=   0.0000E+00
 nd#    3620  xforce=   0.0000E+00   yforce=   0.0000E+00  zforce=  -6.7149E+00   energy=   8.6885E-05   setid =    3620 xmoment=   0.0000E+00 ymoment=   0.0000E+00 zmoment=   0.0000E+00
 nd#    3621  xforce=   0.0000E+00   yforce=   0.0000E+00  zforce=  -6.5207E+00   energy=   8.4281E-05   setid =    3621 xmoment=   0.0000E+00 ymoment=   0.0000E+00 zmoment=   0.0000E+00
 nd#    3622  xforce=   0.0000E+00   yforce=   0.0000E+00  zforce=  -6.3296E+00   energy=   8.1724E-05   setid =    3622 xmoment=   0.0000E+00 ymoment=   0.0000E+00 zmoment=   0.0000E+00
 nd#    3623  xforce=   0.0000E+00   yforce=   0.0000E+00  zforce=  -6.1444E+00   energy=   7.9251E-05   setid =    3623 xmoment=   0.0000E+00 ymoment=   0.0000E+00 zmoment=   0.0000E+00
 nd#    3624  xforce=   0.0000E+00   yforce=   0.0000E+00  zforce=  -5.9684E+00   energy=   7.6935E-05   setid =    3624 xmoment=   0.0000E+00 ymoment=   0.0000E+00 zmoment=   0.0000E+00
 nd#    3625  xforce=   0.0000E+00   yforce=   0.0000E+00  zforce=  -5.8704E+00   energy=   7.5681E-05   setid =    3625 xmoment=   0.0000E+00 ymoment=   0.0000E+00 zmoment=   0.0000E+00
 nd#    4590  xforce=   0.0000E+00   yforce=   0.0000E+00  zforce=  -1.3028E+01   energy=   1.6847E-04   setid =    4590 xmoment=   0.0000E+00 ymoment=   0.0000E+00 zmoment=   0.0000E+00
 nd#    4591  xforce=   0.0000E+00   yforce=   0.0000E+00  zforce=  -1.3427E+01   energy=   1.7380E-04   setid =    4591 xmoment=   0.0000E+00 ymoment=   0.0000E+00 zmoment=   0.0000E+00
 nd#    4594  xforce=   0.0000E+00   yforce=   0.0000E+00  zforce=  -1.3093E+01   energy=   1.6945E-04   setid =    4594 xmoment=   0.0000E+00 ymoment=   0.0000E+00 zmoment=   0.0000E+00
 nd#    4595  xforce=   0.0000E+00   yforce=   0.0000E+00  zforce=  -1.3517E+01   energy=   1.7506E-04   setid =    4595 xmoment=   0.0000E+00 ymoment=   0.0000E+00 zmoment=   0.0000E+00
 nd#    4598  xforce=   0.0000E+00   yforce=   0.0000E+00  zforce=  -1.3049E+01   energy=   1.6899E-04   setid =    4598 xmoment=   0.0000E+00 ymoment=   0.0000E+00 zmoment=   0.0000E+00
 nd#    4599  xforce=   0.0000E+00   yforce=   0.0000E+00  zforce=  -1.3509E+01   energy=   1.7503E-04   setid =    4599 xmoment=   0.0000E+00 ymoment=   0.0000E+00 zmoment=   0.0000E+00
 nd#    4602  xforce=   0.0000E+00   yforce=   0.0000E+00  zforce=  -1.3124E+01   energy=   1.6976E-04   setid =    4602 xmoment=   0.0000E+00 ymoment=   0.0000E+00 zmoment=   0.0000E+00
 nd#    4603  xforce=   0.0000E+00   yforce=   0.0000E+00  zforce=  -1.3592E+01   energy=   1.7589E-04   setid =    4603 xmoment=   0.0000E+00 ymoment=   0.0000E+00 zmoment=   0.0000E+00
 nd#    4606  xforce=   0.0000E+00   yforce=   0.0000E+00  zforce=  -1.3134E+01   energy=   1.6978E-04   setid =    4606 xmoment=   0.0000E+00 ymoment=   0.0000E+00 zmoment=   0.0000E+00
 nd#    4607  xforce=   0.0000E+00   yforce=   0.0000E+00  zforce=  -1.3625E+01   energy=   1.7618E-04   setid =    4607 xmoment=   0.0000E+00 ymoment=   0.0000E+00 zmoment=   0.0000E+00
 nd#    4610  xforce=   0.0000E+00   yforce=   0.0000E+00  zforce=  -1.3141E+01   energy=   1.6984E-04   setid =    4610 xmoment=   0.0000E+00 ymoment=   0.0000E+00 zmoment=   0.0000E+00
 nd#    4611  xforce=   0.0000E+00   yforce=   0.0000E+00  zforce=  -1.3628E+01   energy=   1.7615E-04   setid =    4611 xmoment=   0.0000E+00 ymoment=   0.0000E+00 zmoment=   0.0000E+00
 nd#    4614  xforce=   0.0000E+00   yforce=   0.0000E+00  zforce=  -1.3184E+01   energy=   1.7014E-04   setid =    4614 xmoment=   0.0000E+00 ymoment=   0.0000E+00 zmoment=   0.0000E+00
 nd#    4615  xforce=   0.0000E+00   yforce=   0.0000E+00  zforce=  -1.3655E+01   energy=   1.7626E-04   setid =    4615 xmoment=   0.0000E+00 ymoment=   0.0000E+00 zmoment=   0.0000E+00
 nd#    4618  xforce=   0.0000E+00   yforce=   0.0000E+00  zforce=  -6.6143E+00   energy=   8.5286E-05   setid =    4618 xmoment=   0.0000E+00 ymoment=   0.0000E+00 zmoment=   0.0000E+00
 nd#    4619  xforce=   0.0000E+00   yforce=   0.0000E+00  zforce=  -6.8467E+00   energy=   8.8303E-05   setid =    4619 xmoment=   0.0000E+00 ymoment=   0.0000E+00 zmoment=   0.0000E+00
 nd#    4622  xforce=   0.0000E+00   yforce=   0.0000E+00  zforce=  -1.4658E+01   energy=   1.9031E-04   setid =    4622 xmoment=   0.0000E+00 ymoment=   0.0000E+00 zmoment=   0.0000E+00
 nd#    4623  xforce=   0.0000E+00   yforce=   0.0000E+00  zforce=  -1.5117E+01   energy=   1.9650E-04   setid =    4623 xmoment=   0.0000E+00 ymoment=   0.0000E+00 zmoment=   0.0000E+00
 nd#    4626  xforce=   0.0000E+00   yforce=   0.0000E+00  zforce=  -1.4823E+01   energy=   1.9240E-04   setid =    4626 xmoment=   0.0000E+00 ymoment=   0.0000E+00 zmoment=   0.0000E+00
 nd#    4627  xforce=   0.0000E+00   yforce=   0.0000E+00  zforce=  -1.5309E+01   energy=   1.9888E-04   setid =    4627 xmoment=   0.0000E+00 ymoment=   0.0000E+00 zmoment=   0.0000E+00
 nd#    4630  xforce=   0.0000E+00   yforce=   0.0000E+00  zforce=  -1.4927E+01   energy=   1.9369E-04   setid =    4630 xmoment=   0.0000E+00 ymoment=   0.0000E+00 zmoment=   0.0000E+00
 nd#    4631  xforce=   0.0000E+00   yforce=   0.0000E+00  zforce=  -1.5457E+01   energy=   2.0067E-04   setid =    4631 xmoment=   0.0000E+00 ymoment=   0.0000E+00 zmoment=   0.0000E+00
 nd#    4634  xforce=   0.0000E+00   yforce=   0.0000E+00  zforce=  -1.5053E+01   energy=   1.9504E-04   setid =    4634 xmoment=   0.0000E+00 ymoment=   0.0000E+00 zmoment=   0.0000E+00
 nd#    4635  xforce=   0.0000E+00   yforce=   0.0000E+00  zforce=  -1.5610E+01   energy=   2.0232E-04   setid =    4635 xmoment=   0.0000E+00 ymoment=   0.0000E+00 zmoment=   0.0000E+00
 nd#    4638  xforce=   0.0000E+00   yforce=   0.0000E+00  zforce=  -1.5152E+01   energy=   1.9607E-04   setid =    4638 xmoment=   0.0000E+00 ymoment=   0.0000E+00 zmoment=   0.0000E+00
 nd#    4639  xforce=   0.0000E+00   yforce=   0.0000E+00  zforce=  -1.5733E+01   energy=   2.0361E-04   setid =    4639 xmoment=   0.0000E+00 ymoment=   0.0000E+00 zmoment=   0.0000E+00
 nd#    4642  xforce=   0.0000E+00   yforce=   0.0000E+00  zforce=  -1.5155E+01   energy=   1.9595E-04   setid =    4642 xmoment=   0.0000E+00 ymoment=   0.0000E+00 zmoment=   0.0000E+00
 nd#    4643  xforce=   0.0000E+00   yforce=   0.0000E+00  zforce=  -1.5738E+01   energy=   2.0349E-04   setid =    4643 xmoment=   0.0000E+00 ymoment=   0.0000E+00 zmoment=   0.0000E+00
 nd#    4646  xforce=   0.0000E+00   yforce=   0.0000E+00  zforce=  -1.5146E+01   energy=   1.9561E-04   setid =    4646 xmoment=   0.0000E+00 ymoment=   0.0000E+00 zmoment=   0.0000E+00
 nd#    4647  xforce=   0.0000E+00   yforce=   0.0000E+00  zforce=  -1.5718E+01   energy=   2.0303E-04   setid =    4647 xmoment=   0.0000E+00 ymoment=   0.0000E+00 zmoment=   0.0000E+00
 nd#    4650  xforce=   0.0000E+00   yforce=   0.0000E+00  zforce=  -7.5865E+00   energy=   9.7910E-05   setid =    4650 xmoment=   0.0000E+00 ymoment=   0.0000E+00 zmoment=   0.0000E+00
 nd#    4651  xforce=   0.0000E+00   yforce=   0.0000E+00  zforce=  -7.8711E+00   energy=   1.0160E-04   setid =    4651 xmoment=   0.0000E+00 ymoment=   0.0000E+00 zmoment=   0.0000E+00
 nd#    4838  xforce=   0.0000E+00   yforce=   0.0000E+00  zforce=  -1.5791E+01   energy=   2.0663E-04   setid =    4838 xmoment=   0.0000E+00 ymoment=   0.0000E+00 zmoment=   0.0000E+00
 nd#    4839  xforce=   0.0000E+00   yforce=   0.0000E+00  zforce=  -3.3788E+00   energy=   4.5925E-05   setid =    4839 xmoment=   0.0000E+00 ymoment=   0.0000E+00 zmoment=   0.0000E+00
 nd#    4842  xforce=   0.0000E+00   yforce=   0.0000E+00  zforce=  -1.6096E+01   energy=   2.1030E-04   setid =    4842 xmoment=   0.0000E+00 ymoment=   0.0000E+00 zmoment=   0.0000E+00
 nd#    4843  xforce=   0.0000E+00   yforce=   0.0000E+00  zforce=  -3.1107E+00   energy=   4.3051E-05   setid =    4843 xmoment=   0.0000E+00 ymoment=   0.0000E+00 zmoment=   0.0000E+00
 nd#    4846  xforce=   0.0000E+00   yforce=   0.0000E+00  zforce=  -1.6430E+01   energy=   2.1411E-04   setid =    4846 xmoment=   0.0000E+00 ymoment=   0.0000E+00 zmoment=   0.0000E+00
 nd#    4847  xforce=   0.0000E+00   yforce=   0.0000E+00  zforce=  -2.6923E+00   energy=   3.8430E-05   setid =    4847 xmoment=   0.0000E+00 ymoment=   0.0000E+00 zmoment=   0.0000E+00
 nd#    4850  xforce=   0.0000E+00   yforce=   0.0000E+00  zforce=  -1.6721E+01   energy=   2.1719E-04   setid =    4850 xmoment=   0.0000E+00 ymoment=   0.0000E+00 zmoment=   0.0000E+00
 nd#    4851  xforce=   0.0000E+00   yforce=   0.0000E+00  zforce=  -2.3422E+00   energy=   3.4537E-05   setid =    4851 xmoment=   0.0000E+00 ymoment=   0.0000E+00 zmoment=   0.0000E+00
 nd#    4854  xforce=   0.0000E+00   yforce=   0.0000E+00  zforce=  -1.6869E+01   energy=   2.1869E-04   setid =    4854 xmoment=   0.0000E+00 ymoment=   0.0000E+00 zmoment=   0.0000E+00
 nd#    4855  xforce=   0.0000E+00   yforce=   0.0000E+00  zforce=  -2.2099E+00   energy=   3.3182E-05   setid =    4855 xmoment=   0.0000E+00 ymoment=   0.0000E+00 zmoment=   0.0000E+00
 nd#    4858  xforce=   0.0000E+00   yforce=   0.0000E+00  zforce=  -1.6785E+01   energy=   2.1760E-04   setid =    4858 xmoment=   0.0000E+00 ymoment=   0.0000E+00 zmoment=   0.0000E+00
 nd#    4859  xforce=   0.0000E+00   yforce=   0.0000E+00  zforce=  -2.0656E+00   energy=   3.1739E-05   setid =    4859 xmoment=   0.0000E+00 ymoment=   0.0000E+00 zmoment=   0.0000E+00
 nd#    4862  xforce=   0.0000E+00   yforce=   0.0000E+00  zforce=  -1.6664E+01   energy=   2.1607E-04   setid =    4862 xmoment=   0.0000E+00 ymoment=   0.0000E+00 zmoment=   0.0000E+00
 nd#    4863  xforce=   0.0000E+00   yforce=   0.0000E+00  zforce=  -2.0778E+00   energy=   3.2011E-05   setid =    4863 xmoment=   0.0000E+00 ymoment=   0.0000E+00 zmoment=   0.0000E+00
 nd#    4866  xforce=   0.0000E+00   yforce=   0.0000E+00  zforce=  -8.3195E+00   energy=   1.0787E-04   setid =    4866 xmoment=   0.0000E+00 ymoment=   0.0000E+00 zmoment=   0.0000E+00
 nd#    4867  xforce=   0.0000E+00   yforce=   0.0000E+00  zforce=  -1.0462E+00   energy=   1.6123E-05   setid =    4867 xmoment=   0.0000E+00 ymoment=   0.0000E+00 zmoment=   0.0000E+00
 nd#    6646  xforce=   0.0000E+00   yforce=   0.0000E+00  zforce=  -1.4240E+01   energy=   1.8469E-04   setid =    6646 xmoment=   0.0000E+00 ymoment=   0.0000E+00 zmoment=   0.0000E+00
 nd#    6647  xforce=   0.0000E+00   yforce=   0.0000E+00  zforce=  -1.4380E+01   energy=   1.8650E-04   setid =    6647 xmoment=   0.0000E+00 ymoment=   0.0000E+00 zmoment=   0.0000E+00
 nd#    6648  xforce=   0.0000E+00   yforce=   0.0000E+00  zforce=  -1.4445E+01   energy=   1.8733E-04   setid =    6648 xmoment=   0.0000E+00 ymoment=   0.0000E+00 zmoment=   0.0000E+00
 nd#    6649  xforce=   0.0000E+00   yforce=   0.0000E+00  zforce=  -1.4555E+01   energy=   1.8851E-04   setid =    6649 xmoment=   0.0000E+00 ymoment=   0.0000E+00 zmoment=   0.0000E+00
 nd#    6650  xforce=   0.0000E+00   yforce=   0.0000E+00  zforce=  -1.4631E+01   energy=   1.8927E-04   setid =    6650 xmoment=   0.0000E+00 ymoment=   0.0000E+00 zmoment=   0.0000E+00
 nd#    6651  xforce=   0.0000E+00   yforce=   0.0000E+00  zforce=  -1.4631E+01   energy=   1.8916E-04   setid =    6651 xmoment=   0.0000E+00 ymoment=   0.0000E+00 zmoment=   0.0000E+00
 nd#    6652  xforce=   0.0000E+00   yforce=   0.0000E+00  zforce=  -1.4632E+01   energy=   1.8894E-04   setid =    6652 xmoment=   0.0000E+00 ymoment=   0.0000E+00 zmoment=   0.0000E+00
 nd#    6653  xforce=   0.0000E+00   yforce=   0.0000E+00  zforce=  -7.3309E+00   energy=   9.4594E-05   setid =    6653 xmoment=   0.0000E+00 ymoment=   0.0000E+00 zmoment=   0.0000E+00
 nd#    6838  xforce=   0.0000E+00   yforce=   0.0000E+00  zforce=  -1.1896E+01   energy=   1.5343E-04   setid =    6838 xmoment=   0.0000E+00 ymoment=   0.0000E+00 zmoment=   0.0000E+00
 nd#    6839  xforce=   0.0000E+00   yforce=   0.0000E+00  zforce=  -1.2256E+01   energy=   1.5817E-04   setid =    6839 xmoment=   0.0000E+00 ymoment=   0.0000E+00 zmoment=   0.0000E+00
 nd#    6841  xforce=   0.0000E+00   yforce=   0.0000E+00  zforce=  -1.1905E+01   energy=   1.5381E-04   setid =    6841 xmoment=   0.0000E+00 ymoment=   0.0000E+00 zmoment=   0.0000E+00
 nd#    6842  xforce=   0.0000E+00   yforce=   0.0000E+00  zforce=  -1.2279E+01   energy=   1.5870E-04   setid =    6842 xmoment=   0.0000E+00 ymoment=   0.0000E+00 zmoment=   0.0000E+00
 nd#    6844  xforce=   0.0000E+00   yforce=   0.0000E+00  zforce=  -1.1718E+01   energy=   1.5159E-04   setid =    6844 xmoment=   0.0000E+00 ymoment=   0.0000E+00 zmoment=   0.0000E+00
 nd#    6845  xforce=   0.0000E+00   yforce=   0.0000E+00  zforce=  -1.2146E+01   energy=   1.5717E-04   setid =    6845 xmoment=   0.0000E+00 ymoment=   0.0000E+00 zmoment=   0.0000E+00
 nd#    6847  xforce=   0.0000E+00   yforce=   0.0000E+00  zforce=  -1.1790E+01   energy=   1.5230E-04   setid =    6847 xmoment=   0.0000E+00 ymoment=   0.0000E+00 zmoment=   0.0000E+00
 nd#    6848  xforce=   0.0000E+00   yforce=   0.0000E+00  zforce=  -1.2214E+01   energy=   1.5786E-04   setid =    6848 xmoment=   0.0000E+00 ymoment=   0.0000E+00 zmoment=   0.0000E+00
 nd#    6850  xforce=   0.0000E+00   yforce=   0.0000E+00  zforce=  -1.1675E+01   energy=   1.5084E-04   setid =    6850 xmoment=   0.0000E+00 ymoment=   0.0000E+00 zmoment=   0.0000E+00
 nd#    6851  xforce=   0.0000E+00   yforce=   0.0000E+00  zforce=  -1.2161E+01   energy=   1.5714E-04   setid =    6851 xmoment=   0.0000E+00 ymoment=   0.0000E+00 zmoment=   0.0000E+00
 nd#    6853  xforce=   0.0000E+00   yforce=   0.0000E+00  zforce=  -1.1694E+01   energy=   1.5118E-04   setid =    6853 xmoment=   0.0000E+00 ymoment=   0.0000E+00 zmoment=   0.0000E+00
 nd#    6854  xforce=   0.0000E+00   yforce=   0.0000E+00  zforce=  -1.2184E+01   energy=   1.5747E-04   setid =    6854 xmoment=   0.0000E+00 ymoment=   0.0000E+00 zmoment=   0.0000E+00
 nd#    6856  xforce=   0.0000E+00   yforce=   0.0000E+00  zforce=  -1.1721E+01   energy=   1.5133E-04   setid =    6856 xmoment=   0.0000E+00 ymoment=   0.0000E+00 zmoment=   0.0000E+00
 nd#    6857  xforce=   0.0000E+00   yforce=   0.0000E+00  zforce=  -1.2240E+01   energy=   1.5796E-04   setid =    6857 xmoment=   0.0000E+00 ymoment=   0.0000E+00 zmoment=   0.0000E+00
 nd#    6859  xforce=   0.0000E+00   yforce=   0.0000E+00  zforce=  -5.8913E+00   energy=   7.5993E-05   setid =    6859 xmoment=   0.0000E+00 ymoment=   0.0000E+00 zmoment=   0.0000E+00
 nd#    6860  xforce=   0.0000E+00   yforce=   0.0000E+00  zforce=  -6.1498E+00   energy=   7.9286E-05   setid =    6860 xmoment=   0.0000E+00 ymoment=   0.0000E+00 zmoment=   0.0000E+00
 nd#    6894  xforce=   0.0000E+00   yforce=   0.0000E+00  zforce=  -1.3829E+01   energy=   1.7918E-04   setid =    6894 xmoment=   0.0000E+00 ymoment=   0.0000E+00 zmoment=   0.0000E+00
 nd#    6895  xforce=   0.0000E+00   yforce=   0.0000E+00  zforce=  -1.3944E+01   energy=   1.8072E-04   setid =    6895 xmoment=   0.0000E+00 ymoment=   0.0000E+00 zmoment=   0.0000E+00
 nd#    6896  xforce=   0.0000E+00   yforce=   0.0000E+00  zforce=  -1.3973E+01   energy=   1.8113E-04   setid =    6896 xmoment=   0.0000E+00 ymoment=   0.0000E+00 zmoment=   0.0000E+00
 nd#    6897  xforce=   0.0000E+00   yforce=   0.0000E+00  zforce=  -1.4069E+01   energy=   1.8214E-04   setid =    6897 xmoment=   0.0000E+00 ymoment=   0.0000E+00 zmoment=   0.0000E+00
 nd#    6898  xforce=   0.0000E+00   yforce=   0.0000E+00  zforce=  -1.4123E+01   energy=   1.8266E-04   setid =    6898 xmoment=   0.0000E+00 ymoment=   0.0000E+00 zmoment=   0.0000E+00
 nd#    6899  xforce=   0.0000E+00   yforce=   0.0000E+00  zforce=  -1.4123E+01   energy=   1.8257E-04   setid =    6899 xmoment=   0.0000E+00 ymoment=   0.0000E+00 zmoment=   0.0000E+00
 nd#    6900  xforce=   0.0000E+00   yforce=   0.0000E+00  zforce=  -1.4138E+01   energy=   1.8253E-04   setid =    6900 xmoment=   0.0000E+00 ymoment=   0.0000E+00 zmoment=   0.0000E+00
 nd#    6901  xforce=   0.0000E+00   yforce=   0.0000E+00  zforce=  -7.0855E+00   energy=   9.1407E-05   setid =    6901 xmoment=   0.0000E+00 ymoment=   0.0000E+00 zmoment=   0.0000E+00
 nd#    6990  xforce=   0.0000E+00   yforce=   0.0000E+00  zforce=  -1.1727E+01   energy=   1.5124E-04   setid =    6990 xmoment=   0.0000E+00 ymoment=   0.0000E+00 zmoment=   0.0000E+00
 nd#    6991  xforce=   0.0000E+00   yforce=   0.0000E+00  zforce=  -1.1791E+01   energy=   1.5232E-04   setid =    6991 xmoment=   0.0000E+00 ymoment=   0.0000E+00 zmoment=   0.0000E+00
 nd#    6992  xforce=   0.0000E+00   yforce=   0.0000E+00  zforce=  -1.1586E+01   energy=   1.4985E-04   setid =    6992 xmoment=   0.0000E+00 ymoment=   0.0000E+00 zmoment=   0.0000E+00
 nd#    6993  xforce=   0.0000E+00   yforce=   0.0000E+00  zforce=  -1.1680E+01   energy=   1.5078E-04   setid =    6993 xmoment=   0.0000E+00 ymoment=   0.0000E+00 zmoment=   0.0000E+00
 nd#    6994  xforce=   0.0000E+00   yforce=   0.0000E+00  zforce=  -1.1478E+01   energy=   1.4836E-04   setid =    6994 xmoment=   0.0000E+00 ymoment=   0.0000E+00 zmoment=   0.0000E+00
 nd#    6995  xforce=   0.0000E+00   yforce=   0.0000E+00  zforce=  -1.1505E+01   energy=   1.4889E-04   setid =    6995 xmoment=   0.0000E+00 ymoment=   0.0000E+00 zmoment=   0.0000E+00
 nd#    6996  xforce=   0.0000E+00   yforce=   0.0000E+00  zforce=  -1.1482E+01   energy=   1.4848E-04   setid =    6996 xmoment=   0.0000E+00 ymoment=   0.0000E+00 zmoment=   0.0000E+00
 nd#    6997  xforce=   0.0000E+00   yforce=   0.0000E+00  zforce=  -5.7799E+00   energy=   7.4648E-05   setid =    6997 xmoment=   0.0000E+00 ymoment=   0.0000E+00 zmoment=   0.0000E+00
 nd#    7454  xforce=   0.0000E+00   yforce=   0.0000E+00  zforce=  -1.5683E+01   energy=   2.0436E-04   setid =    7454 xmoment=   0.0000E+00 ymoment=   0.0000E+00 zmoment=   0.0000E+00
 nd#    7455  xforce=   0.0000E+00   yforce=   0.0000E+00  zforce=  -1.5908E+01   energy=   2.0710E-04   setid =    7455 xmoment=   0.0000E+00 ymoment=   0.0000E+00 zmoment=   0.0000E+00
 nd#    7456  xforce=   0.0000E+00   yforce=   0.0000E+00  zforce=  -1.6121E+01   energy=   2.0958E-04   setid =    7456 xmoment=   0.0000E+00 ymoment=   0.0000E+00 zmoment=   0.0000E+00
 nd#    7457  xforce=   0.0000E+00   yforce=   0.0000E+00  zforce=  -1.6324E+01   energy=   2.1175E-04   setid =    7457 xmoment=   0.0000E+00 ymoment=   0.0000E+00 zmoment=   0.0000E+00
 nd#    7458  xforce=   0.0000E+00   yforce=   0.0000E+00  zforce=  -1.6476E+01   energy=   2.1335E-04   setid =    7458 xmoment=   0.0000E+00 ymoment=   0.0000E+00 zmoment=   0.0000E+00
 nd#    7459  xforce=   0.0000E+00   yforce=   0.0000E+00  zforce=  -1.6485E+01   energy=   2.1326E-04   setid =    7459 xmoment=   0.0000E+00 ymoment=   0.0000E+00 zmoment=   0.0000E+00
 nd#    7460  xforce=   0.0000E+00   yforce=   0.0000E+00  zforce=  -1.6449E+01   energy=   2.1261E-04   setid =    7460 xmoment=   0.0000E+00 ymoment=   0.0000E+00 zmoment=   0.0000E+00
 nd#    7461  xforce=   0.0000E+00   yforce=   0.0000E+00  zforce=  -8.2335E+00   energy=   1.0636E-04   setid =    7461 xmoment=   0.0000E+00 ymoment=   0.0000E+00 zmoment=   0.0000E+00
 nd#    7934  xforce=   0.0000E+00   yforce=   0.0000E+00  zforce=  -1.2635E+01   energy=   1.6323E-04   setid =    7934 xmoment=   0.0000E+00 ymoment=   0.0000E+00 zmoment=   0.0000E+00
 nd#    7936  xforce=   0.0000E+00   yforce=   0.0000E+00  zforce=  -1.2677E+01   energy=   1.6395E-04   setid =    7936 xmoment=   0.0000E+00 ymoment=   0.0000E+00 zmoment=   0.0000E+00
 nd#    7938  xforce=   0.0000E+00   yforce=   0.0000E+00  zforce=  -1.2592E+01   energy=   1.6300E-04   setid =    7938 xmoment=   0.0000E+00 ymoment=   0.0000E+00 zmoment=   0.0000E+00
 nd#    7940  xforce=   0.0000E+00   yforce=   0.0000E+00  zforce=  -1.2661E+01   energy=   1.6371E-04   setid =    7940 xmoment=   0.0000E+00 ymoment=   0.0000E+00 zmoment=   0.0000E+00
 nd#    7942  xforce=   0.0000E+00   yforce=   0.0000E+00  zforce=  -1.2646E+01   energy=   1.6343E-04   setid =    7942 xmoment=   0.0000E+00 ymoment=   0.0000E+00 zmoment=   0.0000E+00
 nd#    7944  xforce=   0.0000E+00   yforce=   0.0000E+00  zforce=  -1.2662E+01   energy=   1.6364E-04   setid =    7944 xmoment=   0.0000E+00 ymoment=   0.0000E+00 zmoment=   0.0000E+00
 nd#    7946  xforce=   0.0000E+00   yforce=   0.0000E+00  zforce=  -1.2717E+01   energy=   1.6409E-04   setid =    7946 xmoment=   0.0000E+00 ymoment=   0.0000E+00 zmoment=   0.0000E+00
 nd#    7948  xforce=   0.0000E+00   yforce=   0.0000E+00  zforce=  -6.3841E+00   energy=   8.2304E-05   setid =    7948 xmoment=   0.0000E+00 ymoment=   0.0000E+00 zmoment=   0.0000E+00
              xtotal=   0.0000E+00   ytotal=   0.0000E+00  ztotal=  -2.0853E+03   etotal=   2.7006E-02

 n o d a l   f o r c e/e n e r g y    o u t p u t  t=   2.04919E+00

 velocity boundary condition forces/rigid body moments 

 nd#    1393  xforce=   0.0000E+00   yforce=   0.0000E+00  zforce=  -2.5531E+01   energy=   5.5778E-04   setid =    1393 xmoment=   0.0000E+00 ymoment=   0.0000E+00 zmoment=   0.0000E+00
 nd#    1394  xforce=   0.0000E+00   yforce=   0.0000E+00  zforce=  -1.7391E+01   energy=   4.1323E-04   setid =    1394 xmoment=   0.0000E+00 ymoment=   0.0000E+00 zmoment=   0.0000E+00
 nd#    1395  xforce=   0.0000E+00   yforce=   0.0000E+00  zforce=  -3.2770E+01   energy=   6.6447E-04   setid =    1395 xmoment=   0.0000E+00 ymoment=   0.0000E+00 zmoment=   0.0000E+00
 nd#    1396  xforce=   0.0000E+00   yforce=   0.0000E+00  zforce=  -3.5187E+01   energy=   7.2993E-04   setid =    1396 xmoment=   0.0000E+00 ymoment=   0.0000E+00 zmoment=   0.0000E+00
 nd#    1508  xforce=   0.0000E+00   yforce=   0.0000E+00  zforce=  -2.5031E+01   energy=   5.3868E-04   setid =    1508 xmoment=   0.0000E+00 ymoment=   0.0000E+00 zmoment=   0.0000E+00
 nd#    1509  xforce=   0.0000E+00   yforce=   0.0000E+00  zforce=   1.7543E+01   energy=  -5.6177E-05   setid =    1509 xmoment=   0.0000E+00 ymoment=   0.0000E+00 zmoment=   0.0000E+00
 nd#    1510  xforce=   0.0000E+00   yforce=   0.0000E+00  zforce=  -2.7440E+00   energy=   2.4745E-04   setid =    1510 xmoment=   0.0000E+00 ymoment=   0.0000E+00 zmoment=   0.0000E+00
 nd#    1659  xforce=   0.0000E+00   yforce=   0.0000E+00  zforce=  -6.0233E+01   energy=   9.6798E-04   setid =    1659 xmoment=   0.0000E+00 ymoment=   0.0000E+00 zmoment=   0.0000E+00
 nd#    1660  xforce=   0.0000E+00   yforce=   0.0000E+00  zforce=   2.3895E+00   energy=   4.6198E-05   setid =    1660 xmoment=   0.0000E+00 ymoment=   0.0000E+00 zmoment=   0.0000E+00
 nd#    1661  xforce=   0.0000E+00   yforce=   0.0000E+00  zforce=   4.9324E+00   energy=   5.8781E-05   setid =    1661 xmoment=   0.0000E+00 ymoment=   0.0000E+00 zmoment=   0.0000E+00
 nd#    1662  xforce=   0.0000E+00   yforce=   0.0000E+00  zforce=  -5.9405E+01   energy=   1.0037E-03   setid =    1662 xmoment=   0.0000E+00 ymoment=   0.0000E+00 zmoment=   0.0000E+00
 nd#    1737  xforce=   0.0000E+00   yforce=   0.0000E+00  zforce=   1.9904E+00   energy=   1.3660E-04   setid =    1737 xmoment=   0.0000E+00 ymoment=   0.0000E+00 zmoment=   0.0000E+00
 nd#    1738  xforce=   0.0000E+00   yforce=   0.0000E+00  zforce=   6.4671E+01   energy=  -7.2167E-04   setid =    1738 xmoment=   0.0000E+00 ymoment=   0.0000E+00 zmoment=   0.0000E+00
 nd#    1887  xforce=   0.0000E+00   yforce=   0.0000E+00  zforce=  -7.9116E+00   energy=   2.4095E-04   setid =    1887 xmoment=   0.0000E+00 ymoment=   0.0000E+00 zmoment=   0.0000E+00
 nd#    1888  xforce=   0.0000E+00   yforce=   0.0000E+00  zforce=  -1.9974E+01   energy=   5.0277E-04   setid =    1888 xmoment=   0.0000E+00 ymoment=   0.0000E+00 zmoment=   0.0000E+00
 nd#    1889  xforce=   0.0000E+00   yforce=   0.0000E+00  zforce=  -2.0246E+01   energy=   4.7398E-04   setid =    1889 xmoment=   0.0000E+00 ymoment=   0.0000E+00 zmoment=   0.0000E+00
 nd#    1890  xforce=   0.0000E+00   yforce=   0.0000E+00  zforce=  -9.3399E+00   energy=   2.4336E-04   setid =    1890 xmoment=   0.0000E+00 ymoment=   0.0000E+00 zmoment=   0.0000E+00
 nd#    2039  xforce=   0.0000E+00   yforce=   0.0000E+00  zforce=  -1.4830E+01   energy=   3.9536E-04   setid =    2039 xmoment=   0.0000E+00 ymoment=   0.0000E+00 zmoment=   0.0000E+00
 nd#    2040  xforce=   0.0000E+00   yforce=   0.0000E+00  zforce=  -1.3925E+01   energy=   3.1788E-04   setid =    2040 xmoment=   0.0000E+00 ymoment=   0.0000E+00 zmoment=   0.0000E+00
 nd#    2041  xforce=   0.0000E+00   yforce=   0.0000E+00  zforce=  -2.1236E+01   energy=   4.6336E-04   setid =    2041 xmoment=   0.0000E+00 ymoment=   0.0000E+00 zmoment=   0.0000E+00
 nd#    2042  xforce=   0.0000E+00   yforce=   0.0000E+00  zforce=  -1.8477E+01   energy=   4.7790E-04   setid =    2042 xmoment=   0.0000E+00 ymoment=   0.0000E+00 zmoment=   0.0000E+00
 nd#    2117  xforce=   0.0000E+00   yforce=   0.0000E+00  zforce=  -2.6578E+01   energy=   5.7742E-04   setid =    2117 xmoment=   0.0000E+00 ymoment=   0.0000E+00 zmoment=   0.0000E+00
 nd#    2118  xforce=   0.0000E+00   yforce=   0.0000E+00  zforce=  -1.9372E+01   energy=   4.3596E-04   setid =    2118 xmoment=   0.0000E+00 ymoment=   0.0000E+00 zmoment=   0.0000E+00
 nd#    2267  xforce=   0.0000E+00   yforce=   0.0000E+00  zforce=  -1.7976E+01   energy=   5.1326E-04   setid =    2267 xmoment=   0.0000E+00 ymoment=   0.0000E+00 zmoment=   0.0000E+00
 nd#    2268  xforce=   0.0000E+00   yforce=   0.0000E+00  zforce=  -2.1305E+01   energy=   4.3538E-04   setid =    2268 xmoment=   0.0000E+00 ymoment=   0.0000E+00 zmoment=   0.0000E+00
 nd#    2269  xforce=   0.0000E+00   yforce=   0.0000E+00  zforce=  -1.2876E+01   energy=   2.4765E-04   setid =    2269 xmoment=   0.0000E+00 ymoment=   0.0000E+00 zmoment=   0.0000E+00
 nd#    2270  xforce=   0.0000E+00   yforce=   0.0000E+00  zforce=  -1.0076E+01   energy=   2.7804E-04   setid =    2270 xmoment=   0.0000E+00 ymoment=   0.0000E+00 zmoment=   0.0000E+00
 nd#    2419  xforce=   0.0000E+00   yforce=   0.0000E+00  zforce=  -2.5023E+01   energy=   5.4489E-04   setid =    2419 xmoment=   0.0000E+00 ymoment=   0.0000E+00 zmoment=   0.0000E+00
 nd#    2420  xforce=   0.0000E+00   yforce=   0.0000E+00  zforce=  -2.6711E+01   energy=   5.6104E-04   setid =    2420 xmoment=   0.0000E+00 ymoment=   0.0000E+00 zmoment=   0.0000E+00
 nd#    2421  xforce=   0.0000E+00   yforce=   0.0000E+00  zforce=  -1.5418E+01   energy=   3.8076E-04   setid =    2421 xmoment=   0.0000E+00 ymoment=   0.0000E+00 zmoment=   0.0000E+00
 nd#    2422  xforce=   0.0000E+00   yforce=   0.0000E+00  zforce=  -1.8687E+01   energy=   4.3573E-04   setid =    2422 xmoment=   0.0000E+00 ymoment=   0.0000E+00 zmoment=   0.0000E+00
 nd#    2497  xforce=   0.0000E+00   yforce=   0.0000E+00  zforce=  -1.8059E+01   energy=   4.4199E-04   setid =    2497 xmoment=   0.0000E+00 ymoment=   0.0000E+00 zmoment=   0.0000E+00
 nd#    2498  xforce=   0.0000E+00   yforce=   0.0000E+00  zforce=  -1.5270E+01   energy=   2.9827E-04   setid =    2498 xmoment=   0.0000E+00 ymoment=   0.0000E+00 zmoment=   0.0000E+00
 nd#    2573  xforce=   0.0000E+00   yforce=   0.0000E+00  zforce=  -3.7317E+01   energy=   6.3020E-04   setid =    2573 xmoment=   0.0000E+00 ymoment=   0.0000E+00 zmoment=   0.0000E+00
 nd#    2574  xforce=   0.0000E+00   yforce=   0.0000E+00  zforce=  -3.2993E+01   energy=   5.7526E-04   setid =    2574 xmoment=   0.0000E+00 ymoment=   0.0000E+00 zmoment=   0.0000E+00
 nd#    2649  xforce=   0.0000E+00   yforce=   0.0000E+00  zforce=  -8.1428E+00   energy=   2.2681E-04   setid =    2649 xmoment=   0.0000E+00 ymoment=   0.0000E+00 zmoment=   0.0000E+00
 nd#    2650  xforce=   0.0000E+00   yforce=   0.0000E+00  zforce=  -8.5749E+00   energy=   2.4956E-04   setid =    2650 xmoment=   0.0000E+00 ymoment=   0.0000E+00 zmoment=   0.0000E+00
 nd#    2725  xforce=   0.0000E+00   yforce=   0.0000E+00  zforce=   1.5923E+01   energy=  -1.2828E-04   setid =    2725 xmoment=   0.0000E+00 ymoment=   0.0000E+00 zmoment=   0.0000E+00
 nd#    2726  xforce=   0.0000E+00   yforce=   0.0000E+00  zforce=  -1.5161E+01   energy=   3.5389E-04   setid =    2726 xmoment=   0.0000E+00 ymoment=   0.0000E+00 zmoment=   0.0000E+00
 nd#    2801  xforce=   0.0000E+00   yforce=   0.0000E+00  zforce=  -3.5083E+01   energy=   5.9065E-04   setid =    2801 xmoment=   0.0000E+00 ymoment=   0.0000E+00 zmoment=   0.0000E+00
 nd#    2802  xforce=   0.0000E+00   yforce=   0.0000E+00  zforce=  -6.0495E+01   energy=   9.2797E-04   setid =    2802 xmoment=   0.0000E+00 ymoment=   0.0000E+00 zmoment=   0.0000E+00
 nd#    2840  xforce=   0.0000E+00   yforce=   0.0000E+00  zforce=   2.7526E+00   energy=   3.9637E-05   setid =    2840 xmoment=   0.0000E+00 ymoment=   0.0000E+00 zmoment=   0.0000E+00
 nd#    2915  xforce=   0.0000E+00   yforce=   0.0000E+00  zforce=  -5.4003E+00   energy=   2.3405E-04   setid =    2915 xmoment=   0.0000E+00 ymoment=   0.0000E+00 zmoment=   0.0000E+00
 nd#    2916  xforce=   0.0000E+00   yforce=   0.0000E+00  zforce=   2.0924E+00   energy=   7.5667E-05   setid =    2916 xmoment=   0.0000E+00 ymoment=   0.0000E+00 zmoment=   0.0000E+00
 nd#    2991  xforce=   0.0000E+00   yforce=   0.0000E+00  zforce=  -2.2121E+01   energy=   5.3464E-04   setid =    2991 xmoment=   0.0000E+00 ymoment=   0.0000E+00 zmoment=   0.0000E+00
 nd#    2992  xforce=   0.0000E+00   yforce=   0.0000E+00  zforce=  -1.7027E+01   energy=   3.6378E-04   setid =    2992 xmoment=   0.0000E+00 ymoment=   0.0000E+00 zmoment=   0.0000E+00
 nd#    3067  xforce=   0.0000E+00   yforce=   0.0000E+00  zforce=  -1.4214E+01   energy=   2.9830E-04   setid =    3067 xmoment=   0.0000E+00 ymoment=   0.0000E+00 zmoment=   0.0000E+00
 nd#    3068  xforce=   0.0000E+00   yforce=   0.0000E+00  zforce=  -1.0762E+01   energy=   2.8903E-04   setid =    3068 xmoment=   0.0000E+00 ymoment=   0.0000E+00 zmoment=   0.0000E+00
 nd#    3143  xforce=   0.0000E+00   yforce=   0.0000E+00  zforce=  -1.5065E+01   energy=   4.3916E-04   setid =    3143 xmoment=   0.0000E+00 ymoment=   0.0000E+00 zmoment=   0.0000E+00
 nd#    3144  xforce=   0.0000E+00   yforce=   0.0000E+00  zforce=  -2.7869E+01   energy=   5.1249E-04   setid =    3144 xmoment=   0.0000E+00 ymoment=   0.0000E+00 zmoment=   0.0000E+00
 nd#    3182  xforce=   0.0000E+00   yforce=   0.0000E+00  zforce=  -1.1909E+01   energy=   2.8754E-04   setid =    3182 xmoment=   0.0000E+00 ymoment=   0.0000E+00 zmoment=   0.0000E+00
 nd#    3220  xforce=   0.0000E+00   yforce=   0.0000E+00  zforce=  -5.5140E+00   energy=   1.6776E-04   setid =    3220 xmoment=   0.0000E+00 ymoment=   0.0000E+00 zmoment=   0.0000E+00
 nd#    3258  xforce=   0.0000E+00   yforce=   0.0000E+00  zforce=  -1.3510E+01   energy=   3.1896E-04   setid =    3258 xmoment=   0.0000E+00 ymoment=   0.0000E+00 zmoment=   0.0000E+00
 nd#    3333  xforce=   0.0000E+00   yforce=   0.0000E+00  zforce=  -1.5711E+01   energy=   3.9876E-04   setid =    3333 xmoment=   0.0000E+00 ymoment=   0.0000E+00 zmoment=   0.0000E+00
 nd#    3334  xforce=   0.0000E+00   yforce=   0.0000E+00  zforce=  -1.2970E+00   energy=   1.9283E-04   setid =    3334 xmoment=   0.0000E+00 ymoment=   0.0000E+00 zmoment=   0.0000E+00
 nd#    3372  xforce=   0.0000E+00   yforce=   0.0000E+00  zforce=  -1.6542E+01   energy=   2.6810E-04   setid =    3372 xmoment=   0.0000E+00 ymoment=   0.0000E+00 zmoment=   0.0000E+00
 nd#    3410  xforce=   0.0000E+00   yforce=   0.0000E+00  zforce=  -3.1116E+01   energy=   5.2835E-04   setid =    3410 xmoment=   0.0000E+00 ymoment=   0.0000E+00 zmoment=   0.0000E+00
 nd#    3448  xforce=   0.0000E+00   yforce=   0.0000E+00  zforce=  -1.0888E+01   energy=   3.0776E-04   setid =    3448 xmoment=   0.0000E+00 ymoment=   0.0000E+00 zmoment=   0.0000E+00
 nd#    3486  xforce=   0.0000E+00   yforce=   0.0000E+00  zforce=  -1.3368E+01   energy=   3.4930E-04   setid =    3486 xmoment=   0.0000E+00 ymoment=   0.0000E+00 zmoment=   0.0000E+00
 nd#    3524  xforce=   0.0000E+00   yforce=   0.0000E+00  zforce=  -2.1915E+01   energy=   4.5825E-04   setid =    3524 xmoment=   0.0000E+00 ymoment=   0.0000E+00 zmoment=   0.0000E+00
 nd#    3562  xforce=   0.0000E+00   yforce=   0.0000E+00  zforce=  -1.1447E+01   energy=   2.5533E-04   setid =    3562 xmoment=   0.0000E+00 ymoment=   0.0000E+00 zmoment=   0.0000E+00
 nd#    3613  xforce=   0.0000E+00   yforce=   0.0000E+00  zforce=   2.3599E+00   energy=  -3.7888E-07   setid =    3613 xmoment=   0.0000E+00 ymoment=   0.0000E+00 zmoment=   0.0000E+00
 nd#    3614  xforce=   0.0000E+00   yforce=   0.0000E+00  zforce=  -4.9982E+00   energy=   1.8536E-04   setid =    3614 xmoment=   0.0000E+00 ymoment=   0.0000E+00 zmoment=   0.0000E+00
 nd#    3615  xforce=   0.0000E+00   yforce=   0.0000E+00  zforce=  -7.2386E+00   energy=   2.1021E-04   setid =    3615 xmoment=   0.0000E+00 ymoment=   0.0000E+00 zmoment=   0.0000E+00
 nd#    3616  xforce=   0.0000E+00   yforce=   0.0000E+00  zforce=  -8.0959E+00   energy=   2.1672E-04   setid =    3616 xmoment=   0.0000E+00 ymoment=   0.0000E+00 zmoment=   0.0000E+00
 nd#    3617  xforce=   0.0000E+00   yforce=   0.0000E+00  zforce=  -8.3790E+00   energy=   2.1667E-04   setid =    3617 xmoment=   0.0000E+00 ymoment=   0.0000E+00 zmoment=   0.0000E+00
 nd#    3618  xforce=   0.0000E+00   yforce=   0.0000E+00  zforce=  -8.6483E+00   energy=   2.1717E-04   setid =    3618 xmoment=   0.0000E+00 ymoment=   0.0000E+00 zmoment=   0.0000E+00
[...]
 nd#    3624  xforce=   0.0000E+00   yforce=   0.0000E+00  zforce=  -2.8809E+01   energy=   3.7077E-02   setid =    3624 xmoment=   0.0000E+00 ymoment=   0.0000E+00 zmoment=   0.0000E+00
 nd#    3625  xforce=   0.0000E+00   yforce=   0.0000E+00  zforce=  -2.4529E+01   energy=   3.2146E-02   setid =    3625 xmoment=   0.0000E+00 ymoment=   0.0000E+00 zmoment=   0.0000E+00
 nd#    4590  xforce=   0.0000E+00   yforce=   0.0000E+00  zforce=  -1.4383E+01   energy=   1.8302E-02   setid =    4590 xmoment=   0.0000E+00 ymoment=   0.0000E+00 zmoment=   0.0000E+00
 nd#    4591  xforce=   0.0000E+00   yforce=   0.0000E+00  zforce=  -2.7166E+01   energy=   2.7314E-02   setid =    4591 xmoment=   0.0000E+00 ymoment=   0.0000E+00 zmoment=   0.0000E+00
 nd#    4594  xforce=   0.0000E+00   yforce=   0.0000E+00  zforce=  -2.8806E+01   energy=   4.6697E-02   setid =    4594 xmoment=   0.0000E+00 ymoment=   0.0000E+00 zmoment=   0.0000E+00
 nd#    4595  xforce=   0.0000E+00   yforce=   0.0000E+00  zforce=  -2.5425E+01   energy=   4.1867E-02   setid =    4595 xmoment=   0.0000E+00 ymoment=   0.0000E+00 zmoment=   0.0000E+00
 nd#    4598  xforce=   0.0000E+00   yforce=   0.0000E+00  zforce=  -9.1396E+00   energy=   3.2802E-02   setid =    4598 xmoment=   0.0000E+00 ymoment=   0.0000E+00 zmoment=   0.0000E+00
 nd#    4599  xforce=   0.0000E+00   yforce=   0.0000E+00  zforce=  -2.6940E+01   energy=   4.3496E-02   setid =    4599 xmoment=   0.0000E+00 ymoment=   0.0000E+00 zmoment=   0.0000E+00
 nd#    4602  xforce=   0.0000E+00   yforce=   0.0000E+00  zforce=  -3.8445E+01   energy=   5.4198E-02   setid =    4602 xmoment=   0.0000E+00 ymoment=   0.0000E+00 zmoment=   0.0000E+00
 nd#    4603  xforce=   0.0000E+00   yforce=   0.0000E+00  zforce=  -3.0649E+01   energy=   3.9109E-02   setid =    4603 xmoment=   0.0000E+00 ymoment=   0.0000E+00 zmoment=   0.0000E+00
 nd#    4606  xforce=   0.0000E+00   yforce=   0.0000E+00  zforce=   5.6670E+00   energy=   3.8451E-02   setid =    4606 xmoment=   0.0000E+00 ymoment=   0.0000E+00 zmoment=   0.0000E+00
 nd#    4607  xforce=   0.0000E+00   yforce=   0.0000E+00  zforce=  -2.3168E+00   energy=   4.3377E-02   setid =    4607 xmoment=   0.0000E+00 ymoment=   0.0000E+00 zmoment=   0.0000E+00
 nd#    4610  xforce=   0.0000E+00   yforce=   0.0000E+00  zforce=   7.6063E+00   energy=   3.0601E-02   setid =    4610 xmoment=   0.0000E+00 ymoment=   0.0000E+00 zmoment=   0.0000E+00
 nd#    4611  xforce=   0.0000E+00   yforce=   0.0000E+00  zforce=  -1.0717E+01   energy=   4.0816E-02   setid =    4611 xmoment=   0.0000E+00 ymoment=   0.0000E+00 zmoment=   0.0000E+00
 nd#    4614  xforce=   0.0000E+00   yforce=   0.0000E+00  zforce=  -5.6996E+01   energy=   4.9550E-02   setid =    4614 xmoment=   0.0000E+00 ymoment=   0.0000E+00 zmoment=   0.0000E+00
 nd#    4615  xforce=   0.0000E+00   yforce=   0.0000E+00  zforce=  -4.5187E+01   energy=   4.5244E-02   setid =    4615 xmoment=   0.0000E+00 ymoment=   0.0000E+00 zmoment=   0.0000E+00
 nd#    4618  xforce=   0.0000E+00   yforce=   0.0000E+00  zforce=  -1.1928E+01   energy=   1.9545E-02   setid =    4618 xmoment=   0.0000E+00 ymoment=   0.0000E+00 zmoment=   0.0000E+00
 nd#    4619  xforce=   0.0000E+00   yforce=   0.0000E+00  zforce=  -1.5545E+00   energy=   1.5889E-02   setid =    4619 xmoment=   0.0000E+00 ymoment=   0.0000E+00 zmoment=   0.0000E+00
 nd#    4622  xforce=   0.0000E+00   yforce=   0.0000E+00  zforce=  -1.8823E+01   energy=   2.9474E-02   setid =    4622 xmoment=   0.0000E+00 ymoment=   0.0000E+00 zmoment=   0.0000E+00
 nd#    4623  xforce=   0.0000E+00   yforce=   0.0000E+00  zforce=  -1.5425E+01   energy=   4.6101E-02   setid =    4623 xmoment=   0.0000E+00 ymoment=   0.0000E+00 zmoment=   0.0000E+00
 nd#    4626  xforce=   0.0000E+00   yforce=   0.0000E+00  zforce=  -3.0232E+01   energy=   3.4345E-02   setid =    4626 xmoment=   0.0000E+00 ymoment=   0.0000E+00 zmoment=   0.0000E+00
 nd#    4627  xforce=   0.0000E+00   yforce=   0.0000E+00  zforce=  -2.7794E+01   energy=   3.3512E-02   setid =    4627 xmoment=   0.0000E+00 ymoment=   0.0000E+00 zmoment=   0.0000E+00
 nd#    4630  xforce=   0.0000E+00   yforce=   0.0000E+00  zforce=  -2.3211E+01   energy=   3.5948E-02   setid =    4630 xmoment=   0.0000E+00 ymoment=   0.0000E+00 zmoment=   0.0000E+00
 nd#    4631  xforce=   0.0000E+00   yforce=   0.0000E+00  zforce=   7.6322E+00   energy=   3.5518E-02   setid =    4631 xmoment=   0.0000E+00 ymoment=   0.0000E+00 zmoment=   0.0000E+00
 nd#    4634  xforce=   0.0000E+00   yforce=   0.0000E+00  zforce=   1.6732E+01   energy=  -1.7726E-03   setid =    4634 xmoment=   0.0000E+00 ymoment=   0.0000E+00 zmoment=   0.0000E+00
 nd#    4635  xforce=   0.0000E+00   yforce=   0.0000E+00  zforce=  -2.7966E+01   energy=   7.2210E-02   setid =    4635 xmoment=   0.0000E+00 ymoment=   0.0000E+00 zmoment=   0.0000E+00
 nd#    4638  xforce=   0.0000E+00   yforce=   0.0000E+00  zforce=  -1.1311E+01   energy=   6.4728E-02   setid =    4638 xmoment=   0.0000E+00 ymoment=   0.0000E+00 zmoment=   0.0000E+00
 nd#    4639  xforce=   0.0000E+00   yforce=   0.0000E+00  zforce=  -9.7865E+00   energy=   2.4216E-02   setid =    4639 xmoment=   0.0000E+00 ymoment=   0.0000E+00 zmoment=   0.0000E+00
 nd#    4642  xforce=   0.0000E+00   yforce=   0.0000E+00  zforce=   6.9070E+00   energy=  -1.5352E-02   setid =    4642 xmoment=   0.0000E+00 ymoment=   0.0000E+00 zmoment=   0.0000E+00
 nd#    4643  xforce=   0.0000E+00   yforce=   0.0000E+00  zforce=  -3.6350E+01   energy=   7.6518E-02   setid =    4643 xmoment=   0.0000E+00 ymoment=   0.0000E+00 zmoment=   0.0000E+00
 nd#    4646  xforce=   0.0000E+00   yforce=   0.0000E+00  zforce=  -3.1865E+01   energy=   4.8313E-02   setid =    4646 xmoment=   0.0000E+00 ymoment=   0.0000E+00 zmoment=   0.0000E+00
 nd#    4647  xforce=   0.0000E+00   yforce=   0.0000E+00  zforce=  -7.9400E+01   energy=   6.6967E-02   setid =    4647 xmoment=   0.0000E+00 ymoment=   0.0000E+00 zmoment=   0.0000E+00
 nd#    4650  xforce=   0.0000E+00   yforce=   0.0000E+00  zforce=   1.2177E+01   energy=   5.9568E-04   setid =    4650 xmoment=   0.0000E+00 ymoment=   0.0000E+00 zmoment=   0.0000E+00
 nd#    4651  xforce=   0.0000E+00   yforce=   0.0000E+00  zforce=  -7.1323E+00   energy=   1.0732E-02   setid =    4651 xmoment=   0.0000E+00 ymoment=   0.0000E+00 zmoment=   0.0000E+00
 nd#    4838  xforce=   0.0000E+00   yforce=   0.0000E+00  zforce=  -1.2970E+01   energy=   2.8521E-02   setid =    4838 xmoment=   0.0000E+00 ymoment=   0.0000E+00 zmoment=   0.0000E+00
 nd#    4839  xforce=   0.0000E+00   yforce=   0.0000E+00  zforce=  -4.2360E+00   energy=  -5.2793E-04   setid =    4839 xmoment=   0.0000E+00 ymoment=   0.0000E+00 zmoment=   0.0000E+00
 nd#    4842  xforce=   0.0000E+00   yforce=   0.0000E+00  zforce=  -1.9476E+01   energy=   1.7120E-02   setid =    4842 xmoment=   0.0000E+00 ymoment=   0.0000E+00 zmoment=   0.0000E+00
 nd#    4843  xforce=   0.0000E+00   yforce=   0.0000E+00  zforce=  -4.3435E+00   energy=  -8.6334E-03   setid =    4843 xmoment=   0.0000E+00 ymoment=   0.0000E+00 zmoment=   0.0000E+00
 nd#    4846  xforce=   0.0000E+00   yforce=   0.0000E+00  zforce=   2.7225E+01   energy=  -2.4407E-02   setid =    4846 xmoment=   0.0000E+00 ymoment=   0.0000E+00 zmoment=   0.0000E+00
 nd#    4847  xforce=   0.0000E+00   yforce=   0.0000E+00  zforce=   2.3864E+00   energy=   8.0136E-03   setid =    4847 xmoment=   0.0000E+00 ymoment=   0.0000E+00 zmoment=   0.0000E+00
 nd#    4850  xforce=   0.0000E+00   yforce=   0.0000E+00  zforce=  -9.3366E+00   energy=   3.7172E-02   setid =    4850 xmoment=   0.0000E+00 ymoment=   0.0000E+00 zmoment=   0.0000E+00
 nd#    4851  xforce=   0.0000E+00   yforce=   0.0000E+00  zforce=   6.3455E+00   energy=  -1.9597E-02   setid =    4851 xmoment=   0.0000E+00 ymoment=   0.0000E+00 zmoment=   0.0000E+00
 nd#    4854  xforce=   0.0000E+00   yforce=   0.0000E+00  zforce=  -1.2393E+01   energy=   2.8577E-02   setid =    4854 xmoment=   0.0000E+00 ymoment=   0.0000E+00 zmoment=   0.0000E+00
 nd#    4855  xforce=   0.0000E+00   yforce=   0.0000E+00  zforce=  -1.1826E+01   energy=   4.1307E-02   setid =    4855 xmoment=   0.0000E+00 ymoment=   0.0000E+00 zmoment=   0.0000E+00
 nd#    4858  xforce=   0.0000E+00   yforce=   0.0000E+00  zforce=  -2.4792E+01   energy=   3.5498E-02   setid =    4858 xmoment=   0.0000E+00 ymoment=   0.0000E+00 zmoment=   0.0000E+00
 nd#    4859  xforce=   0.0000E+00   yforce=   0.0000E+00  zforce=   4.1305E+00   energy=  -2.2580E-02   setid =    4859 xmoment=   0.0000E+00 ymoment=   0.0000E+00 zmoment=   0.0000E+00
 nd#    4862  xforce=   0.0000E+00   yforce=   0.0000E+00  zforce=  -1.6976E+01   energy=   5.6543E-02   setid =    4862 xmoment=   0.0000E+00 ymoment=   0.0000E+00 zmoment=   0.0000E+00
 nd#    4863  xforce=   0.0000E+00   yforce=   0.0000E+00  zforce=  -1.0731E+01   energy=   3.3505E-02   setid =    4863 xmoment=   0.0000E+00 ymoment=   0.0000E+00 zmoment=   0.0000E+00
 nd#    4866  xforce=   0.0000E+00   yforce=   0.0000E+00  zforce=  -8.3338E+00   energy=  -2.3351E-03   setid =    4866 xmoment=   0.0000E+00 ymoment=   0.0000E+00 zmoment=   0.0000E+00
 nd#    4867  xforce=   0.0000E+00   yforce=   0.0000E+00  zforce=   9.5460E+00   energy=  -3.0995E-02   setid =    4867 xmoment=   0.0000E+00 ymoment=   0.0000E+00 zmoment=   0.0000E+00
 nd#    6646  xforce=   0.0000E+00   yforce=   0.0000E+00  zforce=  -1.9382E+01   energy=   4.3221E-02   setid =    6646 xmoment=   0.0000E+00 ymoment=   0.0000E+00 zmoment=   0.0000E+00
 nd#    6647  xforce=   0.0000E+00   yforce=   0.0000E+00  zforce=  -2.9017E+00   energy=   1.9491E-02   setid =    6647 xmoment=   0.0000E+00 ymoment=   0.0000E+00 zmoment=   0.0000E+00
 nd#    6648  xforce=   0.0000E+00   yforce=   0.0000E+00  zforce=  -1.8863E+01   energy=   3.7418E-02   setid =    6648 xmoment=   0.0000E+00 ymoment=   0.0000E+00 zmoment=   0.0000E+00
 nd#    6649  xforce=   0.0000E+00   yforce=   0.0000E+00  zforce=  -3.8577E+01   energy=   8.4906E-02   setid =    6649 xmoment=   0.0000E+00 ymoment=   0.0000E+00 zmoment=   0.0000E+00
 nd#    6650  xforce=   0.0000E+00   yforce=   0.0000E+00  zforce=   7.5469E+00   energy=  -2.1333E-03   setid =    6650 xmoment=   0.0000E+00 ymoment=   0.0000E+00 zmoment=   0.0000E+00
 nd#    6651  xforce=   0.0000E+00   yforce=   0.0000E+00  zforce=  -4.0185E+00   energy=   4.9790E-02   setid =    6651 xmoment=   0.0000E+00 ymoment=   0.0000E+00 zmoment=   0.0000E+00
 nd#    6652  xforce=   0.0000E+00   yforce=   0.0000E+00  zforce=  -4.0534E+01   energy=   3.5531E-02   setid =    6652 xmoment=   0.0000E+00 ymoment=   0.0000E+00 zmoment=   0.0000E+00
 nd#    6653  xforce=   0.0000E+00   yforce=   0.0000E+00  zforce=  -8.1637E+00   energy=   1.0965E-02   setid =    6653 xmoment=   0.0000E+00 ymoment=   0.0000E+00 zmoment=   0.0000E+00
 nd#    6838  xforce=   0.0000E+00   yforce=   0.0000E+00  zforce=  -4.5671E+00   energy=   3.6370E-04   setid =    6838 xmoment=   0.0000E+00 ymoment=   0.0000E+00 zmoment=   0.0000E+00
 nd#    6839  xforce=   0.0000E+00   yforce=   0.0000E+00  zforce=   4.4718E-01   energy=  -1.0894E-02   setid =    6839 xmoment=   0.0000E+00 ymoment=   0.0000E+00 zmoment=   0.0000E+00
 nd#    6841  xforce=   0.0000E+00   yforce=   0.0000E+00  zforce=  -3.3332E+01   energy=   6.1004E-02   setid =    6841 xmoment=   0.0000E+00 ymoment=   0.0000E+00 zmoment=   0.0000E+00
 nd#    6842  xforce=   0.0000E+00   yforce=   0.0000E+00  zforce=  -2.5671E+01   energy=   4.2278E-02   setid =    6842 xmoment=   0.0000E+00 ymoment=   0.0000E+00 zmoment=   0.0000E+00
 nd#    6844  xforce=   0.0000E+00   yforce=   0.0000E+00  zforce=  -2.3150E+01   energy=   3.3435E-02   setid =    6844 xmoment=   0.0000E+00 ymoment=   0.0000E+00 zmoment=   0.0000E+00
 nd#    6845  xforce=   0.0000E+00   yforce=   0.0000E+00  zforce=  -1.6883E+01   energy=   1.9294E-02   setid =    6845 xmoment=   0.0000E+00 ymoment=   0.0000E+00 zmoment=   0.0000E+00
 nd#    6847  xforce=   0.0000E+00   yforce=   0.0000E+00  zforce=  -3.3736E+01   energy=   5.5346E-02   setid =    6847 xmoment=   0.0000E+00 ymoment=   0.0000E+00 zmoment=   0.0000E+00
 nd#    6848  xforce=   0.0000E+00   yforce=   0.0000E+00  zforce=  -2.6526E+01   energy=   3.9169E-02   setid =    6848 xmoment=   0.0000E+00 ymoment=   0.0000E+00 zmoment=   0.0000E+00
 nd#    6850  xforce=   0.0000E+00   yforce=   0.0000E+00  zforce=  -3.2534E+01   energy=   5.6884E-02   setid =    6850 xmoment=   0.0000E+00 ymoment=   0.0000E+00 zmoment=   0.0000E+00
 nd#    6851  xforce=   0.0000E+00   yforce=   0.0000E+00  zforce=  -1.3660E+01   energy=   3.9050E-02   setid =    6851 xmoment=   0.0000E+00 ymoment=   0.0000E+00 zmoment=   0.0000E+00
 nd#    6853  xforce=   0.0000E+00   yforce=   0.0000E+00  zforce=  -1.7186E+01   energy=   3.3616E-02   setid =    6853 xmoment=   0.0000E+00 ymoment=   0.0000E+00 zmoment=   0.0000E+00
 nd#    6854  xforce=   0.0000E+00   yforce=   0.0000E+00  zforce=  -2.3828E+00   energy=   1.7602E-02   setid =    6854 xmoment=   0.0000E+00 ymoment=   0.0000E+00 zmoment=   0.0000E+00
 nd#    6856  xforce=   0.0000E+00   yforce=   0.0000E+00  zforce=  -4.3939E+01   energy=   5.6043E-02   setid =    6856 xmoment=   0.0000E+00 ymoment=   0.0000E+00 zmoment=   0.0000E+00
 nd#    6857  xforce=   0.0000E+00   yforce=   0.0000E+00  zforce=  -3.5646E+01   energy=   3.5616E-02   setid =    6857 xmoment=   0.0000E+00 ymoment=   0.0000E+00 zmoment=   0.0000E+00
 nd#    6859  xforce=   0.0000E+00   yforce=   0.0000E+00  zforce=  -1.2657E+01   energy=   2.0834E-02   setid =    6859 xmoment=   0.0000E+00 ymoment=   0.0000E+00 zmoment=   0.0000E+00
 nd#    6860  xforce=   0.0000E+00   yforce=   0.0000E+00  zforce=  -8.4169E+00   energy=   1.2114E-02   setid =    6860 xmoment=   0.0000E+00 ymoment=   0.0000E+00 zmoment=   0.0000E+00
 nd#    6894  xforce=   0.0000E+00   yforce=   0.0000E+00  zforce=  -9.9807E+00   energy=   2.6357E-02   setid =    6894 xmoment=   0.0000E+00 ymoment=   0.0000E+00 zmoment=   0.0000E+00
 nd#    6895  xforce=   0.0000E+00   yforce=   0.0000E+00  zforce=  -2.5743E+01   energy=   4.9755E-02   setid =    6895 xmoment=   0.0000E+00 ymoment=   0.0000E+00 zmoment=   0.0000E+00
 nd#    6896  xforce=   0.0000E+00   yforce=   0.0000E+00  zforce=   2.4923E+00   energy=   9.8769E-03   setid =    6896 xmoment=   0.0000E+00 ymoment=   0.0000E+00 zmoment=   0.0000E+00
 nd#    6897  xforce=   0.0000E+00   yforce=   0.0000E+00  zforce=   2.1251E+01   energy=   3.1740E-02   setid =    6897 xmoment=   0.0000E+00 ymoment=   0.0000E+00 zmoment=   0.0000E+00
 nd#    6898  xforce=   0.0000E+00   yforce=   0.0000E+00  zforce=  -4.3730E+01   energy=   7.2206E-02   setid =    6898 xmoment=   0.0000E+00 ymoment=   0.0000E+00 zmoment=   0.0000E+00
 nd#    6899  xforce=   0.0000E+00   yforce=   0.0000E+00  zforce=   1.8706E+01   energy=   5.3833E-03   setid =    6899 xmoment=   0.0000E+00 ymoment=   0.0000E+00 zmoment=   0.0000E+00
 nd#    6900  xforce=   0.0000E+00   yforce=   0.0000E+00  zforce=  -4.3348E+01   energy=   2.7381E-02   setid =    6900 xmoment=   0.0000E+00 ymoment=   0.0000E+00 zmoment=   0.0000E+00
 nd#    6901  xforce=   0.0000E+00   yforce=   0.0000E+00  zforce=  -8.1775E-01   energy=   1.1604E-02   setid =    6901 xmoment=   0.0000E+00 ymoment=   0.0000E+00 zmoment=   0.0000E+00
 nd#    6990  xforce=   0.0000E+00   yforce=   0.0000E+00  zforce=   5.7284E+00   energy=  -1.8050E-02   setid =    6990 xmoment=   0.0000E+00 ymoment=   0.0000E+00 zmoment=   0.0000E+00
 nd#    6991  xforce=   0.0000E+00   yforce=   0.0000E+00  zforce=  -3.2443E+01   energy=   5.6925E-02   setid =    6991 xmoment=   0.0000E+00 ymoment=   0.0000E+00 zmoment=   0.0000E+00
 nd#    6992  xforce=   0.0000E+00   yforce=   0.0000E+00  zforce=  -2.0999E+01   energy=   2.5430E-02   setid =    6992 xmoment=   0.0000E+00 ymoment=   0.0000E+00 zmoment=   0.0000E+00
 nd#    6993  xforce=   0.0000E+00   yforce=   0.0000E+00  zforce=  -3.5866E+01   energy=   5.4861E-02   setid =    6993 xmoment=   0.0000E+00 ymoment=   0.0000E+00 zmoment=   0.0000E+00
 nd#    6994  xforce=   0.0000E+00   yforce=   0.0000E+00  zforce=  -3.5967E+01   energy=   5.4349E-02   setid =    6994 xmoment=   0.0000E+00 ymoment=   0.0000E+00 zmoment=   0.0000E+00
 nd#    6995  xforce=   0.0000E+00   yforce=   0.0000E+00  zforce=  -1.5835E+01   energy=   3.1892E-02   setid =    6995 xmoment=   0.0000E+00 ymoment=   0.0000E+00 zmoment=   0.0000E+00
 nd#    6996  xforce=   0.0000E+00   yforce=   0.0000E+00  zforce=  -4.2383E+01   energy=   5.3773E-02   setid =    6996 xmoment=   0.0000E+00 ymoment=   0.0000E+00 zmoment=   0.0000E+00
 nd#    6997  xforce=   0.0000E+00   yforce=   0.0000E+00  zforce=  -9.7334E+00   energy=   1.6569E-02   setid =    6997 xmoment=   0.0000E+00 ymoment=   0.0000E+00 zmoment=   0.0000E+00
 nd#    7454  xforce=   0.0000E+00   yforce=   0.0000E+00  zforce=  -5.8701E+00   energy=   2.1836E-02   setid =    7454 xmoment=   0.0000E+00 ymoment=   0.0000E+00 zmoment=   0.0000E+00
 nd#    7455  xforce=   0.0000E+00   yforce=   0.0000E+00  zforce=  -2.4318E+01   energy=   4.7145E-02   setid =    7455 xmoment=   0.0000E+00 ymoment=   0.0000E+00 zmoment=   0.0000E+00
 nd#    7456  xforce=   0.0000E+00   yforce=   0.0000E+00  zforce=  -7.3299E+00   energy=   2.0755E-02   setid =    7456 xmoment=   0.0000E+00 ymoment=   0.0000E+00 zmoment=   0.0000E+00
 nd#    7457  xforce=   0.0000E+00   yforce=   0.0000E+00  zforce=  -1.1406E+01   energy=   2.8680E-02   setid =    7457 xmoment=   0.0000E+00 ymoment=   0.0000E+00 zmoment=   0.0000E+00
 nd#    7458  xforce=   0.0000E+00   yforce=   0.0000E+00  zforce=  -2.5748E+01   energy=   8.4131E-02   setid =    7458 xmoment=   0.0000E+00 ymoment=   0.0000E+00 zmoment=   0.0000E+00
 nd#    7459  xforce=   0.0000E+00   yforce=   0.0000E+00  zforce=  -6.6183E+00   energy=   4.3205E-03   setid =    7459 xmoment=   0.0000E+00 ymoment=   0.0000E+00 zmoment=   0.0000E+00
 nd#    7460  xforce=   0.0000E+00   yforce=   0.0000E+00  zforce=  -6.6514E+01   energy=   8.6312E-02   setid =    7460 xmoment=   0.0000E+00 ymoment=   0.0000E+00 zmoment=   0.0000E+00
 nd#    7461  xforce=   0.0000E+00   yforce=   0.0000E+00  zforce=  -7.1126E+00   energy=  -7.9516E-03   setid =    7461 xmoment=   0.0000E+00 ymoment=   0.0000E+00 zmoment=   0.0000E+00
 nd#    7934  xforce=   0.0000E+00   yforce=   0.0000E+00  zforce=  -1.5163E+01   energy=   1.7591E-02   setid =    7934 xmoment=   0.0000E+00 ymoment=   0.0000E+00 zmoment=   0.0000E+00
 nd#    7936  xforce=   0.0000E+00   yforce=   0.0000E+00  zforce=  -3.6816E+01   energy=   6.3715E-02   setid =    7936 xmoment=   0.0000E+00 ymoment=   0.0000E+00 zmoment=   0.0000E+00
 nd#    7938  xforce=   0.0000E+00   yforce=   0.0000E+00  zforce=  -2.7720E+01   energy=   4.3342E-02   setid =    7938 xmoment=   0.0000E+00 ymoment=   0.0000E+00 zmoment=   0.0000E+00
 nd#    7940  xforce=   0.0000E+00   yforce=   0.0000E+00  zforce=  -3.6433E+01   energy=   6.1817E-02   setid =    7940 xmoment=   0.0000E+00 ymoment=   0.0000E+00 zmoment=   0.0000E+00
 nd#    7942  xforce=   0.0000E+00   yforce=   0.0000E+00  zforce=  -2.5527E+01   energy=   6.2110E-02   setid =    7942 xmoment=   0.0000E+00 ymoment=   0.0000E+00 zmoment=   0.0000E+00
 nd#    7944  xforce=   0.0000E+00   yforce=   0.0000E+00  zforce=   2.2999E-01   energy=   3.6980E-02   setid =    7944 xmoment=   0.0000E+00 ymoment=   0.0000E+00 zmoment=   0.0000E+00
 nd#    7946  xforce=   0.0000E+00   yforce=   0.0000E+00  zforce=  -3.0557E+01   energy=   5.4446E-02   setid =    7946 xmoment=   0.0000E+00 ymoment=   0.0000E+00 zmoment=   0.0000E+00
 nd#    7948  xforce=   0.0000E+00   yforce=   0.0000E+00  zforce=  -9.3196E+00   energy=   2.2758E-02   setid =    7948 xmoment=   0.0000E+00 ymoment=   0.0000E+00 zmoment=   0.0000E+00
              xtotal=   0.0000E+00   ytotal=   0.0000E+00  ztotal=  -3.3709E+03   etotal=   5.5898E+00
