 LS-DYNA keyword deck by LS-PrePost                                      
                    ls-dyna smp d R14 R14.1.1s_1_ef50e1 date 06/16/2024



 e l e m e n t   s t r e s s   c a l c u l a t i o n s   f o r   t i m e  s t e p        1   ( at time 0.00000E+00 )

 element  materl
     ipt  stress       sig-xx      sig-yy      sig-zz      sig-xy      sig-yz      sig-zx                       yield
           state                                                                                  effsg      function
      49-      1
       1           0.0000E+00  0.0000E+00  0.0000E+00  0.0000E+00  0.0000E+00  0.0000E+00    0.0000E+00    0.0000E+00
      94-      1
       1          -1.9509E-06 -1.9509E-06 -1.9509E-06  0.0000E+00  0.0000E+00  0.0000E+00    0.0000E+00    0.0000E+00
     154-      1
       1          -1.9509E-06 -1.9509E-06 -1.9509E-06  0.0000E+00  0.0000E+00  0.0000E+00    0.0000E+00    0.0000E+00
     364-      1
       1          -3.9019E-06 -3.9019E-06 -3.9019E-06  0.0000E+00  0.0000E+00  0.0000E+00    0.0000E+00    0.0000E+00
     469-      1
       1          -5.8528E-06 -5.8528E-06 -5.8528E-06  0.0000E+00  0.0000E+00  0.0000E+00    0.0000E+00    0.0000E+00
     529-      1
       1           0.0000E+00  0.0000E+00  0.0000E+00  0.0000E+00  0.0000E+00  0.0000E+00    0.0000E+00    0.0000E+00
     589-      1
       1          -1.9509E-06 -1.9509E-06 -1.9509E-06  0.0000E+00  0.0000E+00  0.0000E+00    0.0000E+00    0.0000E+00
     604-      1
       1          -1.9509E-06 -1.9509E-06 -1.9509E-06  0.0000E+00  0.0000E+00  0.0000E+00    0.0000E+00    0.0000E+00



 e l e m e n t   s t r a i n   c a l c u l a t i o n s   f o r   t i m e  s t e p        1   ( at time  0.00000E+00 )

 element  strain       eps-xx      eps-yy      eps-zz      eps-xy      eps-yz      eps-zx                            yield
 num/ipt   state
      49-      1
      1            0.0000E+00  0.0000E+00  0.0000E+00  0.0000E+00  0.0000E+00  0.0000E+00
      94-      1
      1            0.0000E+00  0.0000E+00  0.0000E+00  0.0000E+00  0.0000E+00  0.0000E+00
     154-      1
      1            0.0000E+00  0.0000E+00  0.0000E+00  0.0000E+00  0.0000E+00  0.0000E+00
     364-      1
      1            0.0000E+00  0.0000E+00  0.0000E+00  0.0000E+00  0.0000E+00  0.0000E+00
     469-      1
      1            0.0000E+00  0.0000E+00  0.0000E+00  0.0000E+00  0.0000E+00  0.0000E+00
     529-      1
      1            0.0000E+00  0.0000E+00  0.0000E+00  0.0000E+00  0.0000E+00  0.0000E+00
     589-      1
      1            0.0000E+00  0.0000E+00  0.0000E+00  0.0000E+00  0.0000E+00  0.0000E+00
     604-      1
      1            0.0000E+00  0.0000E+00  0.0000E+00  0.0000E+00  0.0000E+00  0.0000E+00



 e l e m e n t   s t r e s s   c a l c u l a t i o n s   f o r   t i m e  s t e p       10   ( at time 1.29245E+00 )

 element  materl
     ipt  stress       sig-xx      sig-yy      sig-zz      sig-xy      sig-yz      sig-zx                       yield
           state                                                                                  effsg      function
      49-      1
       1          -3.6190E+07 -1.1529E+07 -2.7559E+08  7.4210E+06 -7.1969E+06 -2.1762E+06    2.5330E+08    1.7785E-04
      94-      1
       1          -3.3876E+07 -1.4832E+07 -2.7531E+08  1.0950E+07 -6.7771E+06 -3.5749E+06    2.5256E+08    1.8621E-04
     154-      1
       1          -3.8578E+07 -9.5536E+06 -2.7553E+08  1.1153E+06 -7.2559E+06 -5.9461E+05    2.5304E+08    1.8073E-04
     364-      1
       1          -2.6414E+07 -2.4601E+07 -2.7422E+08  1.5348E+07 -5.2502E+06 -6.2344E+06    2.5053E+08    2.0546E-04
     469-      1
       1          -1.2381E+07 -3.9316E+07 -2.7726E+08  3.9015E+06 -8.5545E+05 -8.9431E+06    2.5306E+08    1.8765E-04
     529-      1
       1          -3.0368E+07 -1.8761E+07 -2.7421E+08  1.3725E+07 -6.1054E+06 -4.9771E+06    2.5135E+08    2.0015E-04
     589-      1
       1          -2.0477E+07 -3.0391E+07 -2.7460E+08  1.4154E+07 -4.0571E+06 -7.3994E+06    2.5094E+08    1.9939E-04
     604-      1
       1          -1.5272E+07 -3.5766E+07 -2.7593E+08  1.0170E+07 -2.5943E+06 -8.3443E+06    2.5212E+08    1.9092E-04



 e l e m e n t   s t r a i n   c a l c u l a t i o n s   f o r   t i m e  s t e p       10   ( at time  1.29245E+00 )

 element  strain       eps-xx      eps-yy      eps-zz      eps-xy      eps-yz      eps-zx                            yield
 num/ipt   state
      49-      1
      1            1.0545E-03  1.5934E-03 -4.1856E-03  1.6211E-04 -1.5841E-04 -4.7689E-05
      94-      1
      1            1.1190E-03  1.5378E-03 -4.1978E-03  2.4078E-04 -1.5098E-04 -7.8949E-05
     154-      1
      1            1.0075E-03  1.6432E-03 -4.1900E-03  2.4257E-05 -1.6044E-04 -1.3049E-05
     364-      1
      1            1.3147E-03  1.3563E-03 -4.2178E-03  3.4220E-04 -1.2045E-04 -1.4031E-04
     469-      1
      1            1.6218E-03  1.0306E-03 -4.2169E-03  8.5884E-05 -1.8549E-05 -1.9700E-04
     529-      1
      1            1.2095E-03  1.4675E-03 -4.2149E-03  3.0501E-04 -1.3874E-04 -1.1134E-04
     589-      1
      1            1.4394E-03  1.2212E-03 -4.2085E-03  3.1419E-04 -9.2224E-05 -1.6555E-04
     604-      1
      1            1.5511E-03  1.1010E-03 -4.2072E-03  2.2446E-04 -5.7828E-05 -1.8482E-04



 e l e m e n t   s t r e s s   c a l c u l a t i o n s   f o r   t i m e  s t e p      438   ( at time 2.04919E+00 )

 element  materl
     ipt  stress       sig-xx      sig-yy      sig-zz      sig-xy      sig-yz      sig-zx                       yield
           state                                                                                  effsg      function
      49-      1
       1          -1.0460E+07 -3.2200E+06 -2.7215E+08  1.3683E+06 -8.1363E+06 -2.8274E+06    2.6581E+08    6.6564E-03
      94-      1
       1          -1.4299E+07 -6.2470E+06 -2.7641E+08  2.0757E+06 -7.7741E+06 -4.2512E+06    2.6670E+08    6.1880E-03
     154-      1
       1          -1.4089E+07 -5.1239E+06 -2.7635E+08 -2.1346E+06 -8.7363E+06 -1.0317E+06    2.6732E+08    6.6489E-03
     364-      1
       1          -3.8868E+07 -2.8118E+07 -2.6091E+08  5.3171E+06 -4.9223E+06 -6.0961E+06    2.2820E+08    9.7536E-03
     469-      1
       1          -2.0573E+07 -2.5547E+07 -2.5964E+08  1.1241E+07 -2.3229E+06 -6.1857E+06    2.3770E+08    8.3114E-03
     529-      1
       1          -2.6361E+07 -2.9038E+07 -2.7254E+08  4.0050E+06 -6.0147E+06 -5.5991E+06    2.4536E+08    7.8788E-03
     589-      1
       1          -3.3449E+07 -2.9173E+07 -2.6301E+08  6.4081E+06 -4.0505E+06 -7.4091E+06    2.3246E+08    8.9448E-03
     604-      1
       1          -3.0528E+07 -3.1627E+07 -2.6914E+08  6.6203E+06 -2.5538E+06 -8.1374E+06    2.3880E+08    7.6941E-03



 e l e m e n t   s t r a i n   c a l c u l a t i o n s   f o r   t i m e  s t e p      438   ( at time  2.04919E+00 )

 element  strain       eps-xx      eps-yy      eps-zz      eps-xy      eps-yz      eps-zx                            yield
 num/ipt   state
      49-      1
      1            4.1858E-03  4.9853E-03 -1.0539E-02  2.2908E-04 -4.5013E-04 -1.5673E-04
      94-      1
      1            4.1442E-03  4.8321E-03 -1.0397E-02  3.1187E-04 -4.3168E-04 -2.4469E-04
     154-      1
      1            4.1151E-03  5.0940E-03 -1.0623E-02 -9.3628E-05 -4.8419E-04 -5.2741E-05
     364-      1
      1            4.0407E-03  4.8387E-03 -1.0450E-02  6.5937E-04 -4.6638E-04 -5.1870E-04
     469-      1
      1            4.3411E-03  3.5948E-03 -9.3945E-03  1.0671E-03 -6.0361E-06 -4.8680E-04
     529-      1
      1            4.5953E-03  4.2073E-03 -1.0372E-02  5.2818E-04 -4.4805E-04 -4.1136E-04
     589-      1
      1            4.3082E-03  4.4836E-03 -1.0350E-02  7.4391E-04 -3.8883E-04 -5.5742E-04
     604-      1
      1            4.4176E-03  3.9812E-03 -9.9805E-03  6.6574E-04 -2.5182E-04 -5.2963E-04



 e l e m e n t   s t r e s s   c a l c u l a t i o n s   f o r   t i m e  s t e p      460   ( at time 3.46961E+00 )

 element  materl
     ipt  stress       sig-xx      sig-yy      sig-zz      sig-xy      sig-yz      sig-zx                       yield
           state                                                                                  effsg      function
      49-      1
       1           2.1398E+06 -9.9466E+06 -2.8193E+08 -4.9384E+06 -8.8039E+06 -2.8473E+06    2.7881E+08    1.9487E-02
      94-      1
       1          -7.5876E+06 -1.2520E+07 -2.8200E+08 -7.2662E+06 -8.1703E+06 -4.1659E+06    2.7274E+08    1.9024E-02
     154-      1
       1           8.8628E+05 -1.2906E+07 -2.8441E+08 -3.1976E+06 -8.6621E+06 -9.1791E+05    2.7912E+08    1.9577E-02
     364-      1
       1          -4.0143E+07 -2.9901E+07 -2.9168E+08 -5.0674E+06 -5.6599E+06 -6.0678E+06    2.5737E+08    2.2537E-02
     469-      1
       1          -2.7576E+07 -1.2486E+07 -2.9429E+08  1.3087E+06 -2.0057E+05 -8.2719E+06    2.7495E+08    2.1139E-02
     529-      1
       1          -2.8162E+07 -2.8619E+07 -2.9010E+08 -7.2020E+06 -7.2125E+06 -5.4712E+06    2.6248E+08    2.0818E-02
     589-      1
       1          -3.6887E+07 -2.4179E+07 -2.9185E+08 -3.3645E+06 -4.2436E+06 -7.2225E+06    2.6202E+08    2.1561E-02
     604-      1
       1          -3.8517E+07 -2.4115E+07 -2.9956E+08 -2.0131E+06 -2.1533E+06 -8.1764E+06    2.6895E+08    2.0331E-02



 e l e m e n t   s t r a i n   c a l c u l a t i o n s   f o r   t i m e  s t e p      460   ( at time  3.46961E+00 )

 element  strain       eps-xx      eps-yy      eps-zz      eps-xy      eps-yz      eps-zx                            yield
 num/ipt   state
      49-      1
      1            1.1078E-02  1.0926E-02 -2.3434E-02 -1.4721E-04 -1.0359E-03 -3.3786E-04
      94-      1
      1            1.0634E-02  1.0898E-02 -2.3019E-02 -2.4897E-04 -9.9526E-04 -5.0818E-04
     154-      1
      1            1.1127E-02  1.1007E-02 -2.3596E-02 -3.2380E-04 -1.0594E-03 -1.0988E-04
     364-      1
      1            9.5463E-03  1.1026E-02 -2.2340E-02  2.5045E-04 -8.7793E-04 -9.2001E-04
     469-      1
      1            1.0075E-02  1.0463E-02 -2.2174E-02  1.0969E-03  1.9285E-05 -1.0711E-03
     529-      1
      1            1.0676E-02  1.0250E-02 -2.2625E-02 -4.3336E-05 -9.8327E-04 -7.6998E-04
     589-      1
      1            9.7547E-03  1.0830E-02 -2.2309E-02  4.5640E-04 -6.8650E-04 -1.0330E-03
     604-      1
      1            9.9646E-03  1.0585E-02 -2.2317E-02  4.8798E-04 -3.9157E-04 -1.0825E-03



 e l e m e n t   s t r e s s   c a l c u l a t i o n s   f o r   t i m e  s t e p      468   ( at time 4.00950E+00 )

 element  materl
     ipt  stress       sig-xx      sig-yy      sig-zz      sig-xy      sig-yz      sig-zx                       yield
           state                                                                                  effsg      function
      49-      1
       1          -1.0233E+06 -1.3631E+07 -2.8614E+08 -5.2362E+06 -8.8499E+06 -3.0585E+06    2.7964E+08    2.4543E-02
      94-      1
       1          -1.1243E+07 -1.6907E+07 -2.8608E+08 -7.5872E+06 -8.0811E+06 -4.3459E+06    2.7283E+08    2.4093E-02
     154-      1
       1          -1.5584E+06 -1.6280E+07 -2.8854E+08 -3.1297E+06 -8.6445E+06 -9.4216E+05    2.8037E+08    2.4663E-02
     364-      1
       1          -4.4988E+07 -3.5062E+07 -2.9931E+08 -5.7096E+06 -5.4218E+06 -5.9354E+06    2.5999E+08    2.7502E-02
     469-      1
       1          -3.1217E+07 -1.6213E+07 -3.0218E+08  7.1964E+05 -1.1419E+03 -8.0334E+06    2.7912E+08    2.5961E-02
     529-      1
       1          -3.2931E+07 -3.2893E+07 -2.9593E+08 -7.8083E+06 -7.0060E+06 -5.3503E+06    2.6381E+08    2.5881E-02
     589-      1
       1          -4.0936E+07 -2.7865E+07 -2.9868E+08 -3.8746E+06 -4.0711E+06 -6.9137E+06    2.6497E+08    2.6408E-02
     604-      1
       1          -4.2929E+07 -2.8420E+07 -3.0742E+08 -2.6047E+06 -1.9922E+06 -7.8503E+06    2.7243E+08    2.5124E-02



 e l e m e n t   s t r a i n   c a l c u l a t i o n s   f o r   t i m e  s t e p      468   ( at time  4.00950E+00 )

 element  strain       eps-xx      eps-yy      eps-zz      eps-xy      eps-yz      eps-zx                            yield
 num/ipt   state
      49-      1
      1            1.3695E-02  1.3197E-02 -2.8393E-02 -2.9095E-04 -1.2607E-03 -4.1397E-04
      94-      1
      1            1.3104E-02  1.3200E-02 -2.7866E-02 -4.5639E-04 -1.2036E-03 -6.1488E-04
     154-      1
      1            1.3803E-02  1.3271E-02 -2.8602E-02 -4.0594E-04 -1.2756E-03 -1.3217E-04
     364-      1
      1            1.1639E-02  1.3360E-02 -2.6866E-02  8.9929E-05 -1.0106E-03 -1.0584E-03
     469-      1
      1            1.2223E-02  1.2985E-02 -2.6932E-02  1.1048E-03  3.9684E-05 -1.2595E-03
     529-      1
      1            1.2970E-02  1.2549E-02 -2.7304E-02 -2.6152E-04 -1.1653E-03 -8.9631E-04
     589-      1
      1            1.1806E-02  1.3211E-02 -2.6826E-02  3.4789E-04 -7.8087E-04 -1.1889E-03
     604-      1
      1            1.2046E-02  1.3028E-02 -2.6936E-02  4.1167E-04 -4.2776E-04 -1.2609E-03



 e l e m e n t   s t r e s s   c a l c u l a t i o n s   f o r   t i m e  s t e p      484   ( at time 5.08928E+00 )

 element  materl
     ipt  stress       sig-xx      sig-yy      sig-zz      sig-xy      sig-yz      sig-zx                       yield
           state                                                                                  effsg      function
      49-      1
       1          -8.8904E+06 -2.0808E+07 -2.9405E+08 -4.9944E+06 -8.1681E+06 -2.8854E+06    2.7993E+08    3.4598E-02
      94-      1
       1          -1.8884E+07 -2.4775E+07 -2.9498E+08 -7.2965E+06 -7.3923E+06 -4.0085E+06    2.7388E+08    3.4077E-02
     154-      1
       1          -9.0131E+06 -2.2635E+07 -2.9552E+08 -2.8249E+06 -8.2919E+06 -9.2173E+05    2.8036E+08    3.4870E-02
     364-      1
       1          -5.3306E+07 -4.4582E+07 -3.1444E+08 -6.0144E+06 -5.2977E+06 -5.3325E+06    2.6613E+08    3.7244E-02
     469-      1
       1          -3.8834E+07 -2.5746E+07 -3.1739E+08  2.0717E+05  1.9673E+05 -7.5736E+06    2.8563E+08    3.5551E-02
     529-      1
       1          -4.1771E+07 -4.1667E+07 -3.0829E+08 -7.7374E+06 -6.5870E+06 -4.8045E+06    2.6728E+08    3.5804E-02
     589-      1
       1          -4.8812E+07 -3.6886E+07 -3.1341E+08 -4.1479E+06 -4.0692E+06 -6.3008E+06    2.7117E+08    3.5979E-02
     604-      1
       1          -5.1812E+07 -3.8857E+07 -3.2304E+08 -3.1441E+06 -1.9194E+06 -7.4185E+06    2.7831E+08    3.4652E-02



 e l e m e n t   s t r a i n   c a l c u l a t i o n s   f o r   t i m e  s t e p      484   ( at time  5.08928E+00 )

 element  strain       eps-xx      eps-yy      eps-zz      eps-xy      eps-yz      eps-zx                            yield
 num/ipt   state
      49-      1
      1            1.8783E-02  1.7655E-02 -3.8083E-02 -5.5011E-04 -1.6549E-03 -5.3994E-04
      94-      1
      1            1.7902E-02  1.7676E-02 -3.7288E-02 -8.3381E-04 -1.5623E-03 -7.8960E-04
     154-      1
      1            1.9020E-02  1.7765E-02 -3.8447E-02 -5.5351E-04 -1.6833E-03 -1.7241E-04
     364-      1
      1            1.5798E-02  1.7926E-02 -3.5776E-02 -2.1813E-04 -1.2615E-03 -1.2920E-03
     469-      1
      1            1.6550E-02  1.7937E-02 -3.6397E-02  1.1114E-03  8.9440E-05 -1.6070E-03
     529-      1
      1            1.7451E-02  1.7017E-02 -3.6426E-02 -6.6023E-04 -1.4900E-03 -1.1087E-03
     589-      1
      1            1.5907E-02  1.7876E-02 -3.5772E-02  1.3807E-04 -9.6220E-04 -1.4635E-03
     604-      1
      1            1.6223E-02  1.7831E-02 -3.6112E-02  2.5358E-04 -4.9253E-04 -1.5937E-03



 e l e m e n t   s t r e s s   c a l c u l a t i o n s   f o r   t i m e  s t e p      500   ( at time 6.16905E+00 )

 element  materl
     ipt  stress       sig-xx      sig-yy      sig-zz      sig-xy      sig-yz      sig-zx                       yield
           state                                                                                  effsg      function
      49-      1
       1          -1.6546E+07 -2.7879E+07 -3.0249E+08 -4.9248E+06 -7.5846E+06 -2.9111E+06    2.8093E+08    4.4667E-02
      94-      1
       1          -2.7131E+07 -3.2851E+07 -3.0457E+08 -7.0218E+06 -6.8658E+06 -3.8454E+06    2.7523E+08    4.4089E-02
     154-      1
       1          -1.5382E+07 -2.8527E+07 -3.0335E+08 -2.7393E+06 -7.5363E+06 -9.0768E+05    2.8198E+08    4.5042E-02
     364-      1
       1          -6.2595E+07 -5.4669E+07 -3.2977E+08 -5.9724E+06 -4.9105E+06 -4.7427E+06    2.7168E+08    4.6776E-02
     469-      1
       1          -4.6912E+07 -3.5594E+07 -3.3238E+08 -3.9531E+05  3.8140E+05 -6.9717E+06    2.9154E+08    4.4956E-02
     529-      1
       1          -5.0657E+07 -4.9993E+07 -3.2075E+08 -7.6423E+06 -6.0596E+06 -4.3256E+06    2.7105E+08    4.5627E-02
     589-      1
       1          -5.6737E+07 -4.5426E+07 -3.2744E+08 -4.1867E+06 -3.8254E+06 -5.5795E+06    2.7687E+08    4.5316E-02
     604-      1
       1          -6.0886E+07 -4.9362E+07 -3.3857E+08 -3.6001E+06 -1.7614E+06 -6.7655E+06    2.8395E+08    4.3980E-02



 e l e m e n t   s t r a i n   c a l c u l a t i o n s   f o r   t i m e  s t e p      500   ( at time  6.16905E+00 )

 element  strain       eps-xx      eps-yy      eps-zz      eps-xy      eps-yz      eps-zx                            yield
 num/ipt   state
      49-      1
      1            2.3788E-02  2.2066E-02 -4.7641E-02 -8.0219E-04 -2.0108E-03 -6.6462E-04
      94-      1
      1            2.2643E-02  2.2105E-02 -4.6614E-02 -1.1934E-03 -1.8863E-03 -9.5129E-04
     154-      1
      1            2.4144E-02  2.2196E-02 -4.8132E-02 -6.9420E-04 -2.0315E-03 -2.0831E-04
     364-      1
      1            1.9896E-02  2.2388E-02 -4.4529E-02 -5.1490E-04 -1.4682E-03 -1.4823E-03
     469-      1
      1            2.0850E-02  2.2763E-02 -4.5710E-02  1.0898E-03  1.5189E-04 -1.9040E-03
     529-      1
      1            2.1857E-02  2.1440E-02 -4.5425E-02 -1.0476E-03 -1.7664E-03 -1.2828E-03
     589-      1
      1            1.9939E-02  2.2434E-02 -4.4534E-02 -6.8133E-05 -1.1107E-03 -1.6876E-03
     604-      1
      1            2.0361E-02  2.2507E-02 -4.5123E-02  7.5938E-05 -5.3412E-04 -1.8725E-03



 e l e m e n t   s t r e s s   c a l c u l a t i o n s   f o r   t i m e  s t e p      516   ( at time 7.24883E+00 )

 element  materl
     ipt  stress       sig-xx      sig-yy      sig-zz      sig-xy      sig-yz      sig-zx                       yield
           state                                                                                  effsg      function
      49-      1
       1          -2.2926E+07 -3.4587E+07 -3.0975E+08 -5.0950E+06 -6.6574E+06 -2.6505E+06    2.8159E+08    5.4642E-02
      94-      1
       1          -3.3257E+07 -4.0060E+07 -3.1354E+08 -7.3881E+06 -6.2096E+06 -3.6144E+06    2.7752E+08    5.4014E-02
     154-      1
       1          -2.1108E+07 -3.4665E+07 -3.0922E+08 -2.7924E+06 -6.6710E+06 -8.5859E+05    2.8186E+08    5.5133E-02
     364-      1
       1          -7.0765E+07 -6.3521E+07 -3.4258E+08 -7.1508E+06 -4.9905E+06 -4.2894E+06    2.7603E+08    5.6251E-02
     469-      1
       1          -5.4718E+07 -4.4370E+07 -3.4558E+08 -1.0280E+06  4.9606E+05 -6.6129E+06    2.9640E+08    5.4273E-02
     529-      1
       1          -5.7689E+07 -5.7201E+07 -3.3178E+08 -8.5074E+06 -5.7672E+06 -3.5413E+06    2.7498E+08    5.5328E-02
     589-      1
       1          -6.4881E+07 -5.3430E+07 -3.4040E+08 -4.6625E+06 -4.0410E+06 -4.7167E+06    2.8174E+08    5.4553E-02
     604-      1
       1          -6.9928E+07 -5.8663E+07 -3.5330E+08 -4.2800E+06 -1.9122E+06 -6.4321E+06    2.8950E+08    5.3210E-02



 e l e m e n t   s t r a i n   c a l c u l a t i o n s   f o r   t i m e  s t e p      516   ( at time  7.24883E+00 )

 element  strain       eps-xx      eps-yy      eps-zz      eps-xy      eps-yz      eps-zx                            yield
 num/ipt   state
      49-      1
      1            2.8684E-02  2.6373E-02 -5.6973E-02 -1.0546E-03 -2.2986E-03 -7.6832E-04
      94-      1
      1            2.7328E-02  2.6442E-02 -5.5772E-02 -1.5571E-03 -2.1581E-03 -1.0913E-03
     154-      1
      1            2.9154E-02  2.6516E-02 -5.7580E-02 -8.3396E-04 -2.3195E-03 -2.3898E-04
     364-      1
      1            2.4006E-02  2.6819E-02 -5.3239E-02 -8.5559E-04 -1.6638E-03 -1.6447E-03
     469-      1
      1            2.5147E-02  2.7529E-02 -5.4945E-02  1.0334E-03  2.2515E-04 -2.1645E-03
     529-      1
      1            2.6213E-02  2.5806E-02 -5.4296E-02 -1.4585E-03 -2.0045E-03 -1.4141E-03
     589-      1
      1            2.3945E-02  2.6953E-02 -5.3225E-02 -2.9109E-04 -1.2577E-03 -1.8582E-03
     604-      1
      1            2.4486E-02  2.7144E-02 -5.4071E-02 -1.2503E-04 -5.7482E-04 -2.1181E-03



 e l e m e n t   s t r e s s   c a l c u l a t i o n s   f o r   t i m e  s t e p      530   ( at time 8.64438E+00 )

 element  materl
     ipt  stress       sig-xx      sig-yy      sig-zz      sig-xy      sig-yz      sig-zx                       yield
           state                                                                                  effsg      function
      49-      1
       1          -2.8040E+07 -3.5154E+07 -3.2452E+08 -3.5027E+06 -5.3307E+06 -2.3063E+06    2.9323E+08    6.6285E-02
      94-      1
       1          -3.9745E+07 -4.2087E+07 -3.2971E+08 -4.7879E+06 -5.0149E+06 -2.5507E+06    2.8908E+08    6.5574E-02
     154-      1
       1          -2.5536E+07 -3.3759E+07 -3.2432E+08 -2.1100E+06 -5.1757E+06 -7.0696E+05    2.9492E+08    6.6845E-02
     364-      1
       1          -7.6685E+07 -6.9882E+07 -3.6467E+08 -3.6949E+06 -3.6760E+06 -3.4561E+06    2.9165E+08    6.7382E-02
     469-      1
       1          -6.3255E+07 -5.6755E+07 -3.6384E+08 -1.3441E+06  6.7823E+05 -6.1215E+06    3.0409E+08    6.5734E-02
     529-      1
       1          -6.3486E+07 -6.1263E+07 -3.5066E+08 -5.3753E+06 -4.5390E+06 -3.1497E+06    2.8860E+08    6.6682E-02
     589-      1
       1          -6.7632E+07 -5.9927E+07 -3.5821E+08 -3.5791E+06 -3.7861E+06 -4.2045E+06    2.9473E+08    6.5765E-02
     604-      1
       1          -7.7151E+07 -7.0895E+07 -3.7168E+08 -3.0313E+06 -1.8700E+06 -4.7547E+06    2.9789E+08    6.4423E-02



 e l e m e n t   s t r a i n   c a l c u l a t i o n s   f o r   t i m e  s t e p      530   ( at time  8.64438E+00 )

 element  strain       eps-xx      eps-yy      eps-zz      eps-xy      eps-yz      eps-zx                            yield
 num/ipt   state
      49-      1
      1            3.4392E-02  3.1787E-02 -6.8244E-02 -1.2052E-03 -2.5577E-03 -8.7491E-04
      94-      1
      1            3.2804E-02  3.1848E-02 -6.6821E-02 -1.7659E-03 -2.4006E-03 -1.1979E-03
     154-      1
      1            3.4942E-02  3.1979E-02 -6.8972E-02 -9.3649E-04 -2.5717E-03 -2.6343E-04
     364-      1
      1            2.9130E-02  3.2259E-02 -6.4012E-02 -9.8222E-04 -1.8263E-03 -1.8109E-03
     469-      1
      1            3.0708E-02  3.3223E-02 -6.6438E-02  9.6575E-04  2.9885E-04 -2.4765E-03
     529-      1
      1            3.1473E-02  3.1198E-02 -6.5130E-02 -1.6689E-03 -2.2108E-03 -1.5438E-03
     589-      1
      1            2.9188E-02  3.2476E-02 -6.4166E-02 -4.3920E-04 -1.4296E-03 -2.0769E-03
     604-      1
      1            2.9809E-02  3.2651E-02 -6.5128E-02 -2.4144E-04 -6.4657E-04 -2.3531E-03



 e l e m e n t   s t r e s s   c a l c u l a t i o n s   f o r   t i m e  s t e p      538   ( at time 9.50004E+00 )

 element  materl
     ipt  stress       sig-xx      sig-yy      sig-zz      sig-xy      sig-yz      sig-zx                       yield
           state                                                                                  effsg      function
      49-      1
       1          -2.9969E+07 -3.8664E+07 -3.2864E+08 -3.7966E+06 -4.7944E+06 -1.9052E+06    2.9463E+08    7.3439E-02
      94-      1
       1          -4.1980E+07 -4.6119E+07 -3.3482E+08 -5.2834E+06 -4.8078E+06 -2.0562E+06    2.9108E+08    7.2764E-02
     154-      1
       1          -2.6853E+07 -3.7102E+07 -3.2742E+08 -2.3673E+06 -4.7002E+06 -6.0462E+05    2.9572E+08    7.4010E-02
     364-      1
       1          -8.0304E+07 -7.4317E+07 -3.7071E+08 -4.6028E+06 -4.4826E+06 -2.7511E+06    2.9369E+08    7.4422E-02
     469-      1
       1          -1.4000E+07 -1.7486E+07 -3.2112E+08  1.3214E+05 -2.0480E+06 -1.3502E+07    3.0630E+08    7.4140E-02
     529-      1
       1          -6.6324E+07 -6.5424E+07 -3.5636E+08 -6.2160E+06 -4.6310E+06 -2.5268E+06    2.9083E+08    7.3836E-02
     589-      1
       1          -7.0764E+07 -6.4697E+07 -3.6355E+08 -2.8860E+06 -5.7917E+06 -3.5752E+06    2.9614E+08    7.2792E-02
     604-      1
       1          -8.3941E+07 -8.2042E+07 -3.8236E+08 -1.1302E+06 -5.7240E+06 -5.9476E+06    2.9972E+08    7.1768E-02



 e l e m e n t   s t r a i n   c a l c u l a t i o n s   f o r   t i m e  s t e p      538   ( at time  9.50004E+00 )

 element  strain       eps-xx      eps-yy      eps-zz      eps-xy      eps-yz      eps-zx                            yield
 num/ipt   state
      49-      1
      1            3.7931E-02  3.4988E-02 -7.5063E-02 -1.3419E-03 -2.6771E-03 -9.2036E-04
      94-      1
      1            3.6247E-02  3.5103E-02 -7.3607E-02 -1.9596E-03 -2.5272E-03 -1.2436E-03
     154-      1
      1            3.8527E-02  3.5164E-02 -7.5813E-02 -1.0234E-03 -2.6917E-03 -2.7507E-04
     364-      1
      1            3.2339E-02  3.5647E-02 -7.0709E-02 -1.1577E-03 -1.9553E-03 -1.8676E-03
     469-      1
      1            3.5224E-02  3.7370E-02 -7.4530E-02  9.9770E-04  2.6396E-04 -3.0741E-03
     529-      1
      1            3.4799E-02  3.4520E-02 -7.1872E-02 -1.9006E-03 -2.3376E-03 -1.6015E-03
     589-      1
      1            3.2429E-02  3.5884E-02 -7.0912E-02 -5.2571E-04 -1.6149E-03 -2.1613E-03
     604-      1
      1            3.3325E-02  3.6139E-02 -7.2304E-02 -2.3861E-04 -7.9878E-04 -2.5599E-03



 e l e m e n t   s t r e s s   c a l c u l a t i o n s   f o r   t i m e  s t e p      546   ( at time 1.03557E+01 )

 element  materl
     ipt  stress       sig-xx      sig-yy      sig-zz      sig-xy      sig-yz      sig-zx                       yield
           state                                                                                  effsg      function
      49-      1
       1          -3.5473E+07 -4.2801E+07 -3.3471E+08 -3.5771E+06 -4.4713E+06 -1.8116E+06    2.9583E+08    8.0808E-02
      94-      1
       1          -4.8131E+07 -5.1248E+07 -3.4185E+08 -5.0247E+06 -4.2784E+06 -2.3791E+06    2.9242E+08    8.0064E-02
     154-      1
       1          -3.1022E+07 -3.9718E+07 -3.3294E+08 -2.2800E+06 -4.2667E+06 -4.8175E+05    2.9779E+08    8.1458E-02
     364-      1
       1          -8.5341E+07 -7.9409E+07 -3.7697E+08 -4.1387E+06 -3.8323E+06 -2.2888E+06    2.9483E+08    8.1382E-02
     469-      1
       1          -1.5547E+07 -1.5351E+07 -3.2467E+08 -5.8396E+05 -9.4564E+05 -1.0342E+07    3.0974E+08    8.1409E-02
     529-      1
       1          -6.9646E+07 -6.8796E+07 -3.6106E+08 -5.9167E+06 -4.4220E+06 -2.4287E+06    2.9215E+08    8.1023E-02
     589-      1
       1          -7.4867E+07 -6.8028E+07 -3.6873E+08 -3.3933E+06 -5.1656E+06 -3.6775E+06    2.9760E+08    7.9779E-02
     604-      1
       1          -9.2907E+07 -8.8989E+07 -3.9223E+08 -1.9752E+06 -4.3645E+06 -4.7827E+06    3.0152E+08    7.8680E-02



 e l e m e n t   s t r a i n   c a l c u l a t i o n s   f o r   t i m e  s t e p      546   ( at time  1.03557E+01 )

 element  strain       eps-xx      eps-yy      eps-zz      eps-xy      eps-yz      eps-zx                            yield
 num/ipt   state
      49-      1
      1            4.1495E-02  3.8312E-02 -8.2061E-02 -1.4640E-03 -2.8019E-03 -9.6007E-04
      94-      1
      1            3.9668E-02  3.8424E-02 -8.0469E-02 -2.1312E-03 -2.6422E-03 -1.3085E-03
     154-      1
      1            4.2183E-02  3.8534E-02 -8.2934E-02 -1.1032E-03 -2.8037E-03 -2.7748E-04
     364-      1
      1            3.5484E-02  3.8979E-02 -7.7294E-02 -1.2885E-03 -2.0327E-03 -1.9134E-03
     469-      1
      1            3.8783E-02  4.0995E-02 -8.1767E-02  9.6060E-04  3.0787E-04 -3.3452E-03
     529-      1
      1            3.8112E-02  3.7849E-02 -7.8602E-02 -2.0996E-03 -2.4636E-03 -1.6604E-03
     589-      1
      1            3.5607E-02  3.9296E-02 -7.7594E-02 -6.5245E-04 -1.7416E-03 -2.2739E-03
     604-      1
      1            3.6535E-02  3.9512E-02 -7.9042E-02 -3.1955E-04 -8.5247E-04 -2.6736E-03



 e l e m e n t   s t r e s s   c a l c u l a t i o n s   f o r   t i m e  s t e p      555   ( at time 1.12114E+01 )

 element  materl
     ipt  stress       sig-xx      sig-yy      sig-zz      sig-xy      sig-yz      sig-zx                       yield
           state                                                                                  effsg      function
      49-      1
       1          -4.1797E+07 -5.1313E+07 -3.3915E+08 -4.6689E+06 -4.2453E+06 -2.2385E+06    2.9294E+08    8.8769E-02
      94-      1
       1          -5.2166E+07 -5.8726E+07 -3.4457E+08 -6.9212E+06 -3.9529E+06 -3.0408E+06    2.8956E+08    8.8009E-02
     154-      1
       1          -3.6140E+07 -4.6922E+07 -3.3619E+08 -2.4376E+06 -4.1619E+06 -5.2690E+05    2.9493E+08    8.9469E-02
     364-      1
       1          -9.2166E+07 -8.5373E+07 -3.8014E+08 -6.6733E+06 -3.2430E+06 -1.3385E+06    2.9172E+08    8.8638E-02
     469-      1
       1          -2.6604E+06 -3.1068E+05 -3.1356E+08 -1.2636E+06  1.4371E+05 -5.6835E+06    3.1224E+08    8.8969E-02
     529-      1
       1          -7.3375E+07 -7.3309E+07 -3.6205E+08 -8.4679E+06 -3.9772E+06 -1.4634E+06    2.8917E+08    8.8563E-02
     589-      1
       1          -8.1113E+07 -7.1371E+07 -3.7284E+08 -4.1839E+06 -3.2467E+06 -3.0134E+06    2.9690E+08    8.7042E-02
     604-      1
       1          -8.3936E+07 -7.7733E+07 -3.8529E+08 -2.6699E+06 -2.6571E+06 -2.5376E+06    3.0460E+08    8.5983E-02



 e l e m e n t   s t r a i n   c a l c u l a t i o n s   f o r   t i m e  s t e p      555   ( at time  1.12114E+01 )

 element  strain       eps-xx      eps-yy      eps-zz      eps-xy      eps-yz      eps-zx                            yield
 num/ipt   state
      49-      1
      1            4.5318E-02  4.1721E-02 -8.9425E-02 -1.6612E-03 -2.9077E-03 -1.0213E-03
      94-      1
      1            4.3408E-02  4.1836E-02 -8.7727E-02 -2.4289E-03 -2.7486E-03 -1.3886E-03
     154-      1
      1            4.6081E-02  4.1972E-02 -9.0386E-02 -1.1989E-03 -2.9081E-03 -2.8332E-04
     364-      1
      1            3.8647E-02  4.2383E-02 -8.3971E-02 -1.5684E-03 -2.0619E-03 -1.9068E-03
     469-      1
      1            4.2522E-02  4.4850E-02 -8.9218E-02  8.9833E-04  4.0101E-04 -3.4538E-03
     529-      1
      1            4.1517E-02  4.1228E-02 -8.5464E-02 -2.4514E-03 -2.5530E-03 -1.6414E-03
     589-      1
      1            3.8788E-02  4.2860E-02 -8.4438E-02 -8.1389E-04 -1.7609E-03 -2.3405E-03
     604-      1
      1            3.9987E-02  4.3214E-02 -8.6105E-02 -4.2449E-04 -8.3519E-04 -2.7004E-03



 e l e m e n t   s t r e s s   c a l c u l a t i o n s   f o r   t i m e  s t e p      561   ( at time 1.20670E+01 )

 element  materl
     ipt  stress       sig-xx      sig-yy      sig-zz      sig-xy      sig-yz      sig-zx                       yield
           state                                                                                  effsg      function
      49-      1
       1          -4.6351E+07 -4.8676E+07 -3.5214E+08 -1.4695E+06 -4.1331E+06 -2.1211E+06    3.0475E+08    9.4819E-02
      94-      1
       1          -5.7309E+07 -5.9307E+07 -3.5891E+08 -2.7145E+06 -4.0557E+06 -3.0986E+06    3.0077E+08    9.4231E-02
     154-      1
       1          -4.2525E+07 -4.3446E+07 -3.4935E+08 -9.8262E+05 -3.9529E+06 -5.2074E+05    3.0645E+08    9.5401E-02
     364-      1
       1          -9.2535E+07 -8.7703E+07 -3.9321E+08 -3.6730E+06 -2.8204E+06 -1.6419E+06    3.0323E+08    9.4782E-02
     469-      1
       1          -1.1301E+07 -1.3818E+07 -3.2858E+08 -8.6986E+05 -3.7788E+05 -4.9121E+06    3.1615E+08    9.5420E-02
     529-      1
       1          -7.4496E+07 -7.3880E+07 -3.7509E+08 -4.4383E+06 -3.9814E+06 -1.9780E+06    3.0110E+08    9.4810E-02
     589-      1
       1          -7.8801E+07 -7.3036E+07 -3.8193E+08 -1.7060E+06 -1.8777E+06 -3.0584E+06    3.0613E+08    9.3301E-02
     604-      1
       1          -7.7148E+07 -7.2986E+07 -3.8631E+08 -1.4089E+06 -2.2817E+06 -2.0047E+06    3.1132E+08    9.2296E-02



 e l e m e n t   s t r a i n   c a l c u l a t i o n s   f o r   t i m e  s t e p      561   ( at time  1.20670E+01 )

 element  strain       eps-xx      eps-yy      eps-zz      eps-xy      eps-yz      eps-zx                            yield
 num/ipt   state
      49-      1
      1            4.8224E-02  4.4692E-02 -9.5399E-02 -1.6416E-03 -3.0061E-03 -1.0777E-03
      94-      1
      1            4.6369E-02  4.4815E-02 -9.3788E-02 -2.4286E-03 -2.8521E-03 -1.4761E-03
     154-      1
      1            4.8895E-02  4.4945E-02 -9.6274E-02 -1.1987E-03 -3.0052E-03 -2.9678E-04
     364-      1
      1            4.1564E-02  4.5397E-02 -9.0003E-02 -1.6195E-03 -2.1050E-03 -1.9412E-03
     469-      1
      1            4.5766E-02  4.7921E-02 -9.5739E-02  8.7742E-04  4.1455E-04 -3.5970E-03
     529-      1
      1            4.4504E-02  4.4233E-02 -9.1553E-02 -2.5058E-03 -2.6575E-03 -1.6994E-03
     589-      1
      1            4.1794E-02  4.5955E-02 -9.0607E-02 -8.1841E-04 -1.7541E-03 -2.4311E-03
     604-      1
      1            4.3090E-02  4.6401E-02 -9.2375E-02 -4.4359E-04 -8.6113E-04 -2.7516E-03



 e l e m e n t   s t r e s s   c a l c u l a t i o n s   f o r   t i m e  s t e p      569   ( at time 1.34232E+01 )

 element  materl
     ipt  stress       sig-xx      sig-yy      sig-zz      sig-xy      sig-yz      sig-zx                       yield
           state                                                                                  effsg      function
      49-      1
       1          -5.3651E+07 -5.2719E+07 -3.6218E+08 -1.1684E+06 -1.5885E+06 -1.6939E+06    3.0903E+08    1.0614E-01
      94-      1
       1          -6.5781E+07 -6.4095E+07 -3.7032E+08 -1.6453E+06 -1.5673E+06 -2.2193E+06    3.0544E+08    1.0557E-01
     154-      1
       1          -4.7869E+07 -4.6716E+07 -3.5857E+08 -1.3174E+06 -1.7739E+06 -2.9112E+05    3.1130E+08    1.0683E-01
     364-      1
       1          -9.3778E+07 -8.8319E+07 -4.0023E+08 -3.0259E+06  1.1861E+06 -2.4196E+05    3.0927E+08    1.0574E-01
     469-      1
       1          -4.0447E+06 -8.2862E+06 -3.2641E+08 -7.2256E+05 -3.0020E+05 -4.3202E+06    3.2035E+08    1.0745E-01
     529-      1
       1          -7.9705E+07 -7.7085E+07 -3.8419E+08 -3.2424E+06 -1.0165E+06 -1.2102E+06    3.0586E+08    1.0600E-01
     589-      1
       1          -6.1200E+07 -5.6271E+07 -3.7038E+08 -1.9546E+06 -1.4908E+06  2.3696E+06    3.1173E+08    1.0436E-01
     604-      1
       1          -8.1583E+07 -7.7089E+07 -3.9400E+08 -5.6472E+05 -2.5589E+06  1.6419E+06    3.1473E+08    1.0340E-01



 e l e m e n t   s t r a i n   c a l c u l a t i o n s   f o r   t i m e  s t e p      569   ( at time  1.34232E+01 )

 element  strain       eps-xx      eps-yy      eps-zz      eps-xy      eps-yz      eps-zx                            yield
 num/ipt   state
      49-      1
      1            5.3566E-02  5.0130E-02 -1.0637E-01 -1.6980E-03 -3.0523E-03 -1.1315E-03
      94-      1
      1            5.1637E-02  5.0222E-02 -1.0467E-01 -2.4983E-03 -2.9006E-03 -1.5593E-03
     154-      1
      1            5.4338E-02  5.0477E-02 -1.0742E-01 -1.2755E-03 -3.0620E-03 -2.8439E-04
     364-      1
      1            4.6680E-02  5.0786E-02 -1.0063E-01 -1.7679E-03 -1.9573E-03 -1.9392E-03
     469-      1
      1            5.1896E-02  5.3772E-02 -1.0776E-01  8.3202E-04  5.1671E-04 -3.8721E-03
     529-      1
      1            4.9710E-02  4.9589E-02 -1.0228E-01 -2.6553E-03 -2.6851E-03 -1.7397E-03
     589-      1
      1            4.7114E-02  5.1503E-02 -1.0135E-01 -9.3053E-04 -1.7727E-03 -2.2646E-03
     604-      1
      1            4.8381E-02  5.1928E-02 -1.0336E-01 -4.5548E-04 -8.4861E-04 -2.6474E-03



 e l e m e n t   s t r e s s   c a l c u l a t i o n s   f o r   t i m e  s t e p      577   ( at time 1.47793E+01 )

 element  materl
     ipt  stress       sig-xx      sig-yy      sig-zz      sig-xy      sig-yz      sig-zx                       yield
           state                                                                                  effsg      function
      49-      1
       1          -5.5545E+07 -5.8349E+07 -3.6844E+08 -2.3953E+06 -8.5189E+05 -1.8047E+06    3.1155E+08    1.1729E-01
      94-      1
       1          -6.7007E+07 -6.7810E+07 -3.7579E+08 -3.4804E+06 -9.0528E+05 -1.3525E+06    3.0846E+08    1.1681E-01
     154-      1
       1          -4.9307E+07 -5.1936E+07 -3.6345E+08 -1.7278E+06 -4.0338E+05 -6.5506E+05    3.1285E+08    1.1771E-01
     364-      1
       1          -9.6876E+07 -9.0598E+07 -4.0675E+08 -4.0885E+06  1.5977E+06  1.4067E+06    3.1316E+08    1.1675E-01
     469-      1
       1           6.3260E+06  2.7023E+06 -3.1926E+08 -2.8631E+06  5.2490E+05  3.6532E+06    3.2389E+08    1.2000E-01
     529-      1
       1          -8.3756E+07 -8.0837E+07 -3.9088E+08 -4.7458E+06  1.0663E+06  2.4665E+05    3.0871E+08    1.1690E-01
     589-      1
       1          -6.7931E+07 -6.4144E+07 -3.8154E+08 -1.7860E+06  1.0874E+06  3.5302E+06    3.1560E+08    1.1575E-01
     604-      1
       1          -7.7315E+07 -7.3730E+07 -3.9490E+08 -3.8587E+06 -3.9377E+05  4.6060E+06    3.1956E+08    1.1545E-01



 e l e m e n t   s t r a i n   c a l c u l a t i o n s   f o r   t i m e  s t e p      577   ( at time  1.47793E+01 )

 element  strain       eps-xx      eps-yy      eps-zz      eps-xy      eps-yz      eps-zx                            yield
 num/ipt   state
      49-      1
      1            5.8981E-02  5.5315E-02 -1.1712E-01 -1.8450E-03 -3.0556E-03 -1.2145E-03
      94-      1
      1            5.6986E-02  5.5459E-02 -1.1539E-01 -2.7154E-03 -2.9270E-03 -1.5677E-03
     154-      1
      1            5.9637E-02  5.5561E-02 -1.1794E-01 -1.3713E-03 -3.0218E-03 -3.2745E-04
     364-      1
      1            5.1792E-02  5.6220E-02 -1.1132E-01 -2.0035E-03 -1.8213E-03 -1.8844E-03
     469-      1
      1            5.8254E-02  5.9928E-02 -1.2025E-01  6.2223E-04  6.6246E-04 -3.6197E-03
     529-      1
      1            5.4776E-02  5.4785E-02 -1.1269E-01 -2.9255E-03 -2.5572E-03 -1.6769E-03
     589-      1
      1            5.2510E-02  5.7070E-02 -1.1252E-01 -1.0273E-03 -1.5977E-03 -2.1428E-03
     604-      1
      1            5.4215E-02  5.7940E-02 -1.1528E-01 -7.4083E-04 -7.5181E-04 -2.4874E-03



 e l e m e n t   s t r e s s   c a l c u l a t i o n s   f o r   t i m e  s t e p      586   ( at time 1.61354E+01 )

 element  materl
     ipt  stress       sig-xx      sig-yy      sig-zz      sig-xy      sig-yz      sig-zx                       yield
           state                                                                                  effsg      function
      49-      1
       1          -6.9496E+07 -7.4862E+07 -3.8176E+08 -4.1247E+06  5.4498E+05 -1.8644E+06    3.0972E+08    1.2981E-01
      94-      1
       1          -7.7741E+07 -8.0349E+07 -3.8541E+08 -6.5278E+06  7.0032E+05 -1.8954E+06    3.0660E+08    1.2924E-01
     154-      1
       1          -5.9117E+07 -6.4472E+07 -3.7473E+08 -1.8891E+06  1.5700E+06 -3.6485E+05    3.1300E+08    1.3022E-01
     364-      1
       1          -1.0191E+08 -8.9465E+07 -4.1020E+08 -6.8624E+06  1.8120E+06  2.0423E+06    3.1496E+08    1.2790E-01
     469-      1
       1           2.1687E+07  4.1101E+07 -2.9560E+08 -9.6609E+06  1.8912E+05  1.1351E+06    3.2786E+08    1.3198E-01
     529-      1
       1          -8.9835E+07 -8.3458E+07 -3.9431E+08 -8.4832E+06  3.2448E+06  2.9790E+05    3.0812E+08    1.2876E-01
     589-      1
       1          -7.3778E+07 -6.3797E+07 -3.8712E+08 -6.1841E+06  7.6638E+05  3.2043E+06    3.1868E+08    1.2658E-01
     604-      1
       1          -7.6564E+07 -6.5279E+07 -3.9401E+08 -1.2512E+07 -1.9405E+06  2.2517E+06    3.2400E+08    1.2666E-01



 e l e m e n t   s t r a i n   c a l c u l a t i o n s   f o r   t i m e  s t e p      586   ( at time  1.61354E+01 )

 element  strain       eps-xx      eps-yy      eps-zz      eps-xy      eps-yz      eps-zx                            yield
 num/ipt   state
      49-      1
      1            6.4937E-02  6.0891E-02 -1.2896E-01 -2.1144E-03 -2.9565E-03 -1.2549E-03
      94-      1
      1            6.2775E-02  6.1034E-02 -1.2701E-01 -3.1459E-03 -2.8337E-03 -1.5837E-03
     154-      1
      1            6.5675E-02  6.1224E-02 -1.2991E-01 -1.4833E-03 -2.8511E-03 -3.0872E-04
     364-      1
      1            5.6726E-02  6.1880E-02 -1.2203E-01 -2.4186E-03 -1.8367E-03 -1.8833E-03
     469-      1
      1            6.3564E-02  6.6726E-02 -1.3210E-01 -2.5357E-05  8.1390E-04 -3.4009E-03
     529-      1
      1            6.0071E-02  6.0457E-02 -1.2381E-01 -3.4602E-03 -2.3588E-03 -1.6072E-03
     589-      1
      1            5.7430E-02  6.2591E-02 -1.2310E-01 -1.4287E-03 -1.5815E-03 -2.1668E-03
     604-      1
      1            5.9380E-02  6.3827E-02 -1.2637E-01 -1.5492E-03 -7.7603E-04 -2.5199E-03



 e l e m e n t   s t r e s s   c a l c u l a t i o n s   f o r   t i m e  s t e p      594   ( at time 1.74916E+01 )

 element  materl
     ipt  stress       sig-xx      sig-yy      sig-zz      sig-xy      sig-yz      sig-zx                       yield
           state                                                                                  effsg      function
      49-      1
       1          -5.7423E+07 -5.9098E+07 -3.7265E+08 -2.6967E+06  3.3021E+06 -1.3861E+06    3.1449E+08    1.4190E-01
      94-      1
       1          -6.3021E+07 -6.5800E+07 -3.7673E+08 -2.8959E+06  1.4916E+06  2.2735E+06    3.1240E+08    1.4107E-01
     154-      1
       1          -5.3221E+07 -5.4864E+07 -3.6992E+08 -1.5069E+06  5.3908E+06 -1.2136E+06    3.1604E+08    1.4171E-01
     364-      1
       1          -9.9028E+07 -9.2205E+07 -4.1832E+08 -2.7747E+06  1.4713E+06  2.5302E+06    3.2284E+08    1.3851E-01
     469-      1
       1           5.4178E+07  5.7383E+07 -2.7555E+08 -5.9628E+06  8.4543E+05  4.5152E+06    3.3160E+08    1.4374E-01
     529-      1
       1          -9.3973E+07 -8.9591E+07 -4.0589E+08 -3.1443E+06  2.7209E+06  3.3531E+06    3.1427E+08    1.3963E-01
     589-      1
       1          -7.5784E+07 -7.3347E+07 -3.9903E+08 -3.6618E+06  1.4244E+06  2.7248E+06    3.2457E+08    1.3746E-01
     604-      1
       1          -6.8667E+07 -6.1978E+07 -3.9279E+08 -8.2082E+06  9.0843E+05  3.1031E+06    3.2788E+08    1.3793E-01



 e l e m e n t   s t r a i n   c a l c u l a t i o n s   f o r   t i m e  s t e p      594   ( at time  1.74916E+01 )

 element  strain       eps-xx      eps-yy      eps-zz      eps-xy      eps-yz      eps-zx                            yield
 num/ipt   state
      49-      1
      1            7.0713E-02  6.6626E-02 -1.4039E-01 -2.2373E-03 -2.8680E-03 -1.3711E-03
      94-      1
      1            6.8475E-02  6.6561E-02 -1.3814E-01 -3.2345E-03 -2.8576E-03 -1.3892E-03
     154-      1
      1            7.1157E-02  6.6680E-02 -1.4084E-01 -1.5569E-03 -2.6141E-03 -4.3351E-04
     364-      1
      1            6.1794E-02  6.7151E-02 -1.3249E-01 -2.4847E-03 -1.8500E-03 -1.9324E-03
     469-      1
      1            6.9585E-02  7.2604E-02 -1.4378E-01 -2.7239E-04  9.0938E-04 -3.2832E-03
     529-      1
      1            6.5103E-02  6.5645E-02 -1.3421E-01 -3.5174E-03 -2.3095E-03 -1.4622E-03
     589-      1
      1            6.2742E-02  6.7876E-02 -1.3389E-01 -1.5683E-03 -1.5088E-03 -2.1796E-03
     604-      1
      1            6.4841E-02  6.9537E-02 -1.3758E-01 -1.8915E-03 -6.5034E-04 -2.5266E-03



 e l e m e n t   s t r e s s   c a l c u l a t i o n s   f o r   t i m e  s t e p      602   ( at time 1.88477E+01 )

 element  materl
     ipt  stress       sig-xx      sig-yy      sig-zz      sig-xy      sig-yz      sig-zx                       yield
           state                                                                                  effsg      function
      49-      1
       1          -2.2494E+07 -2.6111E+07 -3.4279E+08 -1.0147E+06  5.5894E+06 -5.8096E+05    3.1865E+08    1.5453E-01
      94-      1
       1          -3.4696E+07 -3.4773E+07 -3.5153E+08 -2.9885E+06  2.1951E+06  6.1015E+06    3.1704E+08    1.5343E-01
     154-      1
       1          -4.7920E+07 -5.2502E+07 -3.6807E+08 -2.0631E+06  7.8426E+06 -1.3677E+06    3.1820E+08    1.5340E-01
     364-      1
       1          -9.8836E+07 -9.4306E+07 -4.2344E+08 -6.1359E+06  1.1211E+06  3.1420E+06    3.2711E+08    1.4924E-01
     469-      1
       1           1.2046E+08  1.2145E+08 -2.1286E+08  8.0083E+05  6.3803E+05  4.9676E+04    3.3382E+08    1.5642E-01
     529-      1
       1          -9.6540E+07 -9.4712E+07 -4.1570E+08 -5.2790E+06  1.7053E+06  4.7178E+06    3.2033E+08    1.5077E-01
     589-      1
       1          -7.8519E+07 -7.0976E+07 -4.0278E+08 -5.0471E+06  6.1840E+05  3.0606E+06    3.2826E+08    1.4798E-01
     604-      1
       1          -7.2929E+07 -5.8475E+07 -3.9664E+08 -1.1993E+06  7.5949E+05  3.8936E+06    3.3126E+08    1.4873E-01



 e l e m e n t   s t r a i n   c a l c u l a t i o n s   f o r   t i m e  s t e p      602   ( at time  1.88477E+01 )

 element  strain       eps-xx      eps-yy      eps-zz      eps-xy      eps-yz      eps-zx                            yield
 num/ipt   state
      49-      1
      1            7.6946E-02  7.2629E-02 -1.5227E-01 -2.2568E-03 -2.6507E-03 -1.5024E-03
      94-      1
      1            7.4394E-02  7.2544E-02 -1.4975E-01 -3.3907E-03 -2.7924E-03 -9.9865E-04
     154-      1
      1            7.6831E-02  7.2046E-02 -1.5192E-01 -1.6813E-03 -2.3855E-03 -5.6208E-04
     364-      1
      1            6.6944E-02  7.2465E-02 -1.4307E-01 -2.8505E-03 -1.8562E-03 -1.8506E-03
     469-      1
      1            7.6159E-02  7.9183E-02 -1.5613E-01 -1.0600E-04  1.1120E-03 -3.4905E-03
     529-      1
      1            7.0389E-02  7.0956E-02 -1.4497E-01 -3.8243E-03 -2.3021E-03 -1.2794E-03
     589-      1
      1            6.7674E-02  7.3259E-02 -1.4430E-01 -1.8370E-03 -1.4783E-03 -2.0510E-03
     604-      1
      1            6.9759E-02  7.5291E-02 -1.4836E-01 -1.8156E-03 -4.4760E-04 -2.3927E-03



 e l e m e n t   s t r e s s   c a l c u l a t i o n s   f o r   t i m e  s t e p      610   ( at time 2.02039E+01 )

 element  materl
     ipt  stress       sig-xx      sig-yy      sig-zz      sig-xy      sig-yz      sig-zx                       yield
           state                                                                                  effsg      function
      49-      1
       1          -6.5326E+06 -1.6857E+07 -3.3010E+08 -3.0133E+06  7.0246E+06 -5.1026E+05    3.1881E+08    1.6650E-01
      94-      1
       1          -1.8352E+07 -2.3484E+07 -3.3817E+08 -7.2166E+06  3.9384E+06  5.7420E+06    3.1776E+08    1.6521E-01
     154-      1
       1          -3.5692E+07 -4.7550E+07 -3.6468E+08 -8.3743E+05  7.4783E+06 -6.0019E+05    3.2349E+08    1.6545E-01
     364-      1
       1          -1.0288E+08 -9.9177E+07 -4.2905E+08 -7.3136E+06  8.8422E+05  7.3783E+06    3.2853E+08    1.5906E-01
     469-      1
       1           1.2768E+08  1.2655E+08 -1.6756E+08  4.3557E+06  3.8826E+05 -1.3904E+06    2.9479E+08    1.6722E-01
     529-      1
       1          -8.4202E+07 -8.4765E+07 -4.0690E+08 -9.6696E+06  8.6787E+05  6.2774E+06    3.2303E+08    1.6186E-01
     589-      1
       1          -7.6372E+07 -6.5883E+07 -4.0127E+08 -5.6248E+06  1.9461E+06  3.7607E+06    3.3050E+08    1.5789E-01
     604-      1
       1          -3.8489E+07 -2.9087E+07 -3.6601E+08  3.1843E+06  2.8924E+06  6.7225E+06    3.3260E+08    1.5957E-01



 e l e m e n t   s t r a i n   c a l c u l a t i o n s   f o r   t i m e  s t e p      610   ( at time  2.02039E+01 )

 element  strain       eps-xx      eps-yy      eps-zz      eps-xy      eps-yz      eps-zx                            yield
 num/ipt   state
      49-      1
      1            8.2925E-02  7.7928E-02 -1.6346E-01 -2.4604E-03 -2.3425E-03 -1.4869E-03
      94-      1
      1            8.0124E-02  7.7897E-02 -1.6073E-01 -3.8515E-03 -2.6249E-03 -7.8549E-04
     154-      1
      1            8.2992E-02  7.7424E-02 -1.6346E-01 -1.7020E-03 -2.2227E-03 -5.0608E-04
     364-      1
      1            7.1616E-02  7.7270E-02 -1.5268E-01 -3.1958E-03 -1.8848E-03 -1.4916E-03
     469-      1
      1            8.2477E-02  8.5705E-02 -1.6816E-01  4.2731E-04  1.1336E-03 -3.6397E-03
     529-      1
      1            7.5753E-02  7.6240E-02 -1.5556E-01 -4.3883E-03 -2.4010E-03 -1.0795E-03
     589-      1
      1            7.2271E-02  7.8374E-02 -1.5405E-01 -2.0970E-03 -1.3321E-03 -1.9553E-03
     604-      1
      1            7.5072E-02  8.0919E-02 -1.5894E-01 -1.5627E-03 -6.8066E-06 -2.1540E-03



 e l e m e n t   s t r e s s   c a l c u l a t i o n s   f o r   t i m e  s t e p      618   ( at time 2.15600E+01 )

 element  materl
     ipt  stress       sig-xx      sig-yy      sig-zz      sig-xy      sig-yz      sig-zx                       yield
           state                                                                                  effsg      function
      49-      1
       1           1.1718E+07 -5.8251E+06 -3.1411E+08 -7.5801E+06  4.9298E+06 -1.6384E+05    3.1781E+08    1.7863E-01
      94-      1
       1          -6.5320E+06 -1.8986E+07 -3.3229E+08 -9.9142E+06  2.5981E+06  4.9466E+06    3.2032E+08    1.7674E-01
     154-      1
       1          -2.5532E+07 -4.5368E+07 -3.5616E+08 -3.9401E+06  8.7010E+06 -7.6491E+05    3.2160E+08    1.7723E-01
     364-      1
       1          -1.0226E+08 -1.0205E+08 -4.2832E+08 -1.2708E+07 -9.7415E+05  9.9469E+06    3.2737E+08    1.6854E-01
     469-      1
       1           2.3104E+08  2.2495E+08 -6.8698E+07  5.6691E+06  2.9174E+06 -5.2438E+06    2.9709E+08    1.7894E-01
     529-      1
       1          -6.4649E+07 -7.6856E+07 -3.9546E+08 -1.3903E+07 -7.3226E+05  7.3851E+06    3.2602E+08    1.7283E-01
     589-      1
       1          -7.4681E+07 -6.3499E+07 -3.9899E+08 -1.2210E+07 -2.5276E+06  2.3527E+06    3.3078E+08    1.6741E-01
     604-      1
       1          -3.9026E+07 -1.6979E+07 -3.5963E+08  9.0285E+04  2.4115E+06  2.0119E+06    3.3222E+08    1.7022E-01



 e l e m e n t   s t r a i n   c a l c u l a t i o n s   f o r   t i m e  s t e p      618   ( at time  2.15600E+01 )

 element  strain       eps-xx      eps-yy      eps-zz      eps-xy      eps-yz      eps-zx                            yield
 num/ipt   state
      49-      1
      1            8.9109E-02  8.3020E-02 -1.7462E-01 -2.9563E-03 -2.2872E-03 -1.5329E-03
      94-      1
      1            8.5920E-02  8.2901E-02 -1.7151E-01 -4.4095E-03 -2.6960E-03 -6.8645E-04
     154-      1
      1            8.9085E-02  8.2332E-02 -1.7446E-01 -1.9698E-03 -1.8825E-03 -5.2811E-04
     364-      1
      1            7.6173E-02  8.1743E-02 -1.6178E-01 -3.8338E-03 -1.8869E-03 -9.6681E-04
     469-      1
      1            8.9753E-02  9.2756E-02 -1.8084E-01  1.0528E-03  1.4537E-03 -3.9520E-03
     529-      1
      1            8.1433E-02  8.1099E-02 -1.6599E-01 -5.1429E-03 -2.6042E-03 -8.1653E-04
     589-      1
      1            7.6656E-02  8.3235E-02 -1.6333E-01 -2.7378E-03 -1.2792E-03 -1.8330E-03
     604-      1
      1            7.9664E-02  8.6729E-02 -1.6933E-01 -1.6096E-03  5.3765E-04 -1.9788E-03



 e l e m e n t   s t r e s s   c a l c u l a t i o n s   f o r   t i m e  s t e p      628   ( at time 2.29161E+01 )

 element  materl
     ipt  stress       sig-xx      sig-yy      sig-zz      sig-xy      sig-yz      sig-zx                       yield
           state                                                                                  effsg      function
      49-      1
       1           1.1365E+07 -3.2995E+07 -2.9208E+08 -1.8003E+07  4.1160E+06 -3.9106E+05    2.8568E+08    1.9462E-01
      94-      1
       1          -3.5648E+06 -3.6367E+07 -3.0638E+08 -2.5087E+07  2.0899E+06  7.0124E+06    2.9136E+08    1.9169E-01
     154-      1
       1          -1.5950E+07 -7.1782E+07 -3.3666E+08 -8.3965E+06  6.5440E+06 -1.7372E+06    2.9735E+08    1.9255E-01
     364-      1
       1          -1.2020E+08 -1.1122E+08 -4.0224E+08 -3.1719E+07 -1.6552E+06  1.7404E+07    2.9342E+08    1.7749E-01
     469-      1
       1           1.8850E+08  2.0883E+08 -8.4647E+06  6.6311E+06  2.1733E+06 -9.0763E+06    2.0882E+08    1.9111E-01
     529-      1
       1          -4.2465E+07 -6.6925E+07 -3.5057E+08 -3.2095E+07 -2.0039E+06  1.0229E+07    3.0233E+08    1.8578E-01
     589-      1
       1          -1.0173E+08 -6.5265E+07 -3.8308E+08 -2.4221E+07 -4.4097E+06  8.5001E+06    3.0460E+08    1.7470E-01
     604-      1
       1          -2.8145E+07  8.1975E+06 -3.2612E+08  2.5500E+06  6.2841E+06  7.5125E+06    3.1819E+08    1.8156E-01



 e l e m e n t   s t r a i n   c a l c u l a t i o n s   f o r   t i m e  s t e p      628   ( at time  2.29161E+01 )

 element  strain       eps-xx      eps-yy      eps-zz      eps-xy      eps-yz      eps-zx                            yield
 num/ipt   state
      49-      1
      1            9.7105E-02  8.7377E-02 -1.8712E-01 -4.4089E-03 -1.6739E-03 -1.4733E-03
      94-      1
      1            9.3134E-02  8.7544E-02 -1.8342E-01 -6.3293E-03 -2.3234E-03 -2.3558E-04
     154-      1
      1            9.7531E-02  8.6371E-02 -1.8706E-01 -2.6274E-03 -1.1677E-03 -5.8019E-04
     364-      1
      1            7.9464E-02  8.5413E-02 -1.6878E-01 -5.4150E-03 -1.9626E-03  2.0096E-04
     469-      1
      1            9.8736E-02  1.0484E-01 -1.9799E-01  2.7039E-03  1.9761E-03 -4.7298E-03
     529-      1
      1            8.7716E-02  8.5750E-02 -1.7665E-01 -7.2937E-03 -2.9014E-03 -1.3465E-04
     589-      1
      1            7.8821E-02  8.7029E-02 -1.6938E-01 -3.7394E-03 -1.0189E-03 -1.3795E-03
     604-      1
      1            8.4220E-02  9.2735E-02 -1.7961E-01 -1.3354E-03  2.3314E-03 -1.6131E-03



 e l e m e n t   s t r e s s   c a l c u l a t i o n s   f o r   t i m e  s t e p     1195   ( at time 2.30517E+01 )

 element  materl
     ipt  stress       sig-xx      sig-yy      sig-zz      sig-xy      sig-yz      sig-zx                       yield
           state                                                                                  effsg      function
      49-      1
       1          -8.4597E+05 -2.6713E+07 -2.9369E+08 -1.2583E+07 -2.2313E+06 -1.9868E+06    2.8170E+08    1.9532E-01
      94-      1
       1          -1.6663E+07 -3.5970E+07 -3.0397E+08 -1.7858E+07  1.3280E+06 -4.8188E+06    2.8000E+08    1.9225E-01
     154-      1
       1          -2.7786E+07 -5.9762E+07 -3.3435E+08 -5.9451E+06  2.1725E+05 -5.8101E+05    2.9207E+08    1.9339E-01
     364-      1
       1          -1.1495E+08 -1.0379E+08 -4.0438E+08 -1.4944E+07 -5.3663E+06  1.2374E+07    2.9722E+08    1.7791E-01
     469-      1
       1           3.5399E+07  4.2829E+07 -4.1931E+07  3.5429E+06  2.7671E+06 -1.7029E+07    8.6836E+07    1.9141E-01
     529-      1
       1          -3.8750E+07 -4.7342E+07 -3.2870E+08 -2.2047E+07 -2.8371E+06  8.3169E+06    2.8870E+08    1.8600E-01
     589-      1
       1          -8.9270E+07 -7.3892E+07 -3.9171E+08 -8.5258E+06 -1.2957E+07  1.9509E+06    3.1159E+08    1.7554E-01
     604-      1
       1          -3.5809E+07 -3.7217E+07 -3.1696E+08  1.0857E+07 -5.8228E+06 -9.2516E+06    2.8171E+08    1.8252E-01



 e l e m e n t   s t r a i n   c a l c u l a t i o n s   f o r   t i m e  s t e p     1195   ( at time  2.30517E+01 )

 element  strain       eps-xx      eps-yy      eps-zz      eps-xy      eps-yz      eps-zx                            yield
 num/ipt   state
      49-      1
      1            9.7233E-02  8.7774E-02 -1.8768E-01 -4.3410E-03 -1.8587E-03 -1.4786E-03
      94-      1
      1            9.3191E-02  8.7797E-02 -1.8378E-01 -6.2324E-03 -2.4519E-03 -3.5397E-04
     154-      1
      1            9.7703E-02  8.6879E-02 -1.8773E-01 -2.6015E-03 -1.2623E-03 -5.6234E-04
     364-      1
      1            7.9678E-02  8.5700E-02 -1.6923E-01 -5.1248E-03 -1.9504E-03  4.4910E-05
     469-      1
      1            9.9668E-02  1.0514E-01 -1.9913E-01  3.0009E-03  2.0125E-03 -4.9922E-03
     529-      1
      1            8.7668E-02  8.5994E-02 -1.7663E-01 -7.1169E-03 -2.9042E-03 -1.3012E-04
     589-      1
      1            7.9434E-02  8.7286E-02 -1.7027E-01 -3.4713E-03 -1.1375E-03 -1.5136E-03
     604-      1
      1            8.5125E-02  9.3026E-02 -1.8057E-01 -1.0592E-03  2.2528E-03 -1.7885E-03



 e l e m e n t   s t r e s s   c a l c u l a t i o n s   f o r   t i m e  s t e p     1214   ( at time 2.41472E+01 )

 element  materl
     ipt  stress       sig-xx      sig-yy      sig-zz      sig-xy      sig-yz      sig-zx                       yield
           state                                                                                  effsg      function
      49-      1
       1          -3.5544E+07 -3.6135E+07 -3.2867E+08 -6.1793E+06 -2.2222E+06  4.7092E+05    2.9305E+08    2.0485E-01
      94-      1
       1          -5.4885E+07 -5.3188E+07 -3.4726E+08 -6.8931E+06 -3.8935E+05 -4.2331E+06    2.9356E+08    2.0067E-01
     154-      1
       1          -4.1880E+07 -5.2686E+07 -3.4560E+08 -5.0002E+06 -9.1979E+05  1.1449E+06    2.9860E+08    2.0335E-01
     364-      1
       1          -1.0804E+08 -1.0144E+08 -4.2178E+08 -1.1206E+06 -4.7714E+06  9.9480E+06    3.1768E+08    1.8425E-01
     469-      1
       1           1.0942E+07  9.2610E+06 -7.3816E+07  2.1766E+06  1.5255E+06 -1.4272E+07    8.7615E+07    1.9375E-01
     529-      1
       1          -5.2948E+07 -5.0547E+07 -3.5740E+08 -5.1241E+06 -8.2805E+05  4.4583E+06    3.0589E+08    1.9291E-01
     589-      1
       1          -1.0192E+08 -1.0194E+08 -4.2531E+08  1.9824E+06 -1.0718E+07 -7.1864E+05    3.2393E+08    1.8214E-01
     604-      1
       1          -5.2928E+07 -6.8099E+07 -3.5066E+08  6.7363E+06 -5.3320E+06 -1.1010E+07    2.9145E+08    1.8931E-01



 e l e m e n t   s t r a i n   c a l c u l a t i o n s   f o r   t i m e  s t e p     1214   ( at time  2.41472E+01 )

 element  strain       eps-xx      eps-yy      eps-zz      eps-xy      eps-yz      eps-zx                            yield
 num/ipt   state
      49-      1
      1            1.0099E-01  9.1793E-02 -1.9585E-01 -4.5390E-03 -1.9632E-03 -1.3672E-03
      94-      1
      1            9.6435E-02  9.1382E-02 -1.9109E-01 -6.3549E-03 -2.5981E-03 -3.4999E-04
     154-      1
      1            1.0205E-01  9.0977E-02 -1.9628E-01 -2.8279E-03 -1.1629E-03 -5.2258E-04
     364-      1
      1            8.2606E-02  8.8783E-02 -1.7529E-01 -4.9184E-03 -2.0152E-03  1.4648E-04
     469-      1
      1            1.0490E-01  1.0882E-01 -2.0849E-01  3.3531E-03  2.0312E-03 -5.8960E-03
     529-      1
      1            9.0566E-02  8.9173E-02 -1.8294E-01 -7.0111E-03 -2.9733E-03 -6.2173E-05
     589-      1
      1            8.2601E-02  9.0207E-02 -1.7672E-01 -3.2504E-03 -1.2272E-03 -1.7424E-03
     604-      1
      1            8.9095E-02  9.6154E-02 -1.8813E-01 -7.1288E-04  2.5163E-03 -2.2410E-03



 e l e m e n t   s t r e s s   c a l c u l a t i o n s   f o r   t i m e  s t e p     1341   ( at time 2.51738E+01 )

 element  materl
     ipt  stress       sig-xx      sig-yy      sig-zz      sig-xy      sig-yz      sig-zx                       yield
           state                                                                                  effsg      function
      49-      1
       1          -3.6913E+07 -3.6990E+07 -3.4459E+08 -4.4552E+06 -1.4814E+06  2.4742E+06    3.0777E+08    2.1322E-01
      94-      1
       1          -6.1576E+07 -6.3770E+07 -3.6823E+08 -3.8777E+06 -8.6420E+05 -1.1561E+06    3.0565E+08    2.0786E-01
     154-      1
       1          -2.8487E+07 -3.7730E+07 -3.4687E+08 -5.0932E+06 -6.8643E+05  1.2598E+06    3.1400E+08    2.1310E-01
     364-      1
       1          -1.1078E+08 -1.0862E+08 -4.3580E+08 -1.4207E+06 -5.3773E+06  5.9478E+06    3.2641E+08    1.9075E-01
     469-      1
       1           9.5534E+05 -2.1363E+06 -8.6070E+07  1.2815E+06  5.7611E+05 -1.2350E+07    8.8190E+07    1.9600E-01
     529-      1
       1          -5.2146E+07 -5.0563E+07 -3.6703E+08 -5.0440E+06 -1.7011E+06  3.6785E+06    3.1588E+08    1.9943E-01
     589-      1
       1          -1.0987E+08 -1.0942E+08 -4.4090E+08  6.3055E+04 -9.2754E+06 -3.2647E+06    3.3169E+08    1.8935E-01
     604-      1
       1          -5.6137E+07 -6.9810E+07 -3.5849E+08  2.2545E+06 -4.5019E+06 -9.2124E+06    2.9631E+08    1.9623E-01



 e l e m e n t   s t r a i n   c a l c u l a t i o n s   f o r   t i m e  s t e p     1341   ( at time  2.51738E+01 )

 element  strain       eps-xx      eps-yy      eps-zz      eps-xy      eps-yz      eps-zx                            yield
 num/ipt   state
      49-      1
      1            1.0466E-01  9.5483E-02 -2.0332E-01 -4.6779E-03 -2.1336E-03 -1.0939E-03
      94-      1
      1            9.9627E-02  9.4435E-02 -1.9753E-01 -6.4536E-03 -2.7472E-03 -2.9567E-04
     154-      1
      1            1.0667E-01  9.5241E-02 -2.0507E-01 -3.0408E-03 -1.2281E-03 -3.6533E-04
     364-      1
      1            8.5678E-02  9.1844E-02 -1.8156E-01 -4.9657E-03 -1.9978E-03  1.1467E-04
     469-      1
      1            1.0984E-01  1.1284E-01 -2.1752E-01  3.5935E-03  1.9385E-03 -6.5007E-03
     529-      1
      1            9.3528E-02  9.2174E-02 -1.8896E-01 -7.1622E-03 -2.9887E-03 -8.6969E-06
     589-      1
      1            8.6046E-02  9.3657E-02 -1.8378E-01 -3.2756E-03 -1.2965E-03 -1.9760E-03
     604-      1
      1            9.3134E-02  9.9732E-02 -1.9583E-01 -6.6081E-04  2.7272E-03 -2.4989E-03



 e l e m e n t   s t r e s s   c a l c u l a t i o n s   f o r   t i m e  s t e p     1353   ( at time 2.61715E+01 )

 element  materl
     ipt  stress       sig-xx      sig-yy      sig-zz      sig-xy      sig-yz      sig-zx                       yield
           state                                                                                  effsg      function
      49-      1
       1           5.4614E+07  8.5274E+06 -2.6639E+08 -1.8442E+07  4.9759E+06  2.9621E+06    3.0248E+08    2.2732E-01
      94-      1
       1           5.1886E+07  1.7677E+07 -2.6377E+08 -2.7254E+07  3.7738E+06  2.0055E+06    3.0380E+08    2.2130E-01
     154-      1
       1           5.4587E+07 -7.6526E+05 -2.7101E+08 -4.4129E+06  6.0336E+06  2.5803E+06    3.0207E+08    2.2565E-01
     364-      1
       1          -7.1254E+07 -5.9652E+07 -3.7507E+08 -3.5488E+07 -1.9200E+06  1.6884E+07    3.1719E+08    1.9824E-01
     469-      1
       1           4.8338E+07  4.9695E+07 -3.5765E+07  1.1851E+06 -6.9591E+05 -1.5306E+07    8.8869E+07    2.0062E-01
     529-      1
       1           1.3237E+07 -7.4544E+06 -3.0378E+08 -3.3889E+07 -7.9673E+05  1.5231E+07    3.1386E+08    2.0946E-01
     589-      1
       1          -8.6733E+07 -5.1513E+07 -3.8311E+08 -1.8684E+07 -8.9991E+06  8.5406E+06    3.1784E+08    1.9595E-01
     604-      1
       1           3.2648E+07  4.0521E+07 -2.5909E+08 -5.5383E+06 -5.2785E+06 -5.4514E+06    2.9620E+08    2.0660E-01



 e l e m e n t   s t r a i n   c a l c u l a t i o n s   f o r   t i m e  s t e p     1353   ( at time  2.61715E+01 )

 element  strain       eps-xx      eps-yy      eps-zz      eps-xy      eps-yz      eps-zx                            yield
 num/ipt   state
      49-      1
      1            1.1263E-01  9.9844E-02 -2.1474E-01 -6.0338E-03 -1.5647E-03 -1.0102E-03
      94-      1
      1            1.0697E-01  9.9228E-02 -2.0835E-01 -8.4460E-03 -2.2347E-03  1.4532E-05
     154-      1
      1            1.1401E-01  9.8807E-02 -2.1512E-01 -3.2746E-03 -8.9959E-04 -4.8951E-04
     364-      1
      1            8.8904E-02  9.5561E-02 -1.8783E-01 -6.7795E-03 -1.7720E-03  1.1953E-03
     469-      1
      1            1.2060E-01  1.2357E-01 -2.3361E-01  4.4956E-03  1.9649E-03 -7.8940E-03
     529-      1
      1            9.8725E-02  9.6137E-02 -1.9736E-01 -9.1173E-03 -3.0847E-03  1.0929E-03
     589-      1
      1            8.8336E-02  9.7573E-02 -1.8935E-01 -4.1608E-03 -8.2126E-04 -1.3676E-03
     604-      1
      1            9.8848E-02  1.0625E-01 -2.0626E-01 -9.7052E-04  4.2413E-03 -2.5986E-03



 e l e m e n t   s t r e s s   c a l c u l a t i o n s   f o r   t i m e  s t e p     1358   ( at time 2.71691E+01 )

 element  materl
     ipt  stress       sig-xx      sig-yy      sig-zz      sig-xy      sig-yz      sig-zx                       yield
           state                                                                                  effsg      function
      49-      1
       1          -3.2415E+07 -4.0501E+07 -3.5109E+08 -7.3063E+06 -1.7225E+06  2.1057E+06    3.1500E+08    2.3237E-01
      94-      1
       1          -9.1130E+07 -9.5345E+07 -3.6837E+08 -3.2645E+06  8.4152E+06  2.6452E+05    2.7560E+08    2.2539E-01
     154-      1
       1          -4.0985E+07 -5.5428E+07 -3.6385E+08 -2.7657E+06  1.5262E+06 -4.9209E+05    3.1594E+08    2.3201E-01
     364-      1
       1          -9.3406E+07 -9.5958E+07 -4.2796E+08 -4.8267E+06 -1.0909E+07  2.4440E+06    3.3395E+08    2.0338E-01
     469-      1
       1           1.1177E+07  1.0287E+07 -7.5642E+07  2.5256E+06  3.3234E+06 -1.2381E+07    8.9293E+07    2.0196E-01
     529-      1
       1          -6.7037E+07 -6.3216E+07 -3.8432E+08 -4.6612E+06 -8.2704E+06  4.8468E+06    3.1975E+08    2.1424E-01
     589-      1
       1          -8.5319E+07 -7.4573E+07 -4.1633E+08 -5.2114E+06 -9.1394E+06 -8.1486E+06    3.3730E+08    2.0192E-01
     604-      1
       1          -3.4393E+07 -4.3327E+07 -2.9597E+08  2.0469E+06  8.2910E+05 -5.6813E+06    2.5744E+08    2.1033E-01



 e l e m e n t   s t r a i n   c a l c u l a t i o n s   f o r   t i m e  s t e p     1358   ( at time  2.71691E+01 )

 element  strain       eps-xx      eps-yy      eps-zz      eps-xy      eps-yz      eps-zx                            yield
 num/ipt   state
      49-      1
      1            1.1434E-01  1.0211E-01 -2.1978E-01 -5.9735E-03 -1.6977E-03 -7.9655E-04
      94-      1
      1            1.0849E-01  1.0116E-01 -2.1318E-01 -8.0290E-03 -2.4492E-03 -9.5852E-05
     154-      1
      1            1.1637E-01  1.0155E-01 -2.2141E-01 -3.3169E-03 -6.6192E-04 -3.8122E-04
     364-      1
      1            9.1505E-02  9.7821E-02 -1.9324E-01 -6.3032E-03 -1.9332E-03  8.5594E-04
     469-      1
      1            1.2306E-01  1.2533E-01 -2.3920E-01  4.8685E-03  2.2098E-03 -8.2133E-03
     529-      1
      1            1.0036E-01  9.8313E-02 -2.0222E-01 -8.6530E-03 -3.1856E-03  9.9942E-04
     589-      1
      1            9.1371E-02  1.0041E-01 -1.9551E-01 -4.0450E-03 -1.0863E-03 -1.7929E-03
     604-      1
      1            1.0145E-01  1.0816E-01 -2.1142E-01 -7.4657E-04  4.1252E-03 -2.6215E-03



 e l e m e n t   s t r e s s   c a l c u l a t i o n s   f o r   t i m e  s t e p     1372   ( at time 2.87502E+01 )

 element  materl
     ipt  stress       sig-xx      sig-yy      sig-zz      sig-xy      sig-yz      sig-zx                       yield
           state                                                                                  effsg      function
      49-      1
       1           3.0995E+07  2.7869E+06 -2.9902E+08 -1.2844E+07 -5.4308E+05  6.4899E+06    3.1784E+08    2.4919E-01
      94-      1
       1          -1.4905E+07 -3.3903E+07 -3.0510E+08 -9.7334E+06  7.4081E+06  4.3554E+06    2.8208E+08    2.3963E-01
     154-      1
       1           2.7959E+07 -5.0252E+06 -3.0717E+08 -1.5990E+06  7.4379E+06  1.7639E+06    3.2020E+08    2.4803E-01
     364-      1
       1          -2.4820E+07 -2.9886E+07 -3.6812E+08 -8.8959E+06 -1.2143E+07 -2.9778E+05    3.4179E+08    2.1902E-01
     469-      1
       1           4.5570E+07  4.3367E+07 -4.3500E+07  1.1046E+06  3.7973E+06 -1.0964E+07    9.0275E+07    2.0644E-01
     529-      1
       1          -2.4169E+07 -2.7319E+07 -3.5177E+08 -1.0238E+07 -1.2650E+07  8.8567E+06    3.2761E+08    2.2867E-01
     589-      1
       1           8.4481E+06  2.5761E+07 -3.2343E+08 -9.2894E+06 -8.2878E+06 -1.1951E+07    3.4217E+08    2.1907E-01
     604-      1
       1           9.6764E+07  9.5325E+07 -1.6278E+08 -4.7760E+06  2.9201E+06 -5.3418E+06    2.5917E+08    2.2294E-01



 e l e m e n t   s t r a i n   c a l c u l a t i o n s   f o r   t i m e  s t e p     1372   ( at time  2.87502E+01 )

 element  strain       eps-xx      eps-yy      eps-zz      eps-xy      eps-yz      eps-zx                            yield
 num/ipt   state
      49-      1
      1            1.2314E-01  1.0852E-01 -2.3440E-01 -6.9657E-03 -1.4210E-03 -3.9084E-04
      94-      1
      1            1.1709E-01  1.0783E-01 -2.2745E-01 -8.8546E-03 -2.4906E-03  3.8836E-05
     154-      1
      1            1.2498E-01  1.0764E-01 -2.3542E-01 -3.4331E-03 -8.4819E-05 -6.4617E-04
     364-      1
      1            9.9650E-02  1.0545E-01 -2.0826E-01 -6.9990E-03 -1.8874E-03  7.1687E-04
     469-      1
      1            1.3304E-01  1.3451E-01 -2.5624E-01  5.6147E-03  2.0792E-03 -9.1729E-03
     529-      1
      1            1.0736E-01  1.0496E-01 -2.1546E-01 -9.3927E-03 -3.4066E-03  1.4177E-03
     589-      1
      1            9.9449E-02  1.0980E-01 -2.1182E-01 -4.8405E-03 -1.3068E-03 -2.1883E-03
     604-      1
      1            1.1043E-01  1.1749E-01 -2.2689E-01 -1.2502E-03  4.6621E-03 -2.2920E-03



 e l e m e n t   s t r e s s   c a l c u l a t i o n s   f o r   t i m e  s t e p     1382   ( at time 3.03314E+01 )

 element  materl
     ipt  stress       sig-xx      sig-yy      sig-zz      sig-xy      sig-yz      sig-zx                       yield
           state                                                                                  effsg      function
      49-      1
       1           1.3538E+07  2.5947E+06 -3.1585E+08 -7.1636E+06 -4.0959E+06  5.3107E+06    3.2450E+08    2.6083E-01
      94-      1
       1          -4.3670E+07 -4.9304E+07 -3.3647E+08 -3.6531E+06  5.0793E+06  3.3650E+06    2.9029E+08    2.4956E-01
     154-      1
       1           7.3588E+06 -8.3661E+06 -3.2856E+08 -3.7011E+06  7.6634E+06 -5.8875E+05    3.2868E+08    2.5926E-01
     364-      1
       1          -2.4947E+07 -2.7140E+07 -3.7155E+08 -6.3034E+06 -9.6118E+06  7.1139E+05    3.4609E+08    2.3082E-01
     469-      1
       1          -8.1162E+06 -9.2273E+06 -5.3602E+07  1.6815E+06  1.7188E+06 -4.0343E+06    4.5671E+07    2.0799E-01
     529-      1
       1          -1.2033E+07 -1.3332E+07 -3.5028E+08 -2.5158E+06 -4.4278E+06  3.5951E+06    3.3777E+08    2.4032E-01
     589-      1
       1           7.0103E+06  1.7559E+07 -3.3401E+08 -6.8270E+06 -5.0716E+06 -3.5186E+06    3.4678E+08    2.3107E-01
     604-      1
       1           2.9804E+07  2.5548E+07 -2.3332E+08 -2.7407E+06  8.0686E+04 -9.4203E+05    2.6107E+08    2.3104E-01



 e l e m e n t   s t r a i n   c a l c u l a t i o n s   f o r   t i m e  s t e p     1382   ( at time  3.03314E+01 )

 element  strain       eps-xx      eps-yy      eps-zz      eps-xy      eps-yz      eps-zx                            yield
 num/ipt   state
      49-      1
      1            1.2846E-01  1.1359E-01 -2.4504E-01 -7.1946E-03 -1.4865E-03 -2.1608E-04
      94-      1
      1            1.2233E-01  1.1290E-01 -2.3821E-01 -8.8487E-03 -2.5015E-03  1.3424E-05
     154-      1
      1            1.3023E-01  1.1250E-01 -2.4584E-01 -3.6792E-03  3.7671E-04 -9.0547E-04
     364-      1
      1            1.0547E-01  1.1116E-01 -2.1989E-01 -7.2736E-03 -2.0155E-03  7.0569E-04
     469-      1
      1            1.3912E-01  1.4021E-01 -2.6867E-01  5.7775E-03  2.0961E-03 -9.4130E-03
     529-      1
      1            1.1303E-01  1.1052E-01 -2.2666E-01 -9.3626E-03 -3.0632E-03  1.4813E-03
     589-      1
      1            1.0509E-01  1.1584E-01 -2.2370E-01 -5.1485E-03 -1.5226E-03 -2.2560E-03
     604-      1
      1            1.1544E-01  1.2228E-01 -2.3780E-01 -1.2709E-03  4.8751E-03 -2.2458E-03



 e l e m e n t   s t r e s s   c a l c u l a t i o n s   f o r   t i m e  s t e p     1389   ( at time 3.19125E+01 )

 element  materl
     ipt  stress       sig-xx      sig-yy      sig-zz      sig-xy      sig-yz      sig-zx                       yield
           state                                                                                  effsg      function
      49-      1
       1           2.7086E+07  4.0410E+07 -3.0655E+08  2.7116E+06 -1.2737E+07  2.5089E+06    3.4126E+08    2.7464E-01
      94-      1
       1          -3.9826E+07 -3.8814E+07 -3.3911E+08  3.9096E+06 -3.8921E+06 -8.1048E+05    2.9995E+08    2.6112E-01
     154-      1
       1           2.1578E+07  3.6022E+07 -3.1743E+08 -5.0335E+05 -2.8507E+06 -1.5901E+06    3.4650E+08    2.7325E-01
     364-      1
       1          -3.7559E+07 -4.1435E+07 -3.8903E+08  3.4690E+06 -5.8638E+06 -2.0904E+06    3.4977E+08    2.4273E-01
     469-      1
       1          -1.4687E+07 -1.6653E+07 -6.1066E+07  1.3430E+06  1.5722E+06 -3.4118E+06    4.5950E+07    2.0952E-01
     529-      1
       1           8.3005E+06  1.4114E+07 -3.3363E+08  5.6362E+06 -6.2088E+06 -3.4544E+06    3.4523E+08    2.5290E-01
     589-      1
       1           3.7339E+06  4.7826E+06 -3.4626E+08 -1.8355E+06 -3.8127E+06 -2.3911E+06    3.5062E+08    2.4325E-01
     604-      1
       1           9.0580E+06  2.5795E+06 -2.5818E+08 -3.2603E+06 -1.0275E+06 -1.4478E+06    2.6414E+08    2.3981E-01



 e l e m e n t   s t r a i n   c a l c u l a t i o n s   f o r   t i m e  s t e p     1389   ( at time  3.19125E+01 )

 element  strain       eps-xx      eps-yy      eps-zz      eps-xy      eps-yz      eps-zx                            yield
 num/ipt   state
      49-      1
      1            1.3448E-01  1.2082E-01 -2.5814E-01 -6.8396E-03 -1.9526E-03 -2.2973E-05
      94-      1
      1            1.2855E-01  1.1951E-01 -2.5081E-01 -8.4460E-03 -2.8723E-03 -3.8700E-05
     154-      1
      1            1.3638E-01  1.2007E-01 -2.5936E-01 -3.6564E-03  4.4841E-04 -1.0844E-03
     364-      1
      1            1.1137E-01  1.1680E-01 -2.3174E-01 -6.9141E-03 -2.2519E-03  4.9990E-04
     469-      1
      1            1.4556E-01  1.4553E-01 -2.8118E-01  5.9231E-03  1.9565E-03 -9.7116E-03
     529-      1
      1            1.1897E-01  1.1691E-01 -2.3879E-01 -8.9050E-03 -3.3558E-03  1.3139E-03
     589-      1
      1            1.1110E-01  1.2171E-01 -2.3582E-01 -5.1510E-03 -1.7125E-03 -2.5237E-03
     604-      1
      1            1.2127E-01  1.2764E-01 -2.4941E-01 -1.4813E-03  4.9866E-03 -2.3424E-03



 e l e m e n t   s t r e s s   c a l c u l a t i o n s   f o r   t i m e  s t e p     1398   ( at time 3.44184E+01 )

 element  materl
     ipt  stress       sig-xx      sig-yy      sig-zz      sig-xy      sig-yz      sig-zx                       yield
           state                                                                                  effsg      function
      49-      1
       1           9.3653E+06  7.3292E+06 -3.4458E+08 -1.2363E+06 -7.3269E+06  3.3805E+06    3.5321E+08    2.9630E-01
      94-      1
       1          -6.6659E+07 -7.3011E+07 -3.7679E+08 -1.5441E+06 -1.2747E+06  1.0943E+06    3.0703E+08    2.7974E-01
     154-      1
       1          -8.5055E+06 -8.8358E+06 -3.6669E+08 -4.6428E+05  1.9155E+06 -2.8196E+05    3.5804E+08    2.9380E-01
     364-      1
       1          -5.8452E+07 -5.7239E+07 -4.1020E+08 -5.3099E+06 -5.7296E+06 -1.0819E+06    3.5262E+08    2.6221E-01
     469-      1
       1          -5.5916E+06 -7.8049E+06 -5.2699E+07  9.5106E+05  9.3127E+05 -3.1032E+06    4.6411E+07    2.1211E-01
     529-      1
       1           1.1332E+06 -1.9687E+05 -3.5071E+08 -3.7494E+06 -6.9288E+06  3.2946E+04    3.5145E+08    2.7315E-01
     589-      1
       1          -9.7995E+06  1.4881E+06 -3.5717E+08 -5.9693E+06 -2.4421E+06 -6.9653E+05    3.5332E+08    2.6254E-01
     604-      1
       1           4.3994E+07  4.6621E+07 -2.2331E+08 -7.3389E+06 -6.2350E+05  1.1703E+04    2.6893E+08    2.5523E-01



 e l e m e n t   s t r a i n   c a l c u l a t i o n s   f o r   t i m e  s t e p     1398   ( at time  3.44184E+01 )

 element  strain       eps-xx      eps-yy      eps-zz      eps-xy      eps-yz      eps-zx                            yield
 num/ipt   state
      49-      1
      1            1.4501E-01  1.3081E-01 -2.7939E-01 -7.0129E-03 -2.2707E-03  1.1569E-04
      94-      1
      1            1.3893E-01  1.2918E-01 -2.7148E-01 -8.7503E-03 -3.2182E-03 -1.3736E-05
     154-      1
      1            1.4634E-01  1.2975E-01 -2.7989E-01 -3.7166E-03  5.3920E-04 -1.5355E-03
     364-      1
      1            1.2068E-01  1.2623E-01 -2.5102E-01 -7.5275E-03 -2.3864E-03  5.7205E-04
     469-      1
      1            1.5718E-01  1.5561E-01 -3.0225E-01  6.2305E-03  1.3287E-03 -1.0112E-02
     529-      1
      1            1.2881E-01  1.2646E-01 -2.5865E-01 -9.4008E-03 -3.6293E-03  1.4695E-03
     589-      1
      1            1.1993E-01  1.3157E-01 -2.5490E-01 -5.7398E-03 -1.6753E-03 -2.5494E-03
     604-      1
      1            1.3139E-01  1.3831E-01 -2.6946E-01 -2.3018E-03  5.5142E-03 -2.5200E-03



 e l e m e n t   s t r e s s   c a l c u l a t i o n s   f o r   t i m e  s t e p     1405   ( at time 3.69244E+01 )

 element  materl
     ipt  stress       sig-xx      sig-yy      sig-zz      sig-xy      sig-yz      sig-zx                       yield
           state                                                                                  effsg      function
      49-      1
       1           5.5350E+07  6.2317E+07 -3.0299E+08  5.5556E+06 -6.1528E+06  3.3378E+06    3.6220E+08    3.1551E-01
      94-      1
       1          -3.2475E+07 -3.4011E+07 -3.4702E+08  4.1599E+06 -5.6438E+05  1.4877E+06    3.1387E+08    2.9620E-01
     154-      1
       1           4.4383E+07  5.4340E+07 -3.1627E+08  1.1278E+06 -1.7593E+06 -4.4996E+05    3.6575E+08    3.1369E-01
     364-      1
       1          -1.7371E+07 -1.7990E+07 -3.7563E+08  1.4451E+06 -4.7674E+06 -9.1016E+05    3.5806E+08    2.8113E-01
     469-      1
       1          -2.0532E+07 -2.3230E+07 -6.8320E+07  4.2171E+05  1.2383E+06 -2.8484E+06    4.6814E+07    2.1445E-01
     529-      1
       1           3.3405E+07  3.6662E+07 -3.2259E+08  1.6590E+06 -4.2755E+06 -2.4760E+06    3.5775E+08    2.9209E-01
     589-      1
       1           4.4782E+07  4.2138E+07 -3.1487E+08  1.1360E+05 -2.4949E+06  3.1121E+05    3.5836E+08    2.8133E-01
     604-      1
       1          -1.6671E+07 -2.3853E+07 -2.4732E+08 -9.3907E+05 -3.4643E+05 -2.1193E+06    2.2718E+08    2.6736E-01



 e l e m e n t   s t r a i n   c a l c u l a t i o n s   f o r   t i m e  s t e p     1405   ( at time  3.69244E+01 )

 element  strain       eps-xx      eps-yy      eps-zz      eps-xy      eps-yz      eps-zx                            yield
 num/ipt   state
      49-      1
      1            1.5425E-01  1.4075E-01 -2.9815E-01 -6.4495E-03 -2.8907E-03  3.9463E-04
      94-      1
      1            1.4825E-01  1.3850E-01 -2.8967E-01 -8.3043E-03 -3.5507E-03 -1.2569E-04
     154-      1
      1            1.5590E-01  1.4030E-01 -2.9951E-01 -3.5954E-03  2.3379E-04 -1.6405E-03
     364-      1
      1            1.3018E-01  1.3562E-01 -2.6963E-01 -7.2930E-03 -2.8575E-03  3.2037E-04
     469-      1
      1            1.6672E-01  1.6357E-01 -3.2190E-01  6.3860E-03  9.0307E-04 -1.0554E-02
     529-      1
      1            1.3804E-01  1.3599E-01 -2.7720E-01 -9.1703E-03 -3.7707E-03  9.8015E-04
     589-      1
      1            1.2958E-01  1.4077E-01 -2.7336E-01 -5.6140E-03 -1.7986E-03 -2.8992E-03
     604-      1
      1            1.4141E-01  1.4710E-01 -2.8863E-01 -2.4154E-03  5.7521E-03 -2.9684E-03



 e l e m e n t   s t r e s s   c a l c u l a t i o n s   f o r   t i m e  s t e p     1416   ( at time 4.08960E+01 )

[...]
     154-      1
       1          -1.0703E+08 -1.6269E+08 -4.3688E+08 -8.1654E+06 -4.6880E+05  8.0215E+06    3.0648E+08    5.4617E-01
     364-      1
       1          -1.6081E+08 -1.3435E+08 -3.9163E+08 -2.7309E+07 -1.1563E+06  6.7918E+06    2.4993E+08    5.1730E-01
     469-      1
       1           0.0000E+00  0.0000E+00  0.0000E+00  0.0000E+00  0.0000E+00  0.0000E+00    0.0000E+00    2.4848E-01
     529-      1
       1          -1.0578E+08 -1.2950E+08 -4.6562E+08 -2.9866E+07  7.5322E+05  1.4431E+07    3.5329E+08    5.2950E-01
     589-      1
       1          -4.3118E+06  1.2326E+07 -2.9340E+08 -1.3192E+07  4.7651E+06  8.6511E+06    2.9912E+08    5.1285E-01
     604-      1
       1           7.4147E+07  8.3493E+07 -2.3299E+07 -2.7742E+06 -9.3765E+05 -8.0874E+06    1.0352E+08    4.2268E-01



 e l e m e n t   s t r a i n   c a l c u l a t i o n s   f o r   t i m e  s t e p     1501   ( at time  7.26692E+01 )

 element  strain       eps-xx      eps-yy      eps-zz      eps-xy      eps-yz      eps-zx                            yield
 num/ipt   state
      49-      1
      1            3.1353E-01  2.6797E-01 -5.8798E-01 -7.9286E-03 -3.7464E-03  1.5112E-03
      94-      1
      1            2.9774E-01  2.6130E-01 -5.6840E-01 -1.5161E-02 -4.0090E-03 -4.3980E-04
     154-      1
      1            3.1065E-01  2.7337E-01 -5.9518E-01 -3.4896E-03 -1.8334E-03  4.8898E-03
     364-      1
      1            2.5688E-01  2.6283E-01 -5.2995E-01 -2.9097E-02  9.6430E-04  4.1529E-03
     469-      1
      1            3.1580E-01  3.2611E-01 -6.3687E-01  6.0072E-03  1.6932E-03 -9.3518E-03
     529-      1
      1            2.7670E-01  2.5978E-01 -5.4684E-01 -2.5118E-02 -3.0073E-03  6.5751E-03
     589-      1
      1            2.5310E-01  2.8069E-01 -5.4088E-01 -1.8613E-02  7.8369E-03 -1.5715E-03
     604-      1
      1            2.8611E-01  3.0395E-01 -5.8326E-01 -5.1183E-03  1.6422E-02 -5.2767E-03



 e l e m e n t   s t r e s s   c a l c u l a t i o n s   f o r   t i m e  s t e p     1509   ( at time 7.66408E+01 )

 element  materl
     ipt  stress       sig-xx      sig-yy      sig-zz      sig-xy      sig-yz      sig-zx                       yield
           state                                                                                  effsg      function
      49-      1
       1           9.8118E+06  4.0943E+06 -2.5227E+08  4.4066E+06 -8.9533E+05 -2.8530E+06    2.5943E+08    5.4675E-01
      94-      1
       1           6.6935E+07  5.5142E+07 -2.4826E+08 -1.7690E+06  5.1827E+06  3.9866E+06    3.0969E+08    5.6688E-01
     154-      1
       1          -3.7134E+06 -6.2231E+06 -3.1354E+08 -3.4821E+06 -8.3303E+06 -2.1370E+06    3.0900E+08    5.6974E-01
     364-      1
       1          -5.2605E+07 -5.3145E+07 -3.0624E+08 -7.9910E+05 -2.7025E+06  1.0418E+06    2.5342E+08    5.3519E-01
     469-      1
       1           0.0000E+00  0.0000E+00  0.0000E+00  0.0000E+00  0.0000E+00  0.0000E+00    0.0000E+00    2.4848E-01
     529-      1
       1          -8.8664E+06 -1.4443E+07 -3.6861E+08 -4.6173E+06 -1.9295E+04  5.5313E+06    3.5721E+08    5.5429E-01
     589-      1
       1           1.6848E+07  1.3832E+07 -2.8986E+08  1.4628E+06  6.0004E+06  2.8957E+06    3.0544E+08    5.3488E-01
     604-      1
       1           1.6283E+07  2.0359E+07 -8.4671E+07  2.3546E+05 -2.0271E+06 -9.3119E+06    1.0437E+08    4.2981E-01



 e l e m e n t   s t r a i n   c a l c u l a t i o n s   f o r   t i m e  s t e p     1509   ( at time  7.66408E+01 )

 element  strain       eps-xx      eps-yy      eps-zz      eps-xy      eps-yz      eps-zx                            yield
 num/ipt   state
      49-      1
      1            3.2665E-01  2.8192E-01 -6.1619E-01 -6.7382E-03 -3.6533E-03  1.5277E-03
      94-      1
      1            3.1351E-01  2.7567E-01 -5.9765E-01 -1.5035E-02 -3.8864E-03 -4.3150E-04
     154-      1
      1            3.2642E-01  2.9031E-01 -6.2644E-01 -3.6108E-03 -2.7338E-03  6.8120E-03
     364-      1
      1            2.7230E-01  2.7682E-01 -5.5824E-01 -2.8423E-02  9.3532E-04  3.6782E-03
     469-      1
      1            3.2833E-01  3.4021E-01 -6.6911E-01  5.2812E-03  3.1172E-03 -8.4040E-03
     529-      1
      1            2.9113E-01  2.7429E-01 -5.7480E-01 -2.5176E-02 -3.1220E-03  6.1042E-03
     589-      1
      1            2.6782E-01  2.9458E-01 -5.7040E-01 -1.8101E-02  7.9562E-03 -1.4921E-03
     604-      1
      1            2.9920E-01  3.1688E-01 -6.1235E-01 -4.9920E-03  1.6889E-02 -4.8407E-03



 e l e m e n t   s t r e s s   c a l c u l a t i o n s   f o r   t i m e  s t e p     1519   ( at time 8.06124E+01 )

 element  materl
     ipt  stress       sig-xx      sig-yy      sig-zz      sig-xy      sig-yz      sig-zx                       yield
           state                                                                                  effsg      function
      49-      1
       1           4.7484E+07  2.7561E+07 -2.2268E+08 -2.3122E+06 -6.2772E+05  3.3312E+05    2.6081E+08    5.6864E-01
      94-      1
       1           4.9832E+07  2.9049E+07 -2.1899E+08 -1.3246E+07  4.3721E+06  4.3246E+05    2.6019E+08    5.8652E-01
     154-      1
       1           2.6992E+07  4.3801E+06 -2.4251E+08 -5.0922E+06 -2.2667E+05 -2.5966E+05    2.5909E+08    5.9410E-01
     364-      1
       1          -9.6836E+07 -9.3269E+07 -3.4820E+08 -1.3934E+07 -1.6570E+06  4.8313E+06    2.5447E+08    5.5280E-01
     469-      1
       1           0.0000E+00  0.0000E+00  0.0000E+00  0.0000E+00  0.0000E+00  0.0000E+00    0.0000E+00    2.4848E-01
     529-      1
       1          -4.8038E+07 -6.2390E+07 -4.1183E+08 -2.7300E+07  4.5589E+06  1.1644E+07    3.6061E+08    5.7662E-01
     589-      1
       1           1.2427E+08  1.3185E+08 -1.2679E+08 -6.3412E+06  3.3242E+06  5.4747E+06    2.5541E+08    5.5644E-01
     604-      1
       1           9.8161E+07  1.0678E+08 -4.0007E+05 -1.0944E+06 -5.5195E+06 -1.1721E+07    1.0557E+08    4.3874E-01



 e l e m e n t   s t r a i n   c a l c u l a t i o n s   f o r   t i m e  s t e p     1519   ( at time  8.06124E+01 )

 element  strain       eps-xx      eps-yy      eps-zz      eps-xy      eps-yz      eps-zx                            yield
 num/ipt   state
      49-      1
      1            3.4593E-01  2.9627E-01 -6.5018E-01 -7.7817E-03 -4.3772E-03  3.2147E-03
      94-      1
      1            3.3126E-01  2.8930E-01 -6.2837E-01 -1.7587E-02 -4.4950E-03  3.4296E-04
     154-      1
      1            3.4853E-01  3.0610E-01 -6.6480E-01 -4.7583E-03 -2.6311E-03  7.7938E-03
     364-      1
      1            2.8525E-01  2.8937E-01 -5.8501E-01 -3.1780E-02  2.4328E-03  2.9401E-03
     469-      1
      1            3.4334E-01  3.6028E-01 -7.0288E-01  4.9818E-03  2.6398E-03 -6.3868E-03
     529-      1
      1            3.0439E-01  2.8572E-01 -6.0062E-01 -2.8361E-02 -3.0987E-03  6.8304E-03
     589-      1
      1            2.8476E-01  3.1229E-01 -6.0211E-01 -2.0474E-02  1.0258E-02 -1.3699E-03
     604-      1
      1            3.1627E-01  3.3738E-01 -6.4683E-01 -6.3190E-03  1.7273E-02 -3.2739E-03



 e l e m e n t   s t r e s s   c a l c u l a t i o n s   f o r   t i m e  s t e p     1531   ( at time 8.45841E+01 )

 element  materl
     ipt  stress       sig-xx      sig-yy      sig-zz      sig-xy      sig-yz      sig-zx                       yield
           state                                                                                  effsg      function
      49-      1
       1          -5.6740E+07 -6.5937E+07 -3.1472E+08 -1.5583E+07 -9.0013E+06 -6.7018E+06    2.5568E+08    5.9118E-01
      94-      1
       1           1.8833E+07  7.0120E+06 -1.9055E+08 -1.2392E+07  4.1513E+06 -5.3249E+06    2.0519E+08    6.0498E-01
     154-      1
       1          -6.6618E+07 -9.7142E+07 -2.8426E+08 -4.6714E+06 -1.8699E+07 -3.4957E+06    2.0690E+08    6.1626E-01
     364-      1
       1          -1.9457E+08 -1.8926E+08 -4.3778E+08 -1.9647E+07 -5.1043E+06  3.1030E+06    2.4847E+08    5.6947E-01
     469-      1
       1           0.0000E+00  0.0000E+00  0.0000E+00  0.0000E+00  0.0000E+00  0.0000E+00    0.0000E+00    2.4848E-01
     529-      1
       1          -1.4093E+08 -1.7423E+08 -5.0841E+08 -2.8073E+07  3.3598E+06  7.4113E+06    3.5564E+08    6.0013E-01
     589-      1
       1           7.3569E+07  8.8636E+07 -1.1707E+08 -7.4705E+06  7.8919E+06  1.0887E+07    2.0038E+08    5.7651E-01
     604-      1
       1           5.3993E+07  5.7224E+07  4.2951E+06 -9.2119E+05 -2.9555E+06 -7.4866E+06    5.3271E+07    4.4384E-01



 e l e m e n t   s t r a i n   c a l c u l a t i o n s   f o r   t i m e  s t e p     1531   ( at time  8.45841E+01 )

 element  strain       eps-xx      eps-yy      eps-zz      eps-xy      eps-yz      eps-zx                            yield
 num/ipt   state
      49-      1
      1            3.6263E-01  3.1095E-01 -6.8577E-01 -1.2195E-02 -2.8315E-03  5.0406E-03
      94-      1
      1            3.5283E-01  3.0572E-01 -6.6565E-01 -2.0689E-02 -7.6015E-03 -1.2726E-03
     154-      1
      1            3.7389E-01  3.2213E-01 -7.0713E-01 -6.0581E-03 -1.0137E-03  1.1624E-02
     364-      1
      1            2.9705E-01  2.9970E-01 -6.0884E-01 -3.5573E-02  4.8281E-03  3.4663E-03
     469-      1
      1            3.5836E-01  3.8284E-01 -7.4247E-01  3.3934E-03  2.4247E-03 -4.3581E-03
     529-      1
      1            3.1896E-01  2.9656E-01 -6.2791E-01 -3.1113E-02 -4.5527E-03  9.9761E-03
     589-      1
      1            3.0097E-01  3.3169E-01 -6.3663E-01 -2.3620E-02  1.5463E-02 -9.5511E-04
     604-      1
      1            3.3331E-01  3.6073E-01 -6.8633E-01 -7.8820E-03  1.7948E-02 -2.5891E-03



 e l e m e n t   s t r e s s   c a l c u l a t i o n s   f o r   t i m e  s t e p     1539   ( at time 8.85557E+01 )

 element  materl
     ipt  stress       sig-xx      sig-yy      sig-zz      sig-xy      sig-yz      sig-zx                       yield
           state                                                                                  effsg      function
      49-      1
       1           4.5779E+07  3.9425E+07 -2.1906E+08 -7.4776E+06 -1.4040E+07 -4.7307E+05    2.6317E+08    6.0820E-01
      94-      1
       1           1.8668E+07  4.0490E+06 -1.9821E+08 -2.4142E+06  1.5309E+06  4.3102E+04    2.1001E+08    6.1811E-01
     154-      1
       1          -4.5729E+06 -4.7949E+06 -2.1190E+08 -3.0846E+06 -1.5872E+07 -6.1620E+06    2.0937E+08    6.3101E-01
     364-      1
       1          -9.3609E+07 -1.0045E+08 -4.0200E+08 -3.1729E+06 -6.6284E+05 -2.4444E+06    3.0511E+08    5.9029E-01
     469-      1
       1          -2.5950E+07 -2.5950E+07 -2.5950E+07  0.0000E+00  0.0000E+00  0.0000E+00    0.0000E+00    2.4848E-01
     529-      1
       1          -4.8107E+07 -5.9411E+07 -4.1461E+08 -8.9065E+06 -4.7685E+06  6.0738E+06    3.6157E+08    6.2207E-01
     589-      1
       1          -3.3385E+07 -2.9009E+07 -1.8675E+08  2.9190E+06  1.5807E+06  3.9964E+06    1.5586E+08    5.8716E-01
     604-      1
       1          -3.0381E+07 -3.0381E+07 -3.0381E+07  0.0000E+00  0.0000E+00  0.0000E+00    0.0000E+00    4.4384E-01



 e l e m e n t   s t r a i n   c a l c u l a t i o n s   f o r   t i m e  s t e p     1539   ( at time  8.85557E+01 )

 element  strain       eps-xx      eps-yy      eps-zz      eps-xy      eps-yz      eps-zx                            yield
 num/ipt   state
      49-      1
      1            3.7657E-01  3.2452E-01 -7.1196E-01 -1.2858E-02 -2.6658E-03  5.7285E-03
      94-      1
      1            3.6624E-01  3.1718E-01 -6.9165E-01 -2.1202E-02 -7.5451E-03 -1.0795E-03
     154-      1
      1            3.8806E-01  3.3643E-01 -7.3478E-01 -5.9574E-03 -3.8044E-04  1.2061E-02
     364-      1
      1            3.1176E-01  3.1315E-01 -6.3658E-01 -3.5611E-02  6.5253E-03  3.6536E-03
     469-      1
      1            3.7141E-01  3.9711E-01 -7.7537E-01  2.7455E-03  2.4734E-03 -4.4937E-03
     529-      1
      1            3.3183E-01  3.0898E-01 -6.5218E-01 -3.1693E-02 -3.5552E-03  1.0169E-02
     589-      1
      1            3.1410E-01  3.4372E-01 -6.6494E-01 -2.2948E-02  1.6162E-02  3.0077E-04
     604-      1
      1            3.4541E-01  3.7396E-01 -7.1742E-01 -7.6952E-03  1.9101E-02 -2.3170E-03



 e l e m e n t   s t r e s s   c a l c u l a t i o n s   f o r   t i m e  s t e p     1548   ( at time 9.25274E+01 )

 element  materl
     ipt  stress       sig-xx      sig-yy      sig-zz      sig-xy      sig-yz      sig-zx                       yield
           state                                                                                  effsg      function
      49-      1
       1           9.0301E+07  7.8654E+07 -1.2675E+08 -7.1477E+06 -2.4574E+07 -2.2132E+06    2.1609E+08    6.2524E-01
      94-      1
       1           6.8110E+07  5.0395E+07 -1.5058E+08 -3.4203E+06  4.2209E+06  8.9196E+04    2.1060E+08    6.3403E-01
     154-      1
       1           7.7938E+07  7.2228E+07 -1.3360E+08 -4.0001E+06 -1.6507E+07 -1.1902E+06    2.1082E+08    6.4998E-01
     364-      1
       1          -2.5252E+07 -2.1051E+07 -2.8116E+08 -8.8450E+06 -4.8554E+06  2.9394E+06    2.5868E+08    6.0837E-01
     469-      1
       1          -3.8907E+05  1.1041E+06 -4.3783E+07 -1.5990E+06  2.5322E+05  7.6125E+05    4.4268E+07    2.5227E-01
     529-      1
       1          -2.9590E+07 -4.2273E+07 -3.9812E+08 -1.7272E+07  1.3283E+06  4.5473E+06    3.6368E+08    6.4624E-01
     589-      1
       1           4.9295E+07  5.9211E+07 -1.0129E+08  6.9439E+05  3.7343E+06  3.6141E+06    1.5604E+08    5.9938E-01
     604-      1
       1           1.5291E+07  1.9425E+07 -3.4716E+07  1.1708E+06 -3.4264E+06 -6.2020E+06    5.3659E+07    4.4727E-01



 e l e m e n t   s t r a i n   c a l c u l a t i o n s   f o r   t i m e  s t e p     1548   ( at time  9.25274E+01 )

 element  strain       eps-xx      eps-yy      eps-zz      eps-xy      eps-yz      eps-zx                            yield
 num/ipt   state
      49-      1
      1            3.9511E-01  3.4073E-01 -7.4499E-01 -1.4641E-02 -3.6214E-03  7.2577E-03
      94-      1
      1            3.8435E-01  3.3121E-01 -7.2173E-01 -2.2279E-02 -7.3908E-03  3.4617E-04
     154-      1
      1            4.0716E-01  3.5435E-01 -7.7097E-01 -7.0079E-03  1.1762E-03  1.3032E-02
     364-      1
      1            3.2609E-01  3.2715E-01 -6.6403E-01 -3.7660E-02  6.8644E-03  3.5284E-03
     469-      1
      1            3.8789E-01  4.1616E-01 -8.0935E-01  2.5361E-03  2.7621E-03 -5.2030E-03
     529-      1
      1            3.4607E-01  3.2208E-01 -6.7966E-01 -3.3882E-02 -2.5582E-03  1.1219E-02
     589-      1
      1            3.3056E-01  3.5966E-01 -6.9435E-01 -2.3857E-02  1.8329E-02  7.8675E-04
     604-      1
      1            3.6161E-01  3.9260E-01 -7.4871E-01 -7.7906E-03  1.8775E-02 -1.0193E-03



 e l e m e n t   s t r e s s   c a l c u l a t i o n s   f o r   t i m e  s t e p     1559   ( at time 9.64990E+01 )

 element  materl
     ipt  stress       sig-xx      sig-yy      sig-zz      sig-xy      sig-yz      sig-zx                       yield
           state                                                                                  effsg      function
      49-      1
       1          -1.5411E+07 -2.2202E+07 -1.2265E+08 -3.5983E+06 -1.8645E+07 -4.7763E+06    1.0940E+08    6.3448E-01
      94-      1
       1           3.6219E+07  2.0105E+07 -1.2724E+08 -2.7136E+06 -6.5208E+06 -3.8799E+06    1.5665E+08    6.4795E-01
     154-      1
       1           1.3161E+08  1.1791E+08 -8.2037E+07 -5.6416E+06 -1.9181E+07 -3.1907E+06    2.1009E+08    6.7085E-01
     364-      1
       1          -5.9411E+07 -5.9679E+07 -2.6430E+08 -1.1394E+07  6.0867E+05  3.2352E+06    2.0578E+08    6.2480E-01
     469-      1
       1          -3.2410E+06 -3.2410E+06 -3.2410E+06  0.0000E+00  0.0000E+00  0.0000E+00    0.0000E+00    2.5227E-01
     529-      1
       1          -8.3885E+05 -1.8247E+07 -3.6599E+08 -2.1160E+07  6.2322E+06  9.8294E+06    3.5921E+08    6.7110E-01
     589-      1
       1           8.4500E+07  1.0032E+08 -6.1719E+07 -2.0698E+06  3.4970E+06  5.0177E+06    1.5514E+08    6.1327E-01
     604-      1
       1           0.0000E+00  0.0000E+00  0.0000E+00  0.0000E+00  0.0000E+00  0.0000E+00    0.0000E+00    4.4727E-01



 e l e m e n t   s t r a i n   c a l c u l a t i o n s   f o r   t i m e  s t e p     1559   ( at time  9.64990E+01 )

 element  strain       eps-xx      eps-yy      eps-zz      eps-xy      eps-yz      eps-zx                            yield
 num/ipt   state
      49-      1
      1            4.1407E-01  3.5676E-01 -7.7989E-01 -1.6538E-02 -3.3314E-03  8.1760E-03
      94-      1
      1            4.0432E-01  3.4649E-01 -7.5575E-01 -2.4706E-02 -8.0917E-03  3.2851E-03
     154-      1
      1            4.2883E-01  3.7214E-01 -8.1020E-01 -8.6224E-03  2.5273E-03  1.5468E-02
     364-      1
      1            3.4233E-01  3.4038E-01 -6.9421E-01 -4.0894E-02  8.7648E-03  3.5566E-03
     469-      1
      1            4.1078E-01  4.3861E-01 -8.5429E-01  1.2826E-03  5.4957E-03  6.5385E-04
     529-      1
      1            3.6072E-01  3.3440E-01 -7.0725E-01 -3.6462E-02 -1.1916E-03  1.3336E-02
     589-      1
      1            3.4747E-01  3.7810E-01 -7.2696E-01 -2.6068E-02  2.0587E-02  1.2566E-03
     604-      1
      1            3.8030E-01  4.1468E-01 -7.8670E-01 -9.3800E-03  2.2037E-02  6.4702E-04



 e l e m e n t   s t r e s s   c a l c u l a t i o n s   f o r   t i m e  s t e p     1566   ( at time 1.00000E+02 )

 element  materl
     ipt  stress       sig-xx      sig-yy      sig-zz      sig-xy      sig-yz      sig-zx                       yield
           state                                                                                  effsg      function
      49-      1
       1          -7.2951E+07 -8.2581E+07 -2.3100E+08 -3.0161E+06 -3.5896E+06 -1.4735E+06    1.5370E+08    6.4274E-01
      94-      1
       1          -8.3210E+07 -9.5578E+07 -2.4904E+08 -2.8666E+06 -4.9389E+06  3.5532E+05    1.6031E+08    6.5722E-01
     154-      1
       1           1.0136E+08  9.6313E+07 -6.1511E+07 -3.4506E+06 -2.7675E+06 -8.3696E+05    1.6060E+08    6.8016E-01
     364-      1
       1          -1.0696E+08 -1.0772E+08 -3.1875E+08 -2.3086E+06 -3.8360E+05  3.0849E+06    2.1152E+08    6.3704E-01
     469-      1
       1          -5.2521E+07 -5.2521E+07 -5.2521E+07  0.0000E+00  0.0000E+00  0.0000E+00    0.0000E+00    2.5227E-01
     529-      1
       1          -5.1605E+07 -6.4100E+07 -4.2566E+08 -5.5063E+06 -2.2269E+06 -2.5949E+06    3.6814E+08    6.9108E-01
     589-      1
       1          -7.1855E+07 -6.9643E+07 -1.7721E+08  7.5146E+05  7.1445E+06  7.7668E+06    1.0805E+08    6.1993E-01
     604-      1
       1          -4.1256E+07 -4.1256E+07 -4.1256E+07  0.0000E+00  0.0000E+00  0.0000E+00    0.0000E+00    4.4727E-01



 e l e m e n t   s t r a i n   c a l c u l a t i o n s   f o r   t i m e  s t e p     1566   ( at time  1.00000E+02 )

 element  strain       eps-xx      eps-yy      eps-zz      eps-xy      eps-yz      eps-zx                            yield
 num/ipt   state
      49-      1
      1            4.2598E-01  3.6670E-01 -8.0639E-01 -1.6968E-02 -6.8256E-03  7.1849E-03
      94-      1
      1            4.1608E-01  3.5611E-01 -7.8131E-01 -2.5762E-02 -9.5051E-03  4.2834E-03
     154-      1
      1            4.4133E-01  3.8466E-01 -8.3665E-01 -9.3546E-03  2.7234E-04  1.5957E-02
     364-      1
      1            3.5433E-01  3.5173E-01 -7.1821E-01 -4.0852E-02  9.6989E-03  2.8436E-03
     469-      1
      1            4.2118E-01  4.5019E-01 -8.8284E-01  6.4891E-04  5.6312E-03  1.2692E-03
     529-      1
      1            3.7176E-01  3.4482E-01 -7.3013E-01 -3.6844E-02 -1.5368E-03  1.3633E-02
     589-      1
      1            3.5932E-01  3.8876E-01 -7.5458E-01 -2.6144E-02  2.1749E-02  6.9727E-04
     604-      1
      1            3.9116E-01  4.2660E-01 -8.1547E-01 -9.4853E-03  2.2284E-02  1.4790E-03
