 LS-DYNA keyword deck by LS-PrePost                                      
                    ls-dyna smp d R14 R14.1.1s_1_ef50e1 date 06/16/2024



 n o d a l  s t r e s s  c a l c u l a t i o n s   f o r   t i m e  s t e p        1   ( at time 0.00000E+00 )

 node (global)
          stress       sig-xx      sig-yy      sig-zz      sig-xy      sig-yz      sig-zx       plastic
                                                                                                 strain 
     269-
 mid.  surface    -1.7159E-04 -1.7159E-04 -1.7159E-04  0.0000E+00  0.0000E+00  0.0000E+00  0.0000E+00
     270-
 mid.  surface    -1.2992E-04 -1.2992E-04 -1.2992E-04  0.0000E+00  0.0000E+00  0.0000E+00  0.0000E+00
     284-
 mid.  surface    -1.1843E-04 -1.1843E-04 -1.1843E-04  0.0000E+00  0.0000E+00  0.0000E+00  0.0000E+00
     285-
 mid.  surface    -1.5616E-05 -1.5616E-05 -1.5616E-05  0.0000E+00  0.0000E+00  0.0000E+00  0.0000E+00
     286-
 mid.  surface     5.0664E-05  5.0664E-05  5.0664E-05  0.0000E+00  0.0000E+00  0.0000E+00  0.0000E+00
     287-
 mid.  surface     8.1181E-06  8.1181E-06  8.1181E-06  0.0000E+00  0.0000E+00  0.0000E+00  0.0000E+00
     288-
 mid.  surface    -7.8082E-06 -7.8082E-06 -7.8082E-06  0.0000E+00  0.0000E+00  0.0000E+00  0.0000E+00
     289-
 mid.  surface     7.7465E-05  7.7465E-05  7.7465E-05  0.0000E+00  0.0000E+00  0.0000E+00  0.0000E+00
     290-
 mid.  surface     1.0312E-05  1.0312E-05  1.0312E-05  0.0000E+00  0.0000E+00  0.0000E+00  0.0000E+00
     291-
 mid.  surface     3.6803E-05  3.6803E-05  3.6803E-05  0.0000E+00  0.0000E+00  0.0000E+00  0.0000E+00
     292-
 mid.  surface     3.5971E-05  3.5971E-05  3.5971E-05  0.0000E+00  0.0000E+00  0.0000E+00  0.0000E+00
     311-
 mid.  surface     7.7465E-05  7.7465E-05  7.7465E-05  0.0000E+00  0.0000E+00  0.0000E+00  0.0000E+00
     314-
 mid.  surface     8.5273E-05  8.5273E-05  8.5273E-05  0.0000E+00  0.0000E+00  0.0000E+00  0.0000E+00
     317-
 mid.  surface     2.6801E-05  2.6801E-05  2.6801E-05  0.0000E+00  0.0000E+00  0.0000E+00  0.0000E+00
     320-
 mid.  surface    -1.6451E-05 -1.6451E-05 -1.6451E-05  0.0000E+00  0.0000E+00  0.0000E+00  0.0000E+00
     327-
 mid.  surface    -1.2905E-04 -1.2905E-04 -1.2905E-04  0.0000E+00  0.0000E+00  0.0000E+00  0.0000E+00
     328-
 mid.  surface    -9.4750E-06 -9.4750E-06 -9.4750E-06  0.0000E+00  0.0000E+00  0.0000E+00  0.0000E+00
     329-
 mid.  surface     6.1937E-05  6.1937E-05  6.1937E-05  0.0000E+00  0.0000E+00  0.0000E+00  0.0000E+00
     330-
 mid.  surface     4.7638E-05  4.7638E-05  4.7638E-05  0.0000E+00  0.0000E+00  0.0000E+00  0.0000E+00
     331-
 mid.  surface     2.6801E-05  2.6801E-05  2.6801E-05  0.0000E+00  0.0000E+00  0.0000E+00  0.0000E+00
     332-
 mid.  surface     2.9827E-05  2.9827E-05  2.9827E-05  0.0000E+00  0.0000E+00  0.0000E+00  0.0000E+00
     333-
 mid.  surface    -2.1580E-05 -2.1580E-05 -2.1580E-05  0.0000E+00  0.0000E+00  0.0000E+00  0.0000E+00
     510-
 mid.  surface     1.8158E-05  1.8158E-05  1.8158E-05  0.0000E+00  0.0000E+00  0.0000E+00  0.0000E+00
     511-
 mid.  surface    -5.9216E-05 -5.9216E-05 -5.9216E-05  0.0000E+00  0.0000E+00  0.0000E+00  0.0000E+00
     647-
 mid.  surface     6.1937E-05  6.1937E-05  6.1937E-05  0.0000E+00  0.0000E+00  0.0000E+00  0.0000E+00
     648-
 mid.  surface    -3.5441E-05 -3.5441E-05 -3.5441E-05  0.0000E+00  0.0000E+00  0.0000E+00  0.0000E+00
     705-
 mid.  surface    -5.2982E-05 -5.2982E-05 -5.2982E-05  0.0000E+00  0.0000E+00  0.0000E+00  0.0000E+00
     706-
 mid.  surface    -1.6011E-04 -1.6011E-04 -1.6011E-04  0.0000E+00  0.0000E+00  0.0000E+00  0.0000E+00
     841-
 mid.  surface     3.1186E-05  3.1186E-05  3.1186E-05  0.0000E+00  0.0000E+00  0.0000E+00  0.0000E+00
     990-
 mid.  surface    -9.4657E-05 -9.4657E-05 -9.4657E-05  0.0000E+00  0.0000E+00  0.0000E+00  0.0000E+00
    1035-
 mid.  surface     2.8995E-05  2.8995E-05  2.8995E-05  0.0000E+00  0.0000E+00  0.0000E+00  0.0000E+00
    1036-
 mid.  surface     3.1186E-05  3.1186E-05  3.1186E-05  0.0000E+00  0.0000E+00  0.0000E+00  0.0000E+00
    1140-
 mid.  surface    -9.2552E-05 -9.2552E-05 -9.2552E-05  0.0000E+00  0.0000E+00  0.0000E+00  0.0000E+00
    1141-
 mid.  surface    -1.2992E-04 -1.2992E-04 -1.2992E-04  0.0000E+00  0.0000E+00  0.0000E+00  0.0000E+00
    1142-
 mid.  surface     2.2417E-05  2.2417E-05  2.2417E-05  0.0000E+00  0.0000E+00  0.0000E+00  0.0000E+00
    1230-
 mid.  surface    -2.7167E-06 -2.7167E-06 -2.7167E-06  0.0000E+00  0.0000E+00  0.0000E+00  0.0000E+00



 n o d a l  s t r a i n  c a l c u l a t i o n s   f o r   t i m e  s t e p        1   ( at time 0.00000E+00 )

 node (global)
          strain       eps-xx      eps-yy      eps-zz      eps-xy      eps-yz      eps-zx       
     269-
 mid.  surface     0.0000E+00  0.0000E+00  0.0000E+00  0.0000E+00  0.0000E+00  0.0000E+00
     270-
 mid.  surface     0.0000E+00  0.0000E+00  0.0000E+00  0.0000E+00  0.0000E+00  0.0000E+00
     284-
 mid.  surface     0.0000E+00  0.0000E+00  0.0000E+00  0.0000E+00  0.0000E+00  0.0000E+00
     285-
 mid.  surface     0.0000E+00  0.0000E+00  0.0000E+00  0.0000E+00  0.0000E+00  0.0000E+00
     286-
 mid.  surface     0.0000E+00  0.0000E+00  0.0000E+00  0.0000E+00  0.0000E+00  0.0000E+00
     287-
 mid.  surface     0.0000E+00  0.0000E+00  0.0000E+00  0.0000E+00  0.0000E+00  0.0000E+00
     288-
 mid.  surface     0.0000E+00  0.0000E+00  0.0000E+00  0.0000E+00  0.0000E+00  0.0000E+00
     289-
 mid.  surface     0.0000E+00  0.0000E+00  0.0000E+00  0.0000E+00  0.0000E+00  0.0000E+00
     290-
 mid.  surface     0.0000E+00  0.0000E+00  0.0000E+00  0.0000E+00  0.0000E+00  0.0000E+00
     291-
 mid.  surface     0.0000E+00  0.0000E+00  0.0000E+00  0.0000E+00  0.0000E+00  0.0000E+00
     292-
 mid.  surface     0.0000E+00  0.0000E+00  0.0000E+00  0.0000E+00  0.0000E+00  0.0000E+00
     311-
 mid.  surface     0.0000E+00  0.0000E+00  0.0000E+00  0.0000E+00  0.0000E+00  0.0000E+00
     314-
 mid.  surface     0.0000E+00  0.0000E+00  0.0000E+00  0.0000E+00  0.0000E+00  0.0000E+00
     317-
 mid.  surface     0.0000E+00  0.0000E+00  0.0000E+00  0.0000E+00  0.0000E+00  0.0000E+00
     320-
 mid.  surface     0.0000E+00  0.0000E+00  0.0000E+00  0.0000E+00  0.0000E+00  0.0000E+00
     327-
 mid.  surface     0.0000E+00  0.0000E+00  0.0000E+00  0.0000E+00  0.0000E+00  0.0000E+00
     328-
 mid.  surface     0.0000E+00  0.0000E+00  0.0000E+00  0.0000E+00  0.0000E+00  0.0000E+00
     329-
 mid.  surface     0.0000E+00  0.0000E+00  0.0000E+00  0.0000E+00  0.0000E+00  0.0000E+00
     330-
 mid.  surface     0.0000E+00  0.0000E+00  0.0000E+00  0.0000E+00  0.0000E+00  0.0000E+00
     331-
 mid.  surface     0.0000E+00  0.0000E+00  0.0000E+00  0.0000E+00  0.0000E+00  0.0000E+00
     332-
 mid.  surface     0.0000E+00  0.0000E+00  0.0000E+00  0.0000E+00  0.0000E+00  0.0000E+00
     333-
 mid.  surface     0.0000E+00  0.0000E+00  0.0000E+00  0.0000E+00  0.0000E+00  0.0000E+00
     510-
 mid.  surface     0.0000E+00  0.0000E+00  0.0000E+00  0.0000E+00  0.0000E+00  0.0000E+00
     511-
 mid.  surface     0.0000E+00  0.0000E+00  0.0000E+00  0.0000E+00  0.0000E+00  0.0000E+00
     647-
 mid.  surface     0.0000E+00  0.0000E+00  0.0000E+00  0.0000E+00  0.0000E+00  0.0000E+00
     648-
 mid.  surface     0.0000E+00  0.0000E+00  0.0000E+00  0.0000E+00  0.0000E+00  0.0000E+00
     705-
 mid.  surface     0.0000E+00  0.0000E+00  0.0000E+00  0.0000E+00  0.0000E+00  0.0000E+00
     706-
 mid.  surface     0.0000E+00  0.0000E+00  0.0000E+00  0.0000E+00  0.0000E+00  0.0000E+00
     841-
 mid.  surface     0.0000E+00  0.0000E+00  0.0000E+00  0.0000E+00  0.0000E+00  0.0000E+00
     990-
 mid.  surface     0.0000E+00  0.0000E+00  0.0000E+00  0.0000E+00  0.0000E+00  0.0000E+00
    1035-
 mid.  surface     0.0000E+00  0.0000E+00  0.0000E+00  0.0000E+00  0.0000E+00  0.0000E+00
    1036-
 mid.  surface     0.0000E+00  0.0000E+00  0.0000E+00  0.0000E+00  0.0000E+00  0.0000E+00
    1140-
 mid.  surface     0.0000E+00  0.0000E+00  0.0000E+00  0.0000E+00  0.0000E+00  0.0000E+00
    1141-
 mid.  surface     0.0000E+00  0.0000E+00  0.0000E+00  0.0000E+00  0.0000E+00  0.0000E+00
    1142-
 mid.  surface     0.0000E+00  0.0000E+00  0.0000E+00  0.0000E+00  0.0000E+00  0.0000E+00
    1230-
 mid.  surface     0.0000E+00  0.0000E+00  0.0000E+00  0.0000E+00  0.0000E+00  0.0000E+00



 n o d a l  s t r e s s  c a l c u l a t i o n s   f o r   t i m e  s t e p       10   ( at time 1.29245E+00 )

 node (global)
          stress       sig-xx      sig-yy      sig-zz      sig-xy      sig-yz      sig-zx       plastic
                                                                                                 strain 
     269-
 mid.  surface     3.3614E+06 -3.5012E+07 -2.6717E+08  2.6017E+07 -3.9371E+06 -2.6521E+07  1.6800E-05
     270-
 mid.  surface    -4.3049E+07 -3.7738E+07 -2.9008E+08  1.9361E+07 -1.6944E+06 -1.6980E+07  4.2616E-04
     284-
 mid.  surface    -2.0246E+07  3.1322E+07 -2.4664E+08 -7.4959E+06 -1.7585E+07  1.1927E+06  9.7943E-06
     285-
 mid.  surface    -4.4273E+07 -2.0150E+07 -2.8849E+08 -1.3750E+07 -1.7527E+07  2.4562E+06  3.1123E-04
     286-
 mid.  surface    -5.2625E+07 -3.0396E+07 -2.9470E+08 -1.6734E+06  6.7683E+06  1.4396E+07  3.5119E-04
     287-
 mid.  surface    -4.4775E+07 -1.8706E+07 -2.8804E+08  2.9798E+06 -1.1394E+07  1.8948E+07  3.2436E-04
     288-
 mid.  surface    -3.8403E+07 -4.8209E+06 -2.8001E+08  6.6774E+06 -2.8949E+07  2.1186E+07  3.1230E-04
     289-
 mid.  surface    -3.5397E+07 -1.2986E+07 -2.8685E+08  1.4926E+07 -5.0059E+07  1.6127E+07  2.3609E-04
     290-
 mid.  surface    -3.5364E+07 -1.8316E+07 -2.9089E+08  2.1697E+07 -6.2844E+07  5.1680E+06  1.4234E-04
     291-
 mid.  surface    -1.7185E+07 -2.3953E+07 -2.8146E+08  2.0846E+07 -5.8346E+07 -9.8000E+06  7.1062E-05
     292-
 mid.  surface    -2.6011E+06 -3.1647E+07 -2.7104E+08  1.2384E+07 -3.6052E+07 -2.3173E+07  2.7015E-05
     311-
 mid.  surface    -9.9834E+06 -1.9863E+07 -2.4279E+08  2.0584E+07 -1.1933E+07 -1.4925E+07  2.2800E-04
     314-
 mid.  surface    -1.8004E+07  2.1161E+06 -2.4309E+08  2.4207E+07 -7.7025E+06 -1.0933E+07  1.4424E-04
     317-
 mid.  surface    -2.2397E+07  1.4038E+07 -2.4737E+08  1.7517E+07 -2.6461E+06 -6.0557E+06  8.2227E-05
     320-
 mid.  surface    -2.8509E+07  1.7333E+07 -2.5120E+08  7.2174E+06  8.2142E+06  4.4336E+05  6.9708E-05
     327-
 mid.  surface    -1.4745E+07 -2.4231E+07 -2.4344E+08  1.0353E+07 -1.2709E+07 -1.5579E+07  3.2043E-04
     328-
 mid.  surface    -2.7484E+07 -3.3494E+07 -2.6037E+08  4.4740E+06 -1.0377E+07 -1.5781E+07  3.8371E-04
     329-
 mid.  surface    -3.9083E+07 -3.7549E+07 -2.8052E+08  1.1018E+06 -5.6610E+06 -1.7547E+07  4.1278E-04
     330-
 mid.  surface    -2.5927E+07  9.9047E+06 -2.5155E+08  1.7436E+07 -9.7445E+06  3.7670E+04  7.1550E-05
     331-
 mid.  surface    -4.7494E+07 -2.2409E+07 -2.9176E+08  2.6922E+06  5.6344E+05 -2.2665E+07  3.1615E-04
     332-
 mid.  surface    -5.3913E+07 -3.3173E+07 -2.9467E+08 -1.7997E+06 -1.7022E+07 -1.5161E+07  3.4704E-04
     333-
 mid.  surface    -3.0328E+07  1.4210E+07 -2.5227E+08  7.5304E+06 -2.1656E+07 -3.5586E+06  6.0590E-05
     510-
 mid.  surface    -2.2694E+07 -3.5690E+06 -2.5136E+08  2.3713E+07 -2.1363E+06  3.3557E+06  1.2331E-04
     511-
 mid.  surface    -4.2549E+07 -1.0373E+07 -2.8916E+08  6.1160E+06  1.7114E+07 -2.6968E+07  2.8931E-04
     647-
 mid.  surface    -4.4984E+07 -4.2672E+07 -2.9006E+08 -2.5491E+05  4.4145E+06  5.2204E+06  3.9410E-04
     648-
 mid.  surface    -3.4710E+07 -4.0877E+07 -2.6987E+08  2.4880E+06  5.8812E+06  6.9912E+06  3.7360E-04
     705-
 mid.  surface    -4.7317E+07 -2.4112E+07 -2.9661E+08 -1.4208E+07  3.7901E+06 -1.2685E+07  2.8968E-04
     706-
 mid.  surface    -2.4183E+07  2.7106E+07 -2.5318E+08 -7.6550E+06  6.3332E+06  6.1831E+05 -1.6802E-06
     841-
 mid.  surface    -1.6583E+07 -2.8360E+07 -2.5432E+08  1.9196E+07  4.5337E+06  7.7314E+06  2.0587E-04
     990-
 mid.  surface    -2.2165E+07 -3.2889E+07 -2.5432E+08  8.3330E+06  6.5254E+06  8.5846E+06  3.0637E-04
    1035-
 mid.  surface    -4.4294E+07 -2.9669E+07 -3.0800E+08  2.0281E+07  4.2243E+07 -2.2028E+07  1.0687E-04
    1036-
 mid.  surface    -4.2279E+07 -2.2020E+07 -3.0219E+08  1.3881E+07  3.3375E+07 -2.5878E+07  1.9901E-04
    1140-
 mid.  surface    -4.7800E+07 -4.1415E+07 -2.9929E+08  1.8472E+07  4.8788E+06  1.7306E+06  4.0203E-04
    1141-
 mid.  surface    -4.4826E+06 -4.3455E+07 -2.7672E+08  2.5293E+07  3.1801E+07 -6.6698E+06  7.8461E-06
    1142-
 mid.  surface    -1.0926E+07 -4.0787E+07 -2.8237E+08  1.1047E+07  2.5211E+07 -7.9013E+06  1.3516E-05
    1230-
 mid.  surface    -2.6586E+07 -3.5271E+07 -2.9612E+08  1.9282E+07  4.0142E+07 -1.5493E+07  4.8277E-05



 n o d a l  s t r a i n  c a l c u l a t i o n s   f o r   t i m e  s t e p       10   ( at time 1.29245E+00 )

 node (global)
          strain       eps-xx      eps-yy      eps-zz      eps-xy      eps-yz      eps-zx       
     269-
 mid.  surface     1.5356E-03  7.4431E-04 -3.6998E-03  5.4646E-04 -7.1205E-05 -5.5039E-04
     270-
 mid.  surface     1.5566E-03  1.5900E-03 -4.9105E-03  4.4795E-04 -2.7447E-05 -4.4539E-04
     284-
 mid.  surface     7.0114E-04  1.7711E-03 -3.5930E-03 -1.9136E-04 -3.3490E-04  2.9089E-05
     285-
 mid.  surface     1.2107E-03  1.7767E-03 -4.6671E-03 -2.6861E-04 -4.1336E-04  5.2193E-05
     286-
 mid.  surface     1.2168E-03  1.7569E-03 -4.7705E-03 -8.8206E-06  1.2613E-04  2.9414E-04
     287-
 mid.  surface     1.2242E-03  1.8044E-03 -4.7014E-03  9.8511E-05 -2.6519E-04  3.7074E-04
     288-
 mid.  surface     1.2145E-03  1.9045E-03 -4.6580E-03  1.8283E-04 -6.2867E-04  4.0302E-04
     289-
 mid.  surface     1.2749E-03  1.6658E-03 -4.5364E-03  3.3221E-04 -1.0459E-03  2.8994E-04
     290-
 mid.  surface     1.1968E-03  1.4789E-03 -4.3149E-03  4.4247E-04 -1.2700E-03  6.5603E-05
     291-
 mid.  surface     1.3448E-03  1.1549E-03 -4.0338E-03  4.0718E-04 -1.1584E-03 -2.2620E-04
     292-
 mid.  surface     1.4703E-03  8.5647E-04 -3.7778E-03  2.3373E-04 -7.1842E-04 -4.8895E-04
     311-
 mid.  surface     1.3518E-03  1.2327E-03 -3.8815E-03  4.6633E-04 -1.7424E-04 -3.8656E-04
     314-
 mid.  surface     1.0029E-03  1.5070E-03 -3.7418E-03  5.1382E-04 -1.2031E-04 -2.7690E-04
     317-
 mid.  surface     8.3665E-04  1.6362E-03 -3.6892E-03  3.5728E-04 -2.3970E-05 -1.5670E-04
     320-
 mid.  surface     7.3857E-04  1.7153E-03 -3.7014E-03  1.2968E-04  1.9836E-04 -5.3962E-06
     327-
 mid.  surface     1.4298E-03  1.3168E-03 -4.0906E-03  2.8207E-04 -1.4144E-04 -4.1767E-04
     328-
 mid.  surface     1.4976E-03  1.3901E-03 -4.4166E-03  1.6515E-04 -8.7451E-05 -4.2476E-04
     329-
 mid.  surface     1.5291E-03  1.5117E-03 -4.7397E-03  6.6441E-05 -4.0298E-05 -4.5805E-04
     330-
 mid.  surface     8.1338E-04  1.5959E-03 -3.6815E-03  3.5525E-04 -2.2600E-04  4.8502E-05
     331-
 mid.  surface     1.2132E-03  1.7672E-03 -4.7011E-03  9.1816E-05 -2.2634E-05 -4.8230E-04
     332-
 mid.  surface     1.2068E-03  1.7108E-03 -4.7334E-03 -1.0442E-05 -4.1716E-04 -3.2504E-04
     333-
 mid.  surface     7.2209E-04  1.6665E-03 -3.6645E-03  1.3749E-04 -4.6586E-04 -5.1260E-05
     510-
 mid.  surface     9.7894E-04  1.4550E-03 -3.7538E-03  5.0025E-04 -1.0684E-04  1.3240E-04
     511-
 mid.  surface     1.2039E-03  1.8534E-03 -4.6851E-03  1.6665E-04  3.3780E-04 -5.7339E-04
     647-
 mid.  surface     1.4871E-03  1.4983E-03 -4.7822E-03  3.6892E-05 -1.2764E-05  1.0988E-04
     648-
 mid.  surface     1.4565E-03  1.3560E-03 -4.4559E-03  1.2166E-04 -3.8486E-05  1.6148E-04
     705-
 mid.  surface     1.2065E-03  1.7416E-03 -4.6990E-03 -2.7798E-04  7.2740E-05 -2.6314E-04
     706-
 mid.  surface     6.8481E-04  1.7425E-03 -3.6175E-03 -1.9341E-04  1.4755E-04  3.6339E-05
     841-
 mid.  surface     1.3268E-03  1.1637E-03 -3.9133E-03  4.3136E-04 -1.5359E-05  2.2532E-04
     990-
 mid.  surface     1.3952E-03  1.2613E-03 -4.1282E-03  2.3511E-04 -2.0245E-05  2.2037E-04
    1035-
 mid.  surface     1.1662E-03  1.3964E-03 -4.3784E-03  4.0149E-04  8.7301E-04 -4.3240E-04
    1036-
 mid.  surface     1.2567E-03  1.5909E-03 -4.5906E-03  2.9987E-04  6.9803E-04 -5.3525E-04
    1140-
 mid.  surface     1.5165E-03  1.5853E-03 -4.9498E-03  4.2824E-04  7.4499E-06  3.0975E-05
    1141-
 mid.  surface     1.4948E-03  6.9768E-04 -3.7354E-03  5.3077E-04  6.3331E-04 -1.0025E-04
    1142-
 mid.  surface     1.4281E-03  8.0729E-04 -3.8232E-03  2.0460E-04  4.8963E-04 -1.2034E-04
    1230-
 mid.  surface     1.3045E-03  1.0833E-03 -4.0893E-03  3.6852E-04  8.0374E-04 -2.8386E-04



 n o d a l  s t r e s s  c a l c u l a t i o n s   f o r   t i m e  s t e p      438   ( at time 2.04919E+00 )

 node (global)
          stress       sig-xx      sig-yy      sig-zz      sig-xy      sig-yz      sig-zx       plastic
                                                                                                 strain 
     269-
 mid.  surface     6.9003E+07  5.5702E+07 -3.6990E+08  9.9060E+07  3.7387E+07  2.3233E+08 -1.5588E-02
     270-
 mid.  surface    -3.8140E+08 -2.7659E+08 -7.4625E+08  9.5763E+07  1.6158E+07  2.7523E+08 -5.1622E-03
     284-
 mid.  surface     6.4104E+07  1.0105E+08 -1.6671E+08 -1.4732E+07 -6.2627E+06 -7.8029E+05  7.8099E-03
     285-
 mid.  surface     6.8363E+06  1.4821E+07 -2.4722E+08 -2.1464E+07 -4.2199E+06  1.9052E+06  9.4860E-03
     286-
 mid.  surface    -6.0920E+07 -5.4132E+07 -3.4865E+08 -8.6488E+06  4.7894E+07  2.2553E+07  5.6385E-03
     287-
 mid.  surface    -3.4827E+07 -2.7121E+07 -3.0298E+08 -4.8746E+06  1.5625E+07  3.1750E+07  7.9545E-03
     288-
 mid.  surface    -1.0019E+08 -9.9726E+07 -2.9756E+08 -9.8822E+06 -5.1118E+07  2.1510E+07  1.4264E-02
     289-
 mid.  surface     1.1361E+08  1.1737E+08 -2.0821E+08  2.1348E+07 -1.4554E+08 -3.8306E+07  2.1289E-03
     290-
 mid.  surface    -2.8981E+06  2.5366E+07 -2.3096E+08  1.1097E+07 -1.3266E+08 -7.8813E+06  9.0049E-03
     291-
 mid.  surface     5.6309E+07  6.6281E+07 -2.1749E+08  1.0773E+07 -1.5878E+08 -4.1223E+07  5.0816E-03
     292-
 mid.  surface     1.6998E+08  1.5721E+08 -1.2854E+07  1.6273E+06 -1.4895E+08  5.9690E+07  1.7201E-02
     311-
 mid.  surface     1.5548E+08  1.5015E+08 -7.5509E+07  2.3582E+07 -1.0205E+08 -7.4511E+07  6.1886E-03
     314-
 mid.  surface    -4.1500E+07 -3.0838E+07 -1.8427E+08  3.7883E+06 -1.3936E+07 -2.3294E+07  1.4254E-02
     317-
 mid.  surface     1.7647E+07  4.0252E+07 -2.1947E+08  1.0985E+07  2.5657E+07 -1.3942E+06  6.3383E-03
     320-
 mid.  surface     4.3142E+06  3.6454E+07 -2.5953E+08  1.7813E+06  4.3447E+07  4.4933E+06  3.7923E-03
     327-
 mid.  surface    -2.0665E+07 -1.2907E+07 -1.2051E+08  1.3646E+06 -8.1388E+07 -3.7705E+07  1.8005E-02
     328-
 mid.  surface    -9.2017E+07 -6.9425E+07 -2.1553E+08 -2.6085E+06 -1.0626E+08 -5.3548E+07  1.6403E-02
     329-
 mid.  surface    -2.0820E+08 -1.4447E+08 -2.8960E+08 -4.6945E+06 -1.1873E+08  7.6131E+07  2.8096E-02
     330-
 mid.  surface     1.3056E+07  3.6553E+07 -2.1583E+08  1.2076E+07 -3.8404E+07 -4.7063E+06  6.6293E-03
     331-
 mid.  surface    -3.3351E+07 -2.5319E+07 -2.8976E+08 -4.8560E+06 -2.3617E+07 -3.7415E+07  8.4635E-03
     332-
 mid.  surface    -5.2902E+07 -4.9657E+07 -3.2613E+08 -8.3273E+06 -5.7122E+07 -2.5420E+07  6.2913E-03
     333-
 mid.  surface     4.5572E+06  3.2944E+07 -2.4605E+08  3.1999E+06 -6.3650E+07 -1.0045E+07  4.2764E-03
     510-
 mid.  surface    -6.0372E+07 -4.8432E+07 -2.1777E+08  5.6088E+06  2.5895E+07  2.4858E+07  1.3639E-02
     511-
 mid.  surface    -1.1615E+08 -1.1493E+08 -3.3018E+08 -8.9391E+06  5.1291E+07 -1.9061E+07  1.3713E-02
     647-
 mid.  surface    -2.6486E+08 -2.0933E+08 -3.2955E+08 -7.8416E+06  6.5538E+07 -2.9204E+07  2.7466E-02
     648-
 mid.  surface    -1.6735E+08 -1.5403E+08 -3.1140E+08 -2.9039E+06  6.5275E+07  4.9281E+07  1.5755E-02
     705-
 mid.  surface    -1.8480E+07 -1.4849E+07 -2.6931E+08 -1.9812E+07 -8.4783E+06 -2.0871E+07  9.9971E-03
     706-
 mid.  surface     3.6684E+07  6.9904E+07 -1.9221E+08 -1.2427E+07 -9.7041E+06 -3.0125E+06  8.0416E-03
     841-
 mid.  surface     4.6858E+07  4.0291E+07 -2.1892E+08  2.3720E+07  9.2211E+07  6.0643E+07  4.5756E-03
     990-
 mid.  surface    -1.0998E+08 -1.0630E+08 -2.3258E+08  1.0430E+06  6.3942E+07  3.9741E+07  1.6575E-02
    1035-
 mid.  surface    -1.1454E+08 -8.9091E+07 -3.6716E+08  1.1504E+07  1.0074E+08  8.3046E+05  7.3710E-03
    1036-
 mid.  surface    -6.5052E+06 -4.1887E+06 -3.6749E+08  2.1677E+07  1.1823E+08  2.5122E+07  7.4700E-05
    1140-
 mid.  surface    -3.8192E+08 -2.7372E+08 -6.5200E+08  8.4492E+07  1.2706E+08 -3.2433E+08 -4.8663E-03
    1141-
 mid.  surface     6.1049E+07  4.8639E+07 -2.6568E+08  8.7720E+07  1.9336E+08 -3.5165E+08 -1.3312E-02
    1142-
 mid.  surface     1.0202E+08  7.9397E+07 -6.9617E+07 -8.0326E+05  9.9940E+07 -6.2790E+07  1.6308E-02
    1230-
 mid.  surface    -3.6408E+07 -3.5736E+07 -3.3865E+08  1.1539E+07  1.0445E+08  1.2399E+07  3.6705E-03



 n o d a l  s t r a i n  c a l c u l a t i o n s   f o r   t i m e  s t e p      438   ( at time 2.04919E+00 )

 node (global)
          strain       eps-xx      eps-yy      eps-zz      eps-xy      eps-yz      eps-zx       
     269-
 mid.  surface     1.6390E-03  3.3477E-03 -6.0619E-03  5.1792E-03 -3.1482E-04  1.0169E-02
     270-
 mid.  surface     1.7758E-03  7.0292E-03 -1.5381E-02  3.3920E-03  4.4773E-05  1.1119E-02
     284-
 mid.  surface     3.0649E-03  5.7653E-03 -8.8444E-03 -9.3824E-04  8.2554E-04  1.3264E-04
     285-
 mid.  surface     4.7991E-03  5.8240E-03 -1.1694E-02 -1.3476E-03  7.0990E-04  2.4325E-04
     286-
 mid.  surface     4.7881E-03  5.4561E-03 -1.2454E-02 -4.7789E-04  4.5180E-03  1.6936E-03
     287-
 mid.  surface     4.7217E-03  5.4634E-03 -1.1926E-02 -5.5806E-05  1.6027E-03  2.0343E-03
     288-
 mid.  surface     4.9207E-03  4.2517E-03 -1.1555E-02  3.3498E-05 -2.1754E-03  1.5539E-03
     289-
 mid.  surface     5.2183E-03  5.3103E-03 -1.0437E-02  1.4625E-03 -1.1262E-02 -4.1897E-03
     290-
 mid.  surface     3.5286E-03  5.6910E-03 -1.0238E-02  1.2761E-03 -1.1317E-02 -3.2312E-03
     291-
 mid.  surface     3.6303E-03  4.6076E-03 -8.7192E-03  1.0583E-03 -1.0812E-02 -3.7334E-03
     292-
 mid.  surface     4.6163E-03  3.6210E-03 -6.7860E-03  2.1066E-03 -7.9453E-03 -4.0157E-03
     311-
 mid.  surface     5.0157E-03  4.8720E-03 -8.8060E-03  1.6431E-03 -8.2507E-03 -6.8411E-03
     314-
 mid.  surface     3.7193E-03  3.8683E-03 -8.8174E-03  8.2336E-04 -2.4981E-04 -1.2212E-03
     317-
 mid.  surface     3.2355E-03  4.9791E-03 -8.9844E-03  7.9925E-04  2.3771E-03 -1.2341E-04
     320-
 mid.  surface     3.0825E-03  5.3102E-03 -9.4398E-03  8.7196E-05  4.5143E-03  4.9930E-04
     327-
 mid.  surface     4.2617E-03  5.1826E-03 -1.0208E-02  8.4063E-04 -7.2671E-03 -5.4427E-03
     328-
 mid.  surface     4.1485E-03  5.1904E-03 -1.1159E-02  4.3153E-04 -6.3810E-03 -4.7655E-03
     329-
 mid.  surface     4.8077E-03  6.1650E-03 -1.4055E-02  9.0606E-04 -4.6271E-03 -4.0256E-03
     330-
 mid.  surface     3.0270E-03  4.8626E-03 -8.6879E-03  8.7984E-04 -3.1299E-03 -2.7480E-04
     331-
 mid.  surface     4.5920E-03  5.3555E-03 -1.1618E-02  2.3364E-06 -2.1201E-03 -2.3434E-03
     332-
 mid.  surface     4.6246E-03  5.1773E-03 -1.1854E-02 -3.7578E-04 -4.9834E-03 -1.7836E-03
     333-
 mid.  surface     2.8821E-03  5.0088E-03 -8.8967E-03  2.2789E-04 -5.4915E-03 -7.4401E-04
     510-
 mid.  surface     3.4898E-03  3.7787E-03 -8.8221E-03  8.1606E-04 -3.9012E-04  7.5067E-04
     511-
 mid.  surface     4.7768E-03  4.1703E-03 -1.1625E-02  6.1521E-07  1.5026E-03 -2.0444E-03
     647-
 mid.  surface     5.0431E-03  5.7978E-03 -1.4682E-02  6.6654E-04  3.5952E-03  3.1932E-03
     648-
 mid.  surface     4.2017E-03  4.6640E-03 -1.1902E-02  2.5027E-04  5.3303E-03  4.0372E-03
     705-
 mid.  surface     4.6703E-03  5.4612E-03 -1.1582E-02 -1.2159E-03 -1.5567E-03 -1.4785E-03
     706-
 mid.  surface     2.8854E-03  5.4280E-03 -8.7308E-03 -7.9106E-04 -1.4698E-03 -2.5343E-04
     841-
 mid.  surface     4.7822E-03  4.5226E-03 -9.9355E-03  1.4567E-03  7.5296E-03  6.1505E-03
     990-
 mid.  surface     4.2782E-03  4.6318E-03 -1.1060E-02  6.3052E-04  6.1689E-03  4.5856E-03
    1035-
 mid.  surface     3.4833E-03  5.0862E-03 -1.1297E-02  1.1182E-03  9.8093E-03  2.4412E-03
    1036-
 mid.  surface     4.9890E-03  4.9456E-03 -1.1736E-02  1.2540E-03  1.0182E-02  3.5175E-03
    1140-
 mid.  surface     1.5529E-03  6.7110E-03 -1.4378E-02  2.9355E-03  2.6054E-03 -1.2294E-02
    1141-
 mid.  surface     1.3877E-03  2.7570E-03 -4.8337E-03  4.7767E-03  6.5379E-03 -1.3293E-02
    1142-
 mid.  surface     4.8510E-03  3.1099E-03 -7.4521E-03  1.8804E-03  5.6237E-03  2.3189E-03
    1230-
 mid.  surface     3.6523E-03  3.9681E-03 -9.5918E-03  9.3130E-04  8.8528E-03  2.3609E-03



 n o d a l  s t r e s s  c a l c u l a t i o n s   f o r   t i m e  s t e p      460   ( at time 3.46961E+00 )

 node (global)
          stress       sig-xx      sig-yy      sig-zz      sig-xy      sig-yz      sig-zx       plastic
                                                                                                 strain 
     269-
 mid.  surface     1.1061E+08  1.2878E+08 -1.8861E+08  2.8331E+07 -3.9707E+06  5.4697E+07 -6.3519E-03
     270-
 mid.  surface    -6.0313E+08 -5.2646E+08 -8.6023E+08  3.8040E+07 -8.0347E+06  6.1928E+07  1.0732E-02
     284-
 mid.  surface     1.5047E+08  1.4758E+08 -1.3422E+08 -1.2923E+07 -4.3381E+07  3.9177E+03  1.9441E-02
     285-
 mid.  surface     5.1258E+07  3.3950E+07 -2.4655E+08 -1.6201E+07 -3.9367E+07  1.1709E+06  2.2523E-02
     286-
 mid.  surface    -6.9627E+07 -8.4631E+07 -3.3994E+08 -7.3585E+06 -1.6423E+07  1.1284E+07  2.0140E-02
     287-
 mid.  surface    -6.5689E+06 -1.4862E+07 -2.8611E+08 -8.4689E+06 -4.4887E+07  1.5271E+07  2.1444E-02
     288-
 mid.  surface    -5.4082E+07 -5.5272E+07 -3.1609E+08 -1.1041E+07 -6.7719E+07  1.4673E+07  2.7850E-02
     289-
 mid.  surface     1.5948E+08  1.6420E+08 -1.3605E+08 -1.2805E+06 -1.0984E+08 -6.5639E+06  1.3316E-02
     290-
 mid.  surface     1.7345E+07  3.7890E+07 -2.5023E+08 -7.9287E+06 -1.0807E+08 -4.0896E+06  2.0192E-02
     291-
 mid.  surface     1.1851E+08  1.3354E+08 -1.6520E+08 -9.7921E+06 -1.1516E+08 -2.2632E+07  1.5094E-02
     292-
 mid.  surface     3.1172E+08  3.2139E+08  4.6879E+07 -4.0386E+06 -8.1790E+07 -8.5531E+06  2.8318E-02
     311-
 mid.  surface     2.0555E+08  2.0847E+08 -7.3250E+06  2.3395E+06 -8.5355E+07 -3.9308E+07  2.0968E-02
     314-
 mid.  surface     1.1667E+07  1.7071E+07 -1.9637E+08 -2.3007E+06 -4.9935E+07 -1.6837E+07  2.9059E-02
     317-
 mid.  surface     7.3213E+07  7.4715E+07 -1.7710E+08 -1.1402E+06 -3.7834E+07 -9.2526E+06  1.9481E-02
     320-
 mid.  surface     4.4154E+07  4.2866E+07 -2.0875E+08 -2.7486E+06 -1.9016E+07 -2.1946E+06  1.7058E-02
     327-
 mid.  surface    -1.8292E+07  1.7603E+06 -1.8712E+08 -7.2679E+06 -7.1501E+07 -2.9691E+07  3.4679E-02
     328-
 mid.  surface    -1.3419E+08 -9.6048E+07 -3.2256E+08 -2.3273E+06 -7.2473E+07 -3.5006E+07  3.2764E-02
     329-
 mid.  surface    -2.9105E+08 -2.3341E+08 -4.9223E+08  6.9947E+06 -5.3430E+07 -9.5227E+06  4.6047E-02
     330-
 mid.  surface     2.6664E+07  2.8246E+07 -2.3514E+08 -6.1795E+05  2.0534E+07  1.2907E+06  1.9217E-02
     331-
 mid.  surface    -4.3765E+07 -5.2500E+07 -3.3479E+08 -8.5825E+06  3.3282E+07 -1.7951E+07  2.1459E-02
     332-
 mid.  surface    -9.0343E+07 -1.0423E+08 -3.6602E+08 -7.9156E+06  8.8048E+06 -1.4512E+07  2.0442E-02
     333-
 mid.  surface     1.1652E+07  1.1918E+07 -2.4782E+08 -2.7064E+06  7.3402E+05 -4.2059E+06  1.7074E-02
     510-
 mid.  surface    -6.0598E+07 -5.5245E+07 -2.8625E+08 -2.9703E+06  3.8254E+07  7.6087E+06  2.7647E-02
     511-
 mid.  surface    -1.2984E+08 -1.3006E+08 -4.0837E+08 -1.2095E+07  6.1024E+07 -1.7687E+07  2.6590E-02
     647-
 mid.  surface    -3.8358E+08 -3.3892E+08 -5.9478E+08  6.4431E+06  4.4417E+07 -3.2846E+05  4.5024E-02
     648-
 mid.  surface    -2.5886E+08 -2.2714E+08 -4.6141E+08 -1.8029E+06  5.3436E+07  2.2882E+07  3.1835E-02
     705-
 mid.  surface    -4.1875E+06 -1.6244E+07 -3.0968E+08 -1.5238E+07  2.8314E+07 -1.0799E+07  2.2634E-02
     706-
 mid.  surface     8.8697E+07  9.2038E+07 -2.0424E+08 -1.1741E+07  2.0952E+07  1.8623E+06  1.9209E-02
     841-
 mid.  surface     3.7825E+07  3.5420E+07 -2.0601E+08  2.4501E+06  5.8218E+07  2.5485E+07  1.8215E-02
     990-
 mid.  surface    -1.4384E+08 -1.2722E+08 -3.3242E+08 -5.1427E+06  5.6710E+07  1.7957E+07  3.2616E-02
    1035-
 mid.  surface    -1.3934E+08 -1.1967E+08 -4.2564E+08 -5.2648E+06  9.6209E+07 -2.7189E+06  1.7965E-02
    1036-
 mid.  surface    -3.5092E+07 -3.2622E+07 -3.5514E+08 -9.3722E+05  9.2119E+07  3.9557E+06  1.0401E-02
    1140-
 mid.  surface    -6.0122E+08 -5.3810E+08 -8.5085E+08  3.2972E+07  5.2229E+07 -9.0312E+07  1.0747E-02
    1141-
 mid.  surface     1.0619E+08  1.0870E+08 -1.7595E+08  2.5276E+07  9.2304E+07 -9.5617E+07 -3.9452E-03
    1142-
 mid.  surface     2.0141E+08  1.9849E+08 -7.0793E+07 -3.2259E+06  6.9513E+07 -8.5362E+06  2.7226E-02
    1230-
 mid.  surface    -3.1940E+07 -2.1660E+07 -3.3299E+08 -8.1938E+06  9.0823E+07  5.7157E+06  1.3219E-02



 n o d a l  s t r a i n  c a l c u l a t i o n s   f o r   t i m e  s t e p      460   ( at time 3.46961E+00 )

 node (global)
          strain       eps-xx      eps-yy      eps-zz      eps-xy      eps-yz      eps-zx       
     269-
 mid.  surface     6.2648E-03  1.0003E-02 -1.5957E-02  6.8525E-03 -5.2665E-04  1.1531E-02
     270-
 mid.  surface     6.2441E-03  1.6501E-02 -3.2132E-02  5.0279E-03  1.0601E-04  1.2622E-02
     284-
 mid.  surface     9.5264E-03  1.1904E-02 -2.0698E-02 -1.8008E-03 -1.9121E-03  1.7263E-04
     285-
 mid.  surface     1.2348E-02  1.2025E-02 -2.5187E-02 -2.4782E-03 -1.9425E-03  3.6129E-04
     286-
 mid.  surface     1.2208E-02  1.1604E-02 -2.6217E-02 -1.0348E-03  3.2631E-03  2.4959E-03
     287-
 mid.  surface     1.1760E-02  1.1879E-02 -2.5156E-02 -6.6893E-04 -1.5824E-03  3.0688E-03
     288-
 mid.  surface     1.1456E-02  1.0909E-02 -2.4449E-02 -6.1487E-04 -6.8199E-03  2.5132E-03
     289-
 mid.  surface     1.1418E-02  1.1797E-02 -2.2386E-02  1.3079E-03 -1.8099E-02 -4.3680E-03
     290-
 mid.  surface     8.4443E-03  1.2183E-02 -2.1616E-02  9.5405E-04 -1.7993E-02 -3.5021E-03
     291-
 mid.  surface     8.7333E-03  1.0837E-02 -1.9220E-02  6.3914E-04 -1.7329E-02 -5.0411E-03
     292-
 mid.  surface     1.0400E-02  1.0011E-02 -1.7253E-02  2.2903E-03 -1.2368E-02 -5.7575E-03
     311-
 mid.  surface     1.1128E-02  1.1428E-02 -2.0685E-02  1.5271E-03 -1.3240E-02 -9.1334E-03
     314-
 mid.  surface     9.6152E-03  1.0411E-02 -2.0875E-02  6.8280E-04 -3.6522E-03 -2.2252E-03
     317-
 mid.  surface     9.4535E-03  1.1223E-02 -2.0858E-02  6.1533E-04 -2.2371E-04 -6.6350E-04
     320-
 mid.  surface     9.4621E-03  1.1381E-02 -2.1470E-02 -1.5265E-04  3.3026E-03  4.1301E-04
     327-
 mid.  surface     9.4707E-03  1.2402E-02 -2.2914E-02  3.2248E-04 -1.1223E-02 -7.3422E-03
     328-
 mid.  surface     9.1919E-03  1.3059E-02 -2.4949E-02  1.2572E-04 -9.8570E-03 -6.9305E-03
     329-
 mid.  surface     1.0398E-02  1.5076E-02 -3.0377E-02  1.2290E-03 -6.8701E-03 -6.0437E-03
     330-
 mid.  surface     8.9982E-03  1.0860E-02 -2.0759E-02  7.5123E-04 -1.6516E-03 -1.6570E-04
     331-
 mid.  surface     1.1467E-02  1.1543E-02 -2.5118E-02 -5.9158E-04 -2.0930E-05 -3.6383E-03
     332-
 mid.  surface     1.1804E-02  1.1208E-02 -2.5738E-02 -9.4820E-04 -4.6344E-03 -2.8297E-03
     333-
 mid.  surface     8.9545E-03  1.0937E-02 -2.1009E-02  1.4679E-05 -5.4399E-03 -1.0451E-03
     510-
 mid.  surface     9.1380E-03  9.9451E-03 -2.1030E-02  5.6777E-04  1.9189E-03  1.1123E-03
     511-
 mid.  surface     1.1072E-02  1.0464E-02 -2.4762E-02 -7.7490E-04  5.1352E-03 -3.5284E-03
     647-
 mid.  surface     1.0832E-02  1.4200E-02 -3.1366E-02  8.0526E-04  5.2817E-03  3.7414E-03
     648-
 mid.  surface     9.2413E-03  1.2101E-02 -2.5925E-02 -1.5764E-04  8.1238E-03  5.2553E-03
     705-
 mid.  surface     1.1957E-02  1.1757E-02 -2.5342E-02 -2.2974E-03  8.8850E-05 -2.3315E-03
     706-
 mid.  surface     8.9807E-03  1.1669E-02 -2.0810E-02 -1.5694E-03  3.5042E-05 -1.4412E-04
     841-
 mid.  surface     1.0899E-02  1.0586E-02 -2.2162E-02  1.2791E-03  1.1372E-02  7.8215E-03
     990-
 mid.  surface     9.5208E-03  1.1466E-02 -2.3914E-02  1.3936E-04  9.3551E-03  5.5181E-03
    1035-
 mid.  surface     8.3519E-03  1.1218E-02 -2.2875E-02  8.2914E-04  1.5468E-02  2.0482E-03
    1036-
 mid.  surface     1.1043E-02  1.0869E-02 -2.3967E-02  9.3661E-04  1.6104E-02  3.5421E-03
    1140-
 mid.  surface     6.3116E-03  1.5618E-02 -3.1326E-02  4.1880E-03  4.6564E-03 -1.5583E-02
    1141-
 mid.  surface     6.3579E-03  8.6638E-03 -1.4813E-02  6.2256E-03  1.0915E-02 -1.6706E-02
    1142-
 mid.  surface     1.0814E-02  8.9412E-03 -1.8255E-02  1.9626E-03  8.6769E-03  2.6223E-03
    1230-
 mid.  surface     8.6839E-03  9.7541E-03 -2.0335E-02  4.7314E-04  1.3924E-02  2.6321E-03



 n o d a l  s t r e s s  c a l c u l a t i o n s   f o r   t i m e  s t e p      468   ( at time 4.00950E+00 )

 node (global)
          stress       sig-xx      sig-yy      sig-zz      sig-xy      sig-yz      sig-zx       plastic
                                                                                                 strain 
     269-
 mid.  surface     1.4165E+08  1.6224E+08 -1.5344E+08  2.1932E+07 -6.1304E+06  4.3675E+07 -2.8211E-03
     270-
 mid.  surface    -6.7060E+08 -5.9861E+08 -9.2943E+08  3.3476E+07 -9.4622E+06  4.8181E+07  1.6456E-02
     284-
 mid.  surface     1.6836E+08  1.6311E+08 -1.1534E+08 -1.2165E+07 -5.2444E+07 -1.0194E+05  2.4250E-02
     285-
 mid.  surface     5.2835E+07  3.5001E+07 -2.4449E+08 -1.5615E+07 -4.7298E+07  9.4183E+05  2.7762E-02
     286-
 mid.  surface    -7.7286E+07 -9.3631E+07 -3.4428E+08 -6.6776E+06 -2.9789E+07  9.2167E+06  2.5903E-02
     287-
 mid.  surface    -3.7874E+06 -1.2766E+07 -2.8195E+08 -7.1920E+06 -5.5636E+07  1.2160E+07  2.6799E-02
     288-
 mid.  surface    -4.9102E+07 -5.1947E+07 -3.1463E+08 -1.0460E+07 -7.4745E+07  1.1047E+07  3.3132E-02
     289-
 mid.  surface     1.7068E+08  1.7295E+08 -1.1832E+08 -3.7699E+06 -1.0648E+08 -4.7445E+06  1.7895E-02
     290-
 mid.  surface     1.7351E+07  3.4024E+07 -2.5136E+08 -9.7524E+06 -1.0608E+08 -4.9335E+06  2.4777E-02
     291-
 mid.  surface     1.3153E+08  1.4545E+08 -1.4911E+08 -1.3338E+07 -1.1087E+08 -1.9184E+07  1.9272E-02
     292-
 mid.  surface     3.5280E+08  3.6305E+08  8.4232E+07 -5.2400E+06 -7.8911E+07 -1.3687E+07  3.2735E-02
     311-
 mid.  surface     2.1881E+08  2.2436E+08  8.4771E+06 -1.3075E+05 -9.0164E+07 -3.5101E+07  2.6807E-02
     314-
 mid.  surface     2.1642E+07  2.6467E+07 -1.9064E+08 -3.6980E+06 -6.2985E+07 -1.6889E+07  3.4919E-02
     317-
 mid.  surface     9.0884E+07  9.1051E+07 -1.5722E+08 -1.6904E+06 -5.0921E+07 -1.0086E+07  2.4820E-02
     320-
 mid.  surface     5.7167E+07  5.3092E+07 -1.9187E+08 -2.8096E+06 -3.2652E+07 -3.0741E+06  2.2434E-02
     327-
 mid.  surface    -2.0852E+07  7.1884E+05 -1.9889E+08 -6.0575E+06 -7.7804E+07 -2.9284E+07  4.0935E-02
     328-
 mid.  surface    -1.5384E+08 -1.1532E+08 -3.4868E+08 -1.1125E+06 -7.4166E+07 -3.1655E+07  3.8881E-02
     329-
 mid.  surface    -3.3115E+08 -2.7662E+08 -5.4300E+08  9.3541E+06 -5.3464E+07 -1.6460E+07  5.2660E-02
     330-
 mid.  surface     2.3255E+07  2.2859E+07 -2.3995E+08 -2.0439E+06  3.1727E+07  1.2475E+06  2.4257E-02
     331-
 mid.  surface    -6.3802E+07 -7.3508E+07 -3.5564E+08 -8.0667E+06  4.5012E+07 -1.5073E+07  2.6598E-02
     332-
 mid.  surface    -1.1534E+08 -1.3041E+08 -3.9093E+08 -7.6836E+06  2.2880E+07 -1.2874E+07  2.6016E-02
     333-
 mid.  surface     7.4140E+06  5.0678E+06 -2.5179E+08 -3.4359E+06  1.4102E+07 -3.5879E+06  2.2195E-02
     510-
 mid.  surface    -7.0617E+07 -6.6154E+07 -3.0239E+08 -4.2672E+06  4.5679E+07  6.9060E+06  3.3154E-02
     511-
 mid.  surface    -1.4867E+08 -1.5002E+08 -4.3020E+08 -1.1499E+07  6.8813E+07 -1.3952E+07  3.1631E-02
     647-
 mid.  surface    -4.3897E+08 -3.9829E+08 -6.6274E+08  8.8131E+06  4.5260E+07  3.0153E+06  5.1539E-02
     648-
 mid.  surface    -2.9373E+08 -2.6099E+08 -5.0310E+08 -2.8953E+05  5.6053E+07  1.8896E+07  3.7796E-02
     705-
 mid.  surface    -1.7572E+07 -2.9367E+07 -3.2423E+08 -1.4671E+07  3.7840E+07 -9.1093E+06  2.7699E-02
     706-
 mid.  surface     9.2059E+07  9.3485E+07 -2.0252E+08 -1.1182E+07  2.9102E+07  2.6000E+06  2.3758E-02
     841-
 mid.  surface     3.3076E+07  3.3800E+07 -2.0790E+08  5.3326E+05  6.0031E+07  2.0704E+07  2.3586E-02
     990-
 mid.  surface    -1.5850E+08 -1.4010E+08 -3.5817E+08 -4.1223E+06  5.9966E+07  1.5298E+07  3.8547E-02
    1035-
 mid.  surface    -1.5545E+08 -1.3893E+08 -4.4232E+08 -7.1604E+06  9.8450E+07 -2.9523E+05  2.2325E-02
    1036-
 mid.  surface    -4.7611E+07 -4.6384E+07 -3.5781E+08 -2.9575E+06  9.4614E+07  3.9701E+06  1.4743E-02
    1140-
 mid.  surface    -6.7811E+08 -6.2253E+08 -9.3338E+08  2.8424E+07  5.2285E+07 -7.5577E+07  1.6503E-02
    1141-
 mid.  surface     1.2809E+08  1.3045E+08 -1.5386E+08  1.9250E+07  8.9458E+07 -7.8216E+07 -1.9462E-04
    1142-
 mid.  surface     2.2656E+08  2.2386E+08 -5.0755E+07 -4.2357E+06  6.8637E+07 -2.3255E+06  3.1615E-02
    1230-
 mid.  surface    -3.6031E+07 -2.5667E+07 -3.3321E+08 -1.1309E+07  9.1484E+07  5.4239E+06  1.7203E-02



 n o d a l  s t r a i n  c a l c u l a t i o n s   f o r   t i m e  s t e p      468   ( at time 4.00950E+00 )

 node (global)
          strain       eps-xx      eps-yy      eps-zz      eps-xy      eps-yz      eps-zx       
     269-
 mid.  surface     8.0328E-03  1.2528E-02 -1.9781E-02  7.3653E-03 -6.0531E-04  1.2003E-02
     270-
 mid.  surface     7.9252E-03  1.9943E-02 -3.8255E-02  5.6058E-03  1.5551E-04  1.3145E-02
     284-
 mid.  surface     1.2047E-02  1.4207E-02 -2.5293E-02 -2.0923E-03 -3.3572E-03  1.7119E-04
     285-
 mid.  surface     1.5214E-02  1.4353E-02 -3.0379E-02 -2.8679E-03 -3.3485E-03  3.8216E-04
     286-
 mid.  surface     1.5015E-02  1.3936E-02 -3.1476E-02 -1.2096E-03  2.2077E-03  2.6881E-03
     287-
 mid.  surface     1.4431E-02  1.4295E-02 -3.0219E-02 -8.2563E-04 -3.2595E-03  3.3120E-03
     288-
 mid.  surface     1.3926E-02  1.3335E-02 -2.9316E-02 -8.1314E-04 -8.9859E-03  2.6820E-03
     289-
 mid.  surface     1.3775E-02  1.4176E-02 -2.6959E-02  1.2284E-03 -2.0667E-02 -4.4554E-03
     290-
 mid.  surface     1.0418E-02  1.4604E-02 -2.6048E-02  8.0007E-04 -2.0504E-02 -3.6572E-03
     291-
 mid.  surface     1.0702E-02  1.3166E-02 -2.3336E-02  3.9284E-04 -1.9695E-02 -5.4254E-03
     292-
 mid.  surface     1.2604E-02  1.2411E-02 -2.1296E-02  2.3065E-03 -1.4026E-02 -6.4197E-03
     311-
 mid.  surface     1.3371E-02  1.4021E-02 -2.5329E-02  1.4223E-03 -1.5353E-02 -9.8562E-03
     314-
 mid.  surface     1.1876E-02  1.2972E-02 -2.5596E-02  5.5937E-04 -5.4560E-03 -2.6176E-03
     317-
 mid.  surface     1.1874E-02  1.3659E-02 -2.5476E-02  5.3759E-04 -1.7227E-03 -8.9353E-04
     320-
 mid.  surface     1.1935E-02  1.3709E-02 -2.6100E-02 -2.4052E-04  2.2640E-03  3.4306E-04
     327-
 mid.  surface     1.1430E-02  1.5203E-02 -2.7763E-02  1.8890E-04 -1.2950E-02 -7.9799E-03
     328-
 mid.  surface     1.1056E-02  1.5990E-02 -3.0070E-02  6.1955E-05 -1.1276E-02 -7.5702E-03
     329-
 mid.  surface     1.2481E-02  1.8316E-02 -3.6352E-02  1.4110E-03 -7.7994E-03 -6.7854E-03
     330-
 mid.  surface     1.1336E-02  1.3157E-02 -2.5474E-02  6.4325E-04 -5.9809E-04 -1.3590E-04
     331-
 mid.  surface     1.4074E-02  1.3821E-02 -3.0313E-02 -7.8886E-04  1.2068E-03 -4.0048E-03
     332-
 mid.  surface     1.4515E-02  1.3476E-02 -3.1096E-02 -1.1548E-03 -3.9670E-03 -3.1502E-03
     333-
 mid.  surface     1.1310E-02  1.3197E-02 -2.5710E-02 -1.0211E-04 -4.8574E-03 -1.1375E-03
     510-
 mid.  surface     1.1328E-02  1.2348E-02 -2.5815E-02  3.9984E-04  3.3016E-03  1.2765E-03
     511-
 mid.  surface     1.3454E-02  1.2748E-02 -2.9731E-02 -1.0369E-03  6.8740E-03 -3.8806E-03
     647-
 mid.  surface     1.3027E-02  1.7269E-02 -3.7520E-02  9.0225E-04  6.0074E-03  4.0091E-03
     648-
 mid.  surface     1.1112E-02  1.4874E-02 -3.1114E-02 -2.5738E-04  9.3267E-03  5.5948E-03
     705-
 mid.  surface     1.4697E-02  1.4123E-02 -3.0663E-02 -2.6665E-03  1.0724E-03 -2.5717E-03
     706-
 mid.  surface     1.1352E-02  1.4013E-02 -2.5509E-02 -1.8364E-03  9.2495E-04 -6.9566E-05
     841-
 mid.  surface     1.3159E-02  1.3023E-02 -2.6917E-02  1.1735E-03  1.3129E-02  8.3007E-03
     990-
 mid.  surface     1.1487E-02  1.4110E-02 -2.8795E-02 -1.0005E-06  1.0814E-02  5.8093E-03
    1035-
 mid.  surface     1.0290E-02  1.3496E-02 -2.7353E-02  6.6950E-04  1.7613E-02  1.9966E-03
    1036-
 mid.  surface     1.3346E-02  1.3049E-02 -2.8604E-02  7.9861E-04  1.8456E-02  3.6070E-03
    1140-
 mid.  surface     8.1544E-03  1.8879E-02 -3.7603E-02  4.5987E-03  5.6119E-03 -1.6759E-02
    1141-
 mid.  surface     8.3074E-03  1.0941E-02 -1.8741E-02  6.6364E-03  1.2662E-02 -1.7916E-02
    1142-
 mid.  surface     1.3119E-02  1.1163E-02 -2.2465E-02  1.9294E-03  9.7740E-03  2.8258E-03
    1230-
 mid.  surface     1.0628E-02  1.1934E-02 -2.4515E-02  2.1745E-04  1.5755E-02  2.7015E-03



 n o d a l  s t r e s s  c a l c u l a t i o n s   f o r   t i m e  s t e p      484   ( at time 5.08928E+00 )

 node (global)
          stress       sig-xx      sig-yy      sig-zz      sig-xy      sig-yz      sig-zx       plastic
                                                                                                 strain 
     269-
 mid.  surface     2.0876E+08  2.2926E+08 -8.5410E+07  1.4792E+07 -7.5901E+06  3.6166E+07  4.5183E-03
     270-
 mid.  surface    -7.9853E+08 -7.3255E+08 -1.0640E+09  2.9855E+07 -1.0701E+07  3.8440E+07  2.7790E-02
     284-
 mid.  surface     1.9684E+08  1.8803E+08 -8.1856E+07 -1.1221E+07 -7.1604E+07  5.8846E+05  3.4076E-02
     285-
 mid.  surface     4.9903E+07  3.2317E+07 -2.4168E+08 -1.3465E+07 -6.4519E+07  1.2331E+06  3.8208E-02
     286-
 mid.  surface    -9.1002E+07 -1.0538E+08 -3.5257E+08 -5.2464E+06 -5.1267E+07  5.2450E+06  3.7415E-02
     287-
 mid.  surface    -5.3417E+06 -1.2756E+07 -2.7783E+08 -6.2956E+06 -6.5811E+07  6.7870E+06  3.7532E-02
     288-
 mid.  surface    -5.1288E+07 -5.7121E+07 -3.1898E+08 -1.0709E+07 -8.1252E+07  6.0969E+06  4.3540E-02
     289-
 mid.  surface     1.8565E+08  1.8429E+08 -9.6898E+07 -4.6620E+06 -1.0140E+08 -2.7098E+06  2.7369E-02
     290-
 mid.  surface     7.8268E+06  1.7666E+07 -2.6097E+08 -1.3226E+07 -1.0180E+08 -3.6395E+06  3.4091E-02
     291-
 mid.  surface     1.5846E+08  1.6753E+08 -1.2347E+08 -1.6796E+07 -1.0637E+08 -1.6917E+07  2.7801E-02
     292-
 mid.  surface     4.3142E+08  4.4021E+08  1.5709E+08 -7.0743E+06 -7.6874E+07 -1.8637E+07  4.1654E-02
     311-
 mid.  surface     2.5015E+08  2.5789E+08  3.4728E+07 -5.2639E+05 -9.4937E+07 -3.0525E+07  3.8144E-02
     314-
 mid.  surface     3.9856E+07  4.3508E+07 -1.8187E+08 -5.2606E+06 -7.8674E+07 -1.6267E+07  4.6053E-02
     317-
 mid.  surface     1.2050E+08  1.1916E+08 -1.2460E+08 -1.8410E+06 -6.8655E+07 -1.0265E+07  3.5537E-02
     320-
 mid.  surface     8.1936E+07  7.5872E+07 -1.6248E+08 -2.6430E+06 -5.8051E+07 -3.7079E+06  3.3424E-02
     327-
 mid.  surface    -2.8278E+07 -6.6232E+06 -2.2162E+08 -5.2212E+06 -8.1105E+07 -2.5872E+07  5.2893E-02
     328-
 mid.  surface    -1.8691E+08 -1.4861E+08 -3.9527E+08  2.0056E+06 -7.6326E+07 -2.9436E+07  5.0741E-02
     329-
 mid.  surface    -4.1013E+08 -3.5931E+08 -6.3686E+08  1.2883E+07 -5.5203E+07 -2.2983E+07  6.5484E-02
     330-
 mid.  surface     1.7861E+07  1.6401E+07 -2.4601E+08 -2.6175E+06  4.6102E+07  1.0796E+06  3.4367E-02
     331-
 mid.  surface    -1.0527E+08 -1.1282E+08 -3.9090E+08 -7.4976E+06  6.2527E+07 -9.4716E+06  3.7044E-02
     332-
 mid.  surface    -1.6612E+08 -1.7825E+08 -4.3829E+08 -6.4661E+06  4.7637E+07 -8.6354E+06  3.7213E-02
     333-
 mid.  surface    -2.1113E+06 -5.4400E+06 -2.6106E+08 -3.7719E+06  3.5880E+07 -2.5520E+06  3.2645E-02
     510-
 mid.  surface    -8.4759E+07 -8.1775E+07 -3.2728E+08 -5.7715E+06  5.5087E+07  6.2956E+06  4.3637E-02
     511-
 mid.  surface    -1.8848E+08 -1.9272E+08 -4.7171E+08 -1.1932E+07  7.8271E+07 -7.9084E+06  4.1645E-02
     647-
 mid.  surface    -5.5057E+08 -5.1516E+08 -7.9129E+08  1.1817E+07  4.6364E+07  7.1713E+06  6.4170E-02
     648-
 mid.  surface    -3.5715E+08 -3.2404E+08 -5.8078E+08  2.8192E+06  5.8103E+07  1.5839E+07  4.9314E-02
     705-
 mid.  surface    -5.4943E+07 -6.5805E+07 -3.5734E+08 -1.2486E+07  5.7062E+07 -5.5913E+06  3.7819E-02
     706-
 mid.  surface     8.9275E+07  8.7354E+07 -2.0292E+08 -1.0534E+07  4.7192E+07  3.2087E+06  3.3073E-02
     841-
 mid.  surface     3.8262E+07  4.2326E+07 -2.0684E+08  6.7025E+05  6.3008E+07  1.4698E+07  3.4032E-02
     990-
 mid.  surface    -1.9006E+08 -1.7025E+08 -4.0434E+08 -3.2972E+06  6.2504E+07  1.1039E+07  4.9916E-02
    1035-
 mid.  surface    -1.9481E+08 -1.8374E+08 -4.8108E+08 -1.0666E+07  9.6819E+07  9.6166E+05  3.1159E-02
    1036-
 mid.  surface    -6.9760E+07 -7.0968E+07 -3.7001E+08 -3.5057E+06  9.6602E+07  5.2851E+06  2.3835E-02
    1140-
 mid.  surface    -8.2945E+08 -7.8398E+08 -1.0945E+09  2.3750E+07  5.4648E+07 -6.4351E+07  2.7955E-02
    1141-
 mid.  surface     1.7269E+08  1.7115E+08 -1.1170E+08  1.1743E+07  8.8775E+07 -6.4362E+07  7.6223E-03
    1142-
 mid.  surface     2.7163E+08  2.6656E+08 -1.3166E+07 -6.1028E+06  6.7299E+07  4.5719E+06  4.0468E-02
    1230-
 mid.  surface    -4.3007E+07 -3.6482E+07 -3.4098E+08 -1.4585E+07  9.0161E+07  6.5408E+06  2.5350E-02



 n o d a l  s t r a i n  c a l c u l a t i o n s   f o r   t i m e  s t e p      484   ( at time 5.08928E+00 )

 node (global)
          strain       eps-xx      eps-yy      eps-zz      eps-xy      eps-yz      eps-zx       
     269-
 mid.  surface     1.1663E-02  1.7579E-02 -2.7509E-02  8.2087E-03 -7.6416E-04  1.2878E-02
     270-
 mid.  surface     1.1353E-02  2.6649E-02 -5.0283E-02  6.7004E-03  2.8835E-04  1.4117E-02
     284-
 mid.  surface     1.7070E-02  1.8614E-02 -3.4349E-02 -2.6480E-03 -6.8255E-03  2.0426E-04
     285-
 mid.  surface     2.0728E-02  1.8771E-02 -4.0362E-02 -3.4917E-03 -6.9406E-03  4.3381E-04
     286-
 mid.  surface     2.0415E-02  1.8642E-02 -4.1780E-02 -1.4662E-03 -6.2662E-04  2.9056E-03
     287-
 mid.  surface     1.9565E-02  1.9032E-02 -4.0113E-02 -1.1139E-03 -6.7277E-03  3.5678E-03
     288-
 mid.  surface     1.8728E-02  1.7961E-02 -3.8831E-02 -1.1995E-03 -1.3202E-02  2.8496E-03
     289-
 mid.  surface     1.8491E-02  1.8867E-02 -3.6174E-02  1.1306E-03 -2.5310E-02 -4.5489E-03
     290-
 mid.  surface     1.4399E-02  1.9244E-02 -3.4864E-02  3.9236E-04 -2.5137E-02 -3.8763E-03
     291-
 mid.  surface     1.4777E-02  1.7722E-02 -3.1638E-02 -1.1983E-04 -2.4148E-02 -6.1677E-03
     292-
 mid.  surface     1.7062E-02  1.7163E-02 -2.9442E-02  2.2946E-03 -1.7206E-02 -7.7392E-03
     311-
 mid.  surface     1.7761E-02  1.9210E-02 -3.4514E-02  1.2852E-03 -1.9292E-02 -1.1055E-02
     314-
 mid.  surface     1.6208E-02  1.7956E-02 -3.4739E-02  2.9805E-04 -9.0591E-03 -3.2917E-03
     317-
 mid.  surface     1.6623E-02  1.8459E-02 -3.4636E-02  3.6811E-04 -4.9762E-03 -1.3171E-03
     320-
 mid.  surface     1.6869E-02  1.8438E-02 -3.5436E-02 -4.1980E-04 -5.4788E-04  2.0343E-04
     327-
 mid.  surface     1.5280E-02  2.0726E-02 -3.7346E-02 -6.7323E-05 -1.6133E-02 -8.9794E-03
     328-
 mid.  surface     1.4821E-02  2.1845E-02 -4.0256E-02  7.2134E-05 -1.4015E-02 -8.7425E-03
     329-
 mid.  surface     1.6652E-02  2.4639E-02 -4.8086E-02  1.8710E-03 -9.6107E-03 -8.2186E-03
     330-
 mid.  surface     1.5967E-02  1.7736E-02 -3.4799E-02  4.1485E-04  1.8424E-03 -7.9673E-05
     331-
 mid.  surface     1.9127E-02  1.8323E-02 -4.0450E-02 -1.1633E-03  3.9358E-03 -4.4789E-03
     332-
 mid.  surface     1.9741E-02  1.8065E-02 -4.1636E-02 -1.4816E-03 -1.9311E-03 -3.5794E-03
     333-
 mid.  surface     1.6031E-02  1.7810E-02 -3.5215E-02 -3.5199E-04 -2.9367E-03 -1.2755E-03
     510-
 mid.  surface     1.5574E-02  1.7034E-02 -3.5034E-02  2.8499E-05  6.2112E-03  1.5733E-03
     511-
 mid.  surface     1.8149E-02  1.7101E-02 -3.9394E-02 -1.5847E-03  1.0228E-02 -4.3691E-03
     647-
 mid.  surface     1.7438E-02  2.3253E-02 -4.9656E-02  1.1586E-03  7.4123E-03  4.5827E-03
     648-
 mid.  surface     1.4876E-02  2.0391E-02 -4.1408E-02 -3.5098E-04  1.1670E-02  6.2319E-03
     705-
 mid.  surface     1.9969E-02  1.8577E-02 -4.0931E-02 -3.2566E-03  3.4929E-03 -2.9040E-03
     706-
 mid.  surface     1.6101E-02  1.8461E-02 -3.4783E-02 -2.3581E-03  3.3303E-03  7.9943E-05
     841-
 mid.  surface     1.7605E-02  1.7955E-02 -3.6258E-02  1.0345E-03  1.6529E-02  9.0319E-03
     990-
 mid.  surface     1.5303E-02  1.9325E-02 -3.8372E-02 -2.8225E-04  1.3615E-02  6.2439E-03
    1035-
 mid.  surface     1.4163E-02  1.7832E-02 -3.6176E-02  2.3660E-04  2.1397E-02  1.8425E-03
    1036-
 mid.  surface     1.7988E-02  1.7346E-02 -3.7855E-02  5.6901E-04  2.2771E-02  3.7717E-03
    1140-
 mid.  surface     1.1972E-02  2.5228E-02 -5.0054E-02  5.3088E-03  7.6278E-03 -1.9020E-02
    1141-
 mid.  surface     1.2371E-02  1.5490E-02 -2.6776E-02  7.2450E-03  1.6141E-02 -2.0220E-02
    1142-
 mid.  surface     1.7792E-02  1.5562E-02 -3.0980E-02  1.8071E-03  1.1727E-02  3.2943E-03
    1230-
 mid.  surface     1.4633E-02  1.6159E-02 -3.2903E-02 -3.4102E-04  1.9101E-02  2.8849E-03



 n o d a l  s t r e s s  c a l c u l a t i o n s   f o r   t i m e  s t e p      500   ( at time 6.16905E+00 )

 node (global)
          stress       sig-xx      sig-yy      sig-zz      sig-xy      sig-yz      sig-zx       plastic
                                                                                                 strain 
     269-
 mid.  surface     2.7414E+08  2.9230E+08 -1.7543E+07  8.4646E+06 -8.0005E+06  3.0452E+07  1.2376E-02
     270-
 mid.  surface    -9.0774E+08 -8.4803E+08 -1.1776E+09  2.7035E+07 -1.1180E+07  3.0416E+07  3.8846E-02
     284-
 mid.  surface     2.1988E+08  2.0941E+08 -5.4898E+07 -9.9782E+06 -7.9229E+07  9.3319E+05  4.4141E-02
     285-
 mid.  surface     4.4603E+07  2.7145E+07 -2.4265E+08 -1.1806E+07 -7.0695E+07  1.4367E+06  4.8816E-02
     286-
 mid.  surface    -1.0106E+08 -1.1605E+08 -3.6266E+08 -4.2941E+06 -6.2298E+07  2.8801E+06  4.8839E-02
     287-
 mid.  surface    -2.5940E+06 -1.0558E+07 -2.7428E+08 -4.5600E+06 -7.4390E+07  2.9511E+06  4.8250E-02
     288-
 mid.  surface    -5.0637E+07 -5.7780E+07 -3.2156E+08 -9.6744E+06 -8.6202E+07  1.3089E+06  5.3739E-02
     289-
 mid.  surface     1.9138E+08  1.8685E+08 -8.4135E+07 -5.8826E+06 -9.6676E+07 -2.6332E+06  3.7048E-02
     290-
 mid.  surface    -1.3504E+06  2.8533E+06 -2.7356E+08 -1.4580E+07 -9.7426E+07 -5.1495E+06  4.3463E-02
     291-
 mid.  surface     1.7206E+08  1.7753E+08 -1.0870E+08 -1.9925E+07 -9.9332E+07 -1.3740E+07  3.6588E-02
     292-
 mid.  surface     5.0343E+08  5.1027E+08  2.2127E+08 -9.2010E+06 -7.3731E+07 -2.0487E+07  5.0516E-02
     311-
 mid.  surface     2.6406E+08  2.7475E+08  4.4977E+07 -2.0933E+06 -9.8485E+07 -2.6776E+07  4.9303E-02
     314-
 mid.  surface     5.1743E+07  5.6256E+07 -1.7914E+08 -6.8624E+06 -9.0773E+07 -1.6936E+07  5.7030E-02
     317-
 mid.  surface     1.4964E+08  1.4782E+08 -9.6696E+07 -2.5983E+06 -8.1483E+07 -1.1263E+07  4.6384E-02
     320-
 mid.  surface     1.0657E+08  9.8649E+07 -1.3867E+08 -2.9653E+06 -7.0751E+07 -4.5816E+06  4.4420E-02
     327-
 mid.  surface    -3.2597E+07 -9.8933E+06 -2.4345E+08 -3.7020E+06 -8.5106E+07 -2.5154E+07  6.4070E-02
     328-
 mid.  surface    -2.1857E+08 -1.8083E+08 -4.3955E+08  3.7904E+06 -7.6002E+07 -2.5764E+07  6.1881E-02
     329-
 mid.  surface    -4.7722E+08 -4.2970E+08 -7.2052E+08  1.5322E+07 -5.5949E+07 -2.6203E+07  7.7448E-02
     330-
 mid.  surface     9.7924E+06  7.7887E+06 -2.5580E+08 -3.7948E+06  5.6074E+07  2.0046E+06  4.4635E-02
     331-
 mid.  surface    -1.4712E+08 -1.5495E+08 -4.3029E+08 -6.2278E+06  7.3916E+07 -5.2804E+06  4.7573E-02
     332-
 mid.  surface    -2.1434E+08 -2.2640E+08 -4.8625E+08 -5.9245E+06  6.0451E+07 -6.7322E+06  4.8381E-02
     333-
 mid.  surface    -1.1416E+07 -1.5915E+07 -2.7159E+08 -4.5312E+06  4.7640E+07 -1.7758E+06  4.3136E-02
     510-
 mid.  surface    -1.0347E+08 -9.9399E+07 -3.5495E+08 -7.0277E+06  6.1918E+07  6.9786E+06  5.4030E-02
     511-
 mid.  surface    -2.2617E+08 -2.3100E+08 -5.0985E+08 -1.0632E+07  8.5963E+07 -2.1575E+06  5.1613E-02
     647-
 mid.  surface    -6.5212E+08 -6.2057E+08 -9.1007E+08  1.3724E+07  4.5710E+07  8.9542E+06  7.5967E-02
     648-
 mid.  surface    -4.1510E+08 -3.8150E+08 -6.5071E+08  4.5760E+06  5.9159E+07  1.2482E+07  6.0137E-02
     705-
 mid.  surface    -9.2880E+07 -1.0216E+08 -3.8954E+08 -1.1009E+07  6.7227E+07 -3.4315E+06  4.8183E-02
     706-
 mid.  surface     8.4430E+07  8.2175E+07 -2.0315E+08 -9.5677E+06  5.6081E+07  4.3682E+06  4.2668E-02
     841-
 mid.  surface     3.2994E+07  4.0805E+07 -2.1381E+08 -3.5955E+05  6.5239E+07  1.0864E+07  4.4431E-02
     990-
 mid.  surface    -2.1166E+08 -1.9003E+08 -4.4369E+08 -1.8501E+06  6.5020E+07  9.2342E+06  6.0501E-02
    1035-
 mid.  surface    -2.2790E+08 -2.2162E+08 -5.1602E+08 -1.2160E+07  9.6348E+07  4.2952E+06  4.0171E-02
    1036-
 mid.  surface    -9.4434E+07 -9.8027E+07 -3.8401E+08 -4.3683E+06  9.8085E+07  6.8173E+06  3.3322E-02
    1140-
 mid.  surface    -9.6894E+08 -9.3213E+08 -1.2403E+09  2.0188E+07  5.6012E+07 -5.5089E+07  3.9183E-02
    1141-
 mid.  surface     2.0978E+08  2.0374E+08 -7.5186E+07  5.0836E+06  8.7020E+07 -5.2565E+07  1.5945E-02
    1142-
 mid.  surface     3.0874E+08  3.0168E+08  1.5619E+07 -8.3944E+06  6.4200E+07  8.8638E+06  4.9298E-02
    1230-
 mid.  surface    -5.7721E+07 -5.3149E+07 -3.5276E+08 -1.7513E+07  8.7519E+07  6.7911E+06  3.3796E-02



 n o d a l  s t r a i n  c a l c u l a t i o n s   f o r   t i m e  s t e p      500   ( at time 6.16905E+00 )

 node (global)
          strain       eps-xx      eps-yy      eps-zz      eps-xy      eps-yz      eps-zx       
     269-
 mid.  surface     1.5430E-02  2.2623E-02 -3.5394E-02  8.7337E-03 -9.1280E-04  1.3513E-02
     270-
 mid.  surface     1.4892E-02  3.2998E-02 -6.1788E-02  7.6277E-03  4.6592E-04  1.4815E-02
     284-
 mid.  surface     2.2038E-02  2.2966E-02 -4.3368E-02 -3.1355E-03 -1.0285E-02  2.2731E-04
     285-
 mid.  surface     2.6140E-02  2.3108E-02 -5.0201E-02 -4.0315E-03 -1.0666E-02  4.6006E-04
     286-
 mid.  surface     2.5714E-02  2.3309E-02 -5.1926E-02 -1.6549E-03 -3.7754E-03  3.0191E-03
     287-
 mid.  surface     2.4621E-02  2.3727E-02 -4.9858E-02 -1.2733E-03 -1.0490E-02  3.6410E-03
     288-
 mid.  surface     2.3445E-02  2.2525E-02 -4.8154E-02 -1.4823E-03 -1.7476E-02  2.7879E-03
     289-
 mid.  surface     2.3084E-02  2.3412E-02 -4.5241E-02  9.8528E-04 -2.9410E-02 -4.6589E-03
     290-
 mid.  surface     1.8471E-02  2.3781E-02 -4.3671E-02 -7.4398E-07 -2.9243E-02 -4.1282E-03
     291-
 mid.  surface     1.8831E-02  2.2147E-02 -3.9958E-02 -7.6565E-04 -2.8009E-02 -6.7019E-03
     292-
 mid.  surface     2.1547E-02  2.1841E-02 -3.7646E-02  2.2105E-03 -2.0072E-02 -8.9747E-03
     311-
 mid.  surface     2.1970E-02  2.4445E-02 -4.3800E-02  1.0388E-03 -2.2947E-02 -1.1974E-02
     314-
 mid.  surface     2.0557E-02  2.3060E-02 -4.4098E-02 -4.0395E-05 -1.2808E-02 -3.9488E-03
     317-
 mid.  surface     2.1384E-02  2.3358E-02 -4.3929E-02  1.6622E-04 -8.4518E-03 -1.7681E-03
     320-
 mid.  surface     2.1761E-02  2.3177E-02 -4.4767E-02 -6.0621E-04 -3.5423E-03  3.2160E-05
     327-
 mid.  surface     1.9070E-02  2.6248E-02 -4.6827E-02 -2.1677E-04 -1.9134E-02 -9.8109E-03
     328-
 mid.  surface     1.8468E-02  2.7523E-02 -5.0122E-02  1.3168E-04 -1.6468E-02 -9.5617E-03
     329-
 mid.  surface     2.0787E-02  3.0684E-02 -5.9342E-02  2.4443E-03 -1.1318E-02 -9.5507E-03
     330-
 mid.  surface     2.0620E-02  2.2341E-02 -4.4214E-02  9.8415E-05  4.6337E-03  1.6260E-05
     331-
 mid.  surface     2.4097E-02  2.2688E-02 -5.0400E-02 -1.4654E-03  6.8200E-03 -4.7792E-03
     332-
 mid.  surface     2.4877E-02  2.2567E-02 -5.1989E-02 -1.7761E-03  3.0563E-04 -3.9357E-03
     333-
 mid.  surface     2.0725E-02  2.2407E-02 -4.4680E-02 -6.4657E-04 -6.3561E-04 -1.3694E-03
     510-
 mid.  surface     1.9849E-02  2.1811E-02 -4.4420E-02 -4.1749E-04  9.3536E-03  1.9219E-03
     511-
 mid.  surface     2.2755E-02  2.1346E-02 -4.8814E-02 -2.0365E-03  1.3570E-02 -4.5706E-03
     647-
 mid.  surface     2.1810E-02  2.8994E-02 -6.1362E-02  1.4937E-03  8.7206E-03  5.1558E-03
     648-
 mid.  surface     1.8505E-02  2.5764E-02 -5.1329E-02 -3.9518E-04  1.3879E-02  6.6379E-03
     705-
 mid.  surface     2.5140E-02  2.2944E-02 -5.1005E-02 -3.7833E-03  5.9100E-03 -3.1526E-03
     706-
 mid.  surface     2.0808E-02  2.2846E-02 -4.3955E-02 -2.8328E-03  5.8248E-03  3.0229E-04
     841-
 mid.  surface     2.1870E-02  2.2970E-02 -4.5638E-02  8.0563E-04  1.9885E-02  9.5644E-03
     990-
 mid.  surface     1.9081E-02  2.4547E-02 -4.7788E-02 -4.7559E-04  1.6309E-02  6.5595E-03
    1035-
 mid.  surface     1.8147E-02  2.2066E-02 -4.4926E-02 -2.1182E-04  2.4701E-02  1.8196E-03
    1036-
 mid.  surface     2.2514E-02  2.1495E-02 -4.6873E-02  2.9317E-04  2.6695E-02  3.9739E-03
    1140-
 mid.  surface     1.5912E-02  3.1264E-02 -6.2122E-02  5.8427E-03  9.7315E-03 -2.0977E-02
    1141-
 mid.  surface     1.6593E-02  2.0073E-02 -3.5106E-02  7.5350E-03  1.9442E-02 -2.2154E-02
    1142-
 mid.  surface     2.2485E-02  1.9932E-02 -3.9603E-02  1.5866E-03  1.3338E-02  3.8603E-03
    1230-
 mid.  surface     1.8593E-02  2.0302E-02 -4.1246E-02 -1.0288E-03  2.1885E-02  2.9685E-03



 n o d a l  s t r e s s  c a l c u l a t i o n s   f o r   t i m e  s t e p      516   ( at time 7.24883E+00 )

 node (global)
          stress       sig-xx      sig-yy      sig-zz      sig-xy      sig-yz      sig-zx       plastic
                                                                                                 strain 
     269-
 mid.  surface     3.4088E+08  3.5849E+08  5.1049E+07  1.8583E+06 -7.6414E+06  3.0340E+07  2.0653E-02
     270-
 mid.  surface    -1.0009E+09 -9.4645E+08 -1.2772E+09  2.4526E+07 -1.1158E+07  2.6909E+07  4.9709E-02
     284-
 mid.  surface     2.4269E+08  2.2861E+08 -3.3439E+07 -1.1650E+07 -8.7911E+07  2.7478E+06  5.4022E-02
     285-
 mid.  surface     3.8305E+07  1.6992E+07 -2.4700E+08 -1.0419E+07 -8.4420E+07  2.9385E+06  5.9282E-02
     286-
 mid.  surface    -1.1045E+08 -1.2331E+08 -3.6958E+08 -2.9025E+06 -7.3689E+07  2.3731E+06  6.0229E-02
     287-
 mid.  surface     5.3062E+05 -9.7692E+06 -2.7218E+08 -5.3069E+06 -8.1092E+07 -2.2373E+05  5.8774E-02
     288-
 mid.  surface    -5.1568E+07 -5.8741E+07 -3.2442E+08 -8.1446E+06 -8.7839E+07  5.0669E+05  6.3909E-02
     289-
 mid.  surface     1.8810E+08  1.8019E+08 -8.5497E+07 -1.0139E+07 -9.5984E+07 -4.9780E+06  4.6767E-02
     290-
 mid.  surface    -1.6831E+06 -4.9510E+06 -2.8106E+08 -1.5437E+07 -1.0215E+08 -1.0198E+07  5.2786E-02
     291-
 mid.  surface     1.8227E+08  1.8615E+08 -9.6006E+07 -2.2408E+07 -9.1158E+07 -1.0579E+07  4.5505E-02
     292-
 mid.  surface     5.7175E+08  5.7764E+08  2.8284E+08 -1.0488E+07 -7.0425E+07 -2.1643E+07  5.9365E-02
     311-
 mid.  surface     2.6920E+08  2.7935E+08  4.3879E+07 -6.2878E+06 -9.9201E+07 -2.6112E+07  6.0214E-02
     314-
 mid.  surface     6.1160E+07  6.5534E+07 -1.7456E+08 -7.3288E+06 -9.7744E+07 -1.7556E+07  6.7935E-02
     317-
 mid.  surface     1.7486E+08  1.7104E+08 -7.4335E+07 -4.6624E+06 -8.9439E+07 -1.2462E+07  5.7066E-02
     320-
 mid.  surface     1.2754E+08  1.1994E+08 -1.1625E+08 -3.3414E+06 -8.2103E+07 -4.8795E+06  5.5527E-02
     327-
 mid.  surface    -3.6313E+07 -1.1228E+07 -2.6117E+08 -2.6679E+06 -9.1002E+07 -2.6993E+07  7.4909E-02
     328-
 mid.  surface    -2.5660E+08 -2.1418E+08 -4.8228E+08  4.3921E+06 -7.3111E+07 -2.1382E+07  7.2816E-02
     329-
 mid.  surface    -5.3668E+08 -4.9140E+08 -7.9413E+08  1.8164E+07 -5.7091E+07 -2.8495E+07  8.8830E-02
     330-
 mid.  surface     1.3569E+06 -2.3010E+06 -2.6496E+08 -6.4150E+06  6.4700E+07  2.8618E+06  5.4868E-02
     331-
 mid.  surface    -1.8615E+08 -1.9543E+08 -4.6849E+08 -7.7323E+06  8.2484E+07 -4.1522E+06  5.8028E-02
     332-
 mid.  surface    -2.5704E+08 -2.6557E+08 -5.2482E+08 -4.4032E+06  7.2721E+07 -4.9965E+06  5.9654E-02
     333-
 mid.  surface    -1.8628E+07 -2.1216E+07 -2.7603E+08 -4.5697E+06  6.0020E+07 -4.7722E+05  5.3841E-02
     510-
 mid.  surface    -1.1270E+08 -1.0923E+08 -3.6832E+08 -5.6079E+06  6.4754E+07  7.7982E+06  6.4471E-02
     511-
 mid.  surface    -2.5387E+08 -2.5875E+08 -5.3526E+08 -7.6843E+06  9.1331E+07  2.5062E+06  6.1796E-02
     647-
 mid.  surface    -7.4786E+08 -7.1901E+08 -1.0210E+09  1.5875E+07  4.3303E+07  9.6493E+06  8.7173E-02
     648-
 mid.  surface    -4.7669E+08 -4.3828E+08 -7.1623E+08  6.1735E+06  6.1510E+07  8.5344E+06  7.0785E-02
     705-
 mid.  surface    -1.2875E+08 -1.4318E+08 -4.2700E+08 -9.5018E+06  7.6531E+07 -3.4807E+06  5.8378E-02
     706-
 mid.  surface     8.0760E+07  7.3846E+07 -2.0570E+08 -1.1093E+07  7.0996E+07  4.9275E+06  5.2258E-02
     841-
 mid.  surface     2.4354E+07  3.5657E+07 -2.2201E+08 -3.7449E+06  6.9143E+07  1.0306E+07  5.4799E-02
     990-
 mid.  surface    -2.3708E+08 -2.1158E+08 -4.8287E+08 -1.7225E+06  6.7660E+07  1.3791E+07  7.0781E-02
    1035-
 mid.  surface    -2.5655E+08 -2.5681E+08 -5.5300E+08 -1.3779E+07  9.3890E+07  1.0090E+07  4.9093E-02
    1036-
 mid.  surface    -1.2037E+08 -1.2413E+08 -4.0492E+08 -8.0733E+06  9.8583E+07  7.8794E+06  4.2952E-02
    1140-
 mid.  surface    -1.0981E+09 -1.0701E+09 -1.3766E+09  1.5676E+07  5.7315E+07 -5.1379E+07  5.0272E-02
    1141-
 mid.  surface     2.4502E+08  2.3548E+08 -4.0602E+07 -2.7830E+06  8.4635E+07 -4.5612E+07  2.4680E-02
    1142-
 mid.  surface     3.4057E+08  3.3266E+08  4.0509E+07 -9.8628E+06  5.9646E+07  1.2150E+07  5.8112E-02
    1230-
 mid.  surface    -7.3433E+07 -6.9719E+07 -3.6308E+08 -1.8653E+07  8.7058E+07  5.1996E+06  4.2480E-02



 n o d a l  s t r a i n  c a l c u l a t i o n s   f o r   t i m e  s t e p      516   ( at time 7.24883E+00 )

 node (global)
          strain       eps-xx      eps-yy      eps-zz      eps-xy      eps-yz      eps-zx       
     269-
 mid.  surface     1.9337E-02  2.7706E-02 -4.3433E-02  8.9822E-03 -1.0597E-03  1.4055E-02
     270-
 mid.  surface     1.8553E-02  3.9113E-02 -7.2955E-02  8.4414E-03  6.7876E-04  1.5376E-02
     284-
 mid.  surface     2.6902E-02  2.7125E-02 -5.2123E-02 -3.6757E-03 -1.3771E-02  3.2578E-04
     285-
 mid.  surface     3.1402E-02  2.7135E-02 -5.9622E-02 -4.4609E-03 -1.4773E-02  5.3793E-04
     286-
 mid.  surface     3.0866E-02  2.8053E-02 -6.1969E-02 -1.7600E-03 -7.1675E-03  3.0994E-03
     287-
 mid.  surface     2.9559E-02  2.8271E-02 -5.9341E-02 -1.4464E-03 -1.4323E-02  3.5796E-03
     288-
 mid.  surface     2.8128E-02  2.7109E-02 -5.7473E-02 -1.6758E-03 -2.1564E-02  2.6928E-03
     289-
 mid.  surface     2.7565E-02  2.7829E-02 -5.4221E-02  7.0327E-04 -3.3128E-02 -4.8103E-03
     290-
 mid.  surface     2.2691E-02  2.8166E-02 -5.2375E-02 -4.2703E-04 -3.3215E-02 -4.5111E-03
     291-
 mid.  surface     2.2863E-02  2.6573E-02 -4.8286E-02 -1.4419E-03 -3.1426E-02 -7.1171E-03
     292-
 mid.  surface     2.6035E-02  2.6507E-02 -4.5883E-02  2.0563E-03 -2.2697E-02 -1.0102E-02
     311-
 mid.  surface     2.6081E-02  2.9658E-02 -5.3116E-02  6.6833E-04 -2.6259E-02 -1.2771E-02
     314-
 mid.  surface     2.4912E-02  2.8275E-02 -5.3592E-02 -3.8071E-04 -1.6440E-02 -4.5587E-03
     317-
 mid.  surface     2.6051E-02  2.8207E-02 -5.3145E-02 -1.2653E-04 -1.1883E-02 -2.2120E-03
     320-
 mid.  surface     2.6610E-02  2.8059E-02 -5.4227E-02 -8.1164E-04 -6.6787E-03 -1.1875E-04
     327-
 mid.  surface     2.2909E-02  3.1884E-02 -5.6437E-02 -3.4494E-04 -2.2040E-02 -1.0586E-02
     328-
 mid.  surface     2.2035E-02  3.3331E-02 -6.0063E-02  2.5150E-04 -1.8687E-02 -1.0148E-02
     329-
 mid.  surface     2.4884E-02  3.6551E-02 -7.0255E-02  3.1032E-03 -1.2947E-02 -1.0750E-02
     330-
 mid.  surface     2.5209E-02  2.6875E-02 -5.3497E-02 -3.3844E-04  7.6551E-03  1.4572E-04
     331-
 mid.  surface     2.8956E-02  2.6879E-02 -6.0036E-02 -1.8238E-03  9.6943E-03 -5.0351E-03
     332-
 mid.  surface     2.9899E-02  2.7157E-02 -6.2204E-02 -1.9907E-03  2.7194E-03 -4.2031E-03
     333-
 mid.  surface     2.5406E-02  2.7173E-02 -5.4238E-02 -9.4995E-04  2.0089E-03 -1.4108E-03
     510-
 mid.  surface     2.4215E-02  2.6727E-02 -5.3889E-02 -8.0093E-04  1.2419E-02  2.2768E-03
     511-
 mid.  surface     2.7413E-02  2.5646E-02 -5.8183E-02 -2.3653E-03  1.6744E-02 -4.5867E-03
     647-
 mid.  surface     2.6136E-02  3.4575E-02 -7.2762E-02  1.8881E-03  9.8970E-03  5.6845E-03
     648-
 mid.  surface     2.2060E-02  3.1244E-02 -6.1274E-02 -3.5699E-04  1.5970E-02  6.8660E-03
     705-
 mid.  surface     3.0207E-02  2.6920E-02 -6.0623E-02 -4.2005E-03  8.2413E-03 -3.4137E-03
     706-
 mid.  surface     2.5467E-02  2.6946E-02 -5.2811E-02 -3.3584E-03  8.6616E-03  5.2767E-04
     841-
 mid.  surface     2.6001E-02  2.8072E-02 -5.5008E-02  4.6556E-04  2.3200E-02  1.0028E-02
     990-
 mid.  surface     2.2844E-02  2.9843E-02 -5.7289E-02 -7.0580E-04  1.8938E-02  7.0324E-03
    1035-
 mid.  surface     2.2217E-02  2.6083E-02 -5.3523E-02 -7.4713E-04  2.7585E-02  1.9770E-03
    1036-
 mid.  surface     2.6917E-02  2.5580E-02 -5.5737E-02 -1.0161E-04  3.0270E-02  4.1534E-03
    1140-
 mid.  surface     2.0019E-02  3.7061E-02 -7.3980E-02  6.1944E-03  1.1941E-02 -2.2796E-02
    1141-
 mid.  surface     2.1020E-02  2.4703E-02 -4.3715E-02  7.4968E-03  2.2619E-02 -2.3847E-02
    1142-
 mid.  surface     2.7165E-02  2.4319E-02 -4.8294E-02  1.2867E-03  1.4630E-02  4.4636E-03
    1230-
 mid.  surface     2.2532E-02  2.4425E-02 -4.9545E-02 -1.7188E-03  2.4315E-02  2.9532E-03



 n o d a l  s t r e s s  c a l c u l a t i o n s   f o r   t i m e  s t e p      530   ( at time 8.64438E+00 )

 node (global)
          stress       sig-xx      sig-yy      sig-zz      sig-xy      sig-yz      sig-zx       plastic
                                                                                                 strain 
     269-
 mid.  surface     4.2026E+08  4.2294E+08  1.2539E+08 -1.2080E+06 -5.9789E+06  1.1581E+07  3.1462E-02
     270-
 mid.  surface    -1.0748E+09 -1.0376E+09 -1.3596E+09  2.0145E+07 -8.4993E+06  8.5315E+06  6.3152E-02
     284-
 mid.  surface     2.6413E+08  2.6148E+08 -1.7453E+07 -4.8249E+06 -6.9958E+07 -3.5116E+05  6.5910E-02
     285-
 mid.  surface     1.7798E+07  8.7783E+06 -2.7396E+08 -9.0000E+06 -6.0948E+07  2.3877E+04  7.1947E-02
     286-
 mid.  surface    -1.2713E+08 -1.4188E+08 -4.0707E+08 -3.5672E+06 -6.1760E+07 -8.8651E+05  7.2930E-02
     287-
 mid.  surface    -5.6094E+06 -1.1558E+07 -2.9106E+08 -2.9915E+06 -7.2939E+07 -2.0239E+06  7.1209E-02
     288-
 mid.  surface    -5.6047E+07 -5.8706E+07 -3.4403E+08 -6.4773E+06 -8.1756E+07 -6.4675E+06  7.5451E-02
     289-
 mid.  surface     1.8768E+08  1.8126E+08 -9.9477E+07 -3.5201E+06 -8.2116E+07 -6.1724E+06  5.8427E-02
     290-
 mid.  surface    -4.1766E+07 -3.7636E+07 -3.2751E+08 -1.2989E+07 -7.3797E+07 -8.0438E+06  6.4238E-02
     291-
 mid.  surface     1.9665E+08  1.9297E+08 -1.0194E+08 -2.0153E+07 -8.2549E+07 -1.8965E+07  5.6171E-02
     292-
 mid.  surface     6.3989E+08  6.4144E+08  3.3894E+08 -8.5331E+06 -5.5784E+07 -2.4659E+07  6.9996E-02
     311-
 mid.  surface     2.9031E+08  3.0270E+08  3.7992E+07 -4.1759E+05 -7.9253E+07 -2.5150E+07  7.2480E-02
     314-
 mid.  surface     8.1967E+07  9.2428E+07 -1.8134E+08 -4.7851E+06 -8.1597E+07 -2.0605E+07  7.9441E-02
     317-
 mid.  surface     2.0695E+08  2.0775E+08 -6.2584E+07 -3.2482E+06 -7.7453E+07 -1.4091E+07  6.9273E-02
     320-
 mid.  surface     1.5828E+08  1.5029E+08 -1.1142E+08 -1.9802E+06 -6.6644E+07 -7.2516E+06  6.7459E-02
     327-
 mid.  surface    -2.9406E+07 -5.6439E+06 -2.7947E+08 -2.1676E+06 -6.4227E+07 -2.3947E+07  8.7127E-02
     328-
 mid.  surface    -2.6589E+08 -2.3542E+08 -5.3017E+08  4.3279E+06 -5.9424E+07 -2.9580E+07  8.4942E-02
     329-
 mid.  surface    -6.0268E+08 -5.5988E+08 -8.7722E+08  1.7745E+07 -4.0650E+07 -2.9258E+07  1.0209E-01
     330-
 mid.  surface     1.3886E+07  1.6449E+07 -2.6831E+08 -2.8660E+06  5.8684E+07  8.2184E+06  6.6741E-02
     331-
 mid.  surface    -2.1529E+08 -2.2020E+08 -5.0985E+08 -3.5641E+06  7.1591E+07  9.1287E+05  7.0451E-02
     332-
 mid.  surface    -2.9748E+08 -3.0831E+08 -5.8724E+08 -5.0166E+06  5.7563E+07 -3.1366E+06  7.2113E-02
     333-
 mid.  surface    -8.6337E+06 -1.2208E+07 -2.8930E+08 -2.8789E+06  4.9914E+07  2.0941E+06  6.5448E-02
     510-
 mid.  surface    -1.1766E+08 -1.0871E+08 -3.9640E+08 -6.5281E+06  6.2619E+07  1.3567E+07  7.5706E-02
     511-
 mid.  surface    -2.8495E+08 -2.8672E+08 -5.8465E+08 -8.9202E+06  7.8137E+07  3.5666E+06  7.3089E-02
     647-
 mid.  surface    -8.5610E+08 -8.2529E+08 -1.1418E+09  1.4584E+07  3.3710E+07  1.3532E+07  1.0032E-01
     648-
 mid.  surface    -5.0790E+08 -4.8053E+08 -7.8212E+08  5.3126E+06  4.4761E+07  2.0407E+07  8.2761E-02
     705-
 mid.  surface    -1.6858E+08 -1.6864E+08 -4.6602E+08 -9.7246E+06  6.3255E+07  4.8888E+05  7.0959E-02
     706-
 mid.  surface     9.1509E+07  9.7849E+07 -2.0084E+08 -5.4866E+06  5.3121E+07  8.1056E+06  6.3744E-02
     841-
 mid.  surface     3.6097E+07  4.2513E+07 -2.3667E+08 -5.2652E+05  5.7080E+07  1.5629E+07  6.6682E-02
     990-
 mid.  surface    -2.4014E+08 -2.1944E+08 -5.0383E+08  1.0697E+06  5.0506E+07  9.3834E+06  8.2755E-02
    1035-
 mid.  surface    -3.1143E+08 -3.0511E+08 -6.0473E+08 -9.3982E+06  7.6729E+07  4.2388E+06  6.0483E-02
    1036-
 mid.  surface    -1.4684E+08 -1.5242E+08 -4.4399E+08 -3.3260E+06  8.1076E+07  9.4568E+06  5.4562E-02
    1140-
 mid.  surface    -1.2215E+09 -1.2023E+09 -1.5125E+09  1.4174E+07  3.8703E+07 -3.1564E+07  6.3686E-02
    1141-
 mid.  surface     2.7915E+08  2.6257E+08 -1.7809E+07 -2.6543E+06  6.5006E+07 -2.5598E+07  3.5639E-02
    1142-
 mid.  surface     3.6032E+08  3.5125E+08  5.2743E+07 -8.6900E+06  4.9780E+07  1.3285E+07  6.8772E-02
    1230-
 mid.  surface    -7.8500E+07 -8.2842E+07 -3.8999E+08 -1.8569E+07  6.5756E+07  1.5789E+07  5.2871E-02



 n o d a l  s t r a i n  c a l c u l a t i o n s   f o r   t i m e  s t e p      530   ( at time 8.64438E+00 )

 node (global)
          strain       eps-xx      eps-yy      eps-zz      eps-xy      eps-yz      eps-zx       
     269-
 mid.  surface     2.4914E-02  3.3503E-02 -5.3805E-02  8.9944E-03 -1.2781E-03  1.3844E-02
     270-
 mid.  surface     2.3876E-02  4.6161E-02 -8.6539E-02  9.2860E-03  8.2832E-04  1.5166E-02
     284-
 mid.  surface     3.2540E-02  3.2819E-02 -6.3180E-02 -3.8937E-03 -1.6433E-02  2.5919E-04
     285-
 mid.  surface     3.7493E-02  3.2775E-02 -7.1677E-02 -4.8829E-03 -1.7835E-02  4.3914E-04
     286-
 mid.  surface     3.6878E-02  3.3624E-02 -7.3952E-02 -1.8769E-03 -9.9532E-03  3.0315E-03
     287-
 mid.  surface     3.5341E-02  3.4122E-02 -7.1156E-02 -1.3876E-03 -1.7594E-02  3.4238E-03
     288-
 mid.  surface     3.3614E-02  3.2618E-02 -6.8628E-02 -1.8483E-03 -2.5348E-02  2.2942E-03
     289-
 mid.  surface     3.3264E-02  3.3330E-02 -6.5534E-02  7.7300E-04 -3.6252E-02 -4.9162E-03
     290-
 mid.  surface     2.7888E-02  3.3615E-02 -6.3628E-02 -8.0719E-04 -3.6300E-02 -4.7273E-03
     291-
 mid.  surface     2.8278E-02  3.1608E-02 -5.8708E-02 -2.1416E-03 -3.4798E-02 -8.0408E-03
     292-
 mid.  surface     3.1586E-02  3.1961E-02 -5.6028E-02  1.9435E-03 -2.5122E-02 -1.1449E-02
     311-
 mid.  surface     3.1145E-02  3.6180E-02 -6.4571E-02  7.0565E-04 -2.8770E-02 -1.3543E-02
     314-
 mid.  surface     2.9903E-02  3.4498E-02 -6.4659E-02 -5.7661E-04 -1.9402E-02 -5.3142E-03
     317-
 mid.  surface     3.1553E-02  3.4414E-02 -6.4524E-02 -1.8255E-04 -1.4712E-02 -2.7574E-03
     320-
 mid.  surface     3.2189E-02  3.3793E-02 -6.5280E-02 -9.2886E-04 -9.0226E-03 -3.8332E-04
     327-
 mid.  surface     2.7628E-02  3.8714E-02 -6.8054E-02 -2.4756E-04 -2.4007E-02 -1.1229E-02
     328-
 mid.  surface     2.6861E-02  3.9950E-02 -7.1924E-02  5.7363E-04 -2.0574E-02 -1.1261E-02
     329-
 mid.  surface     2.9986E-02  4.3526E-02 -8.3404E-02  3.9933E-03 -1.4200E-02 -1.2049E-02
     330-
 mid.  surface     3.0678E-02  3.2863E-02 -6.4871E-02 -4.6619E-04  1.0147E-02  5.1319E-04
     331-
 mid.  surface     3.4761E-02  3.2471E-02 -7.1937E-02 -1.8970E-03  1.2029E-02 -5.1239E-03
     332-
 mid.  surface     3.5793E-02  3.2574E-02 -7.4254E-02 -2.2249E-03  4.3415E-03 -4.4684E-03
     333-
 mid.  surface     3.0836E-02  3.2786E-02 -6.5299E-02 -1.1650E-03  4.1301E-03 -1.3610E-03
     510-
 mid.  surface     2.9203E-02  3.2549E-02 -6.4898E-02 -1.1765E-03  1.5301E-02  3.0204E-03
     511-
 mid.  surface     3.2876E-02  3.0767E-02 -6.9329E-02 -2.7776E-03  1.9293E-02 -4.6476E-03
     647-
 mid.  surface     3.1393E-02  4.1344E-02 -8.6446E-02  2.4378E-03  1.0864E-02  6.2816E-03
     648-
 mid.  surface     2.6903E-02  3.7636E-02 -7.3230E-02 -1.5248E-04  1.7590E-02  7.7263E-03
     705-
 mid.  surface     3.6088E-02  3.2644E-02 -7.2779E-02 -4.7103E-03  9.9761E-03 -3.4550E-03
     706-
 mid.  surface     3.0876E-02  3.2719E-02 -6.3857E-02 -3.6425E-03  1.0506E-02  1.0211E-03
     841-
 mid.  surface     3.1185E-02  3.4334E-02 -6.6489E-02  4.2578E-04  2.5879E-02  1.0701E-02
     990-
 mid.  surface     2.7631E-02  3.6325E-02 -6.8756E-02 -6.2834E-04  2.0743E-02  7.1647E-03
    1035-
 mid.  surface     2.7368E-02  3.1258E-02 -6.4633E-02 -1.1467E-03  2.9890E-02  1.6693E-03
    1036-
 mid.  surface     3.2514E-02  3.0680E-02 -6.6934E-02 -2.1088E-04  3.3244E-02  4.3347E-03
    1140-
 mid.  surface     2.5655E-02  4.3821E-02 -8.8300E-02  6.6719E-03  1.3850E-02 -2.4142E-02
    1141-
 mid.  surface     2.7024E-02  3.0033E-02 -5.4706E-02  7.4016E-03  2.5788E-02 -2.4964E-02
    1142-
 mid.  surface     3.2826E-02  2.9483E-02 -5.8937E-02  9.8079E-04  1.5800E-02  4.9999E-03
    1230-
 mid.  surface     2.7905E-02  2.9248E-02 -6.0013E-02 -2.5081E-03  2.6228E-02  3.4723E-03



 n o d a l  s t r e s s  c a l c u l a t i o n s   f o r   t i m e  s t e p      538   ( at time 9.50004E+00 )

 node (global)
          stress       sig-xx      sig-yy      sig-zz      sig-xy      sig-yz      sig-zx       plastic
                                                                                                 strain 
     269-
 mid.  surface    -1.6235E+09 -1.6128E+09 -5.6627E+08  1.1639E+07  5.0907E+07  1.5890E+07  2.4542E-03
     270-
 mid.  surface    -3.2803E+09 -3.2712E+09 -2.2204E+09  6.2440E+06  5.6700E+07  8.8817E+07  3.6383E-02
     284-
 mid.  surface     2.8295E+08  2.7257E+08 -6.0486E+06 -6.7766E+06 -7.2861E+07  2.1652E+06  7.2867E-02
     285-
 mid.  surface     5.6906E+06 -1.0939E+07 -2.8750E+08 -6.5368E+06 -7.5327E+07  2.1669E+06  7.9480E-02
     286-
 mid.  surface    -1.4188E+08 -1.5746E+08 -4.2138E+08 -2.6245E+06 -7.0875E+07  8.1533E+04  8.0867E-02
     287-
 mid.  surface    -1.0830E+07 -1.6487E+07 -2.9621E+08 -2.6004E+06 -7.5334E+07 -2.4436E+06  7.8924E-02
     288-
 mid.  surface    -5.9512E+07 -6.5065E+07 -3.4989E+08 -8.6607E+06 -8.3712E+07 -7.0380E+06  8.2752E-02
     289-
 mid.  surface     1.8515E+08  1.8014E+08 -1.0299E+08 -2.6857E+06 -8.0597E+07 -4.6961E+06  6.6062E-02
     290-
 mid.  surface    -7.4499E+07 -6.6808E+07 -3.6261E+08 -1.6392E+07 -7.9901E+07 -6.3664E+06  7.1189E-02
     291-
 mid.  surface     1.5880E+08  1.7684E+08 -1.4155E+08 -1.9692E+07 -9.7117E+07 -8.1321E+06  6.2219E-02
     292-
 mid.  surface    -4.0106E+08 -3.7595E+08 -1.1783E+07 -1.1779E+06 -2.1950E+07 -2.3534E+07  5.8753E-02
     311-
 mid.  surface     3.0311E+08  3.1488E+08  5.1754E+07  1.0898E+06 -7.7620E+07 -2.5719E+07  8.0519E-02
     314-
 mid.  surface     9.0978E+07  9.9696E+07 -1.7447E+08 -6.7115E+06 -8.3332E+07 -2.1054E+07  8.6808E-02
     317-
 mid.  surface     2.1943E+08  2.2006E+08 -4.9933E+07 -3.6805E+06 -7.9818E+07 -1.4201E+07  7.6970E-02
     320-
 mid.  surface     1.7083E+08  1.6217E+08 -1.0007E+08 -4.4614E+06 -7.1453E+07 -5.7278E+06  7.5030E-02
     327-
 mid.  surface    -3.9936E+07 -1.6155E+07 -2.8856E+08 -4.1192E+06 -6.3580E+07 -2.4776E+07  9.4610E-02
     328-
 mid.  surface    -3.4460E+08 -2.9390E+08 -5.9936E+08 -7.2807E+06 -7.0081E+07 -4.2687E+07  9.2750E-02
     329-
 mid.  surface    -1.7732E+09 -1.7275E+09 -1.3657E+09 -1.0105E+06  3.8405E+06 -1.0076E+07  9.3095E-02
     330-
 mid.  surface     1.9680E+07  2.3713E+07 -2.6254E+08 -3.2912E+06  6.2740E+07  8.7376E+06  7.4253E-02
     331-
 mid.  surface    -2.3104E+08 -2.3450E+08 -5.2497E+08 -2.9602E+06  7.5694E+07  2.0122E+06  7.8208E-02
     332-
 mid.  surface    -3.1934E+08 -3.2933E+08 -6.0943E+08 -3.5863E+06  6.2468E+07 -3.5877E+06  7.9937E-02
     333-
 mid.  surface    -2.9617E+06 -4.9069E+06 -2.8263E+08 -5.1259E+06  5.9298E+07  2.0331E+06  7.2923E-02
     510-
 mid.  surface    -1.2116E+08 -1.1376E+08 -4.0249E+08 -7.6192E+06  6.4192E+07  1.4994E+07  8.2838E-02
     511-
 mid.  surface    -3.0480E+08 -3.0939E+08 -6.0818E+08 -1.0399E+07  7.9418E+07  5.3706E+06  8.0262E-02
     647-
 mid.  surface     3.2196E+08  3.2279E+08 -7.0595E+08  2.6155E+07  2.3347E+06 -6.0187E+06  1.3051E-01
     648-
 mid.  surface    -4.8932E+08 -4.8885E+08 -7.6804E+08  1.4897E+07  3.7202E+07  1.3129E+07  9.1315E-02
     705-
 mid.  surface    -1.8591E+08 -1.9331E+08 -4.9027E+08 -7.5057E+06  6.6132E+07 -7.6048E+05  7.8256E-02
     706-
 mid.  surface     1.0174E+08  1.0119E+08 -1.9321E+08 -8.0179E+06  6.7871E+07  7.6559E+06  7.0705E-02
     841-
 mid.  surface     4.6936E+07  5.3996E+07 -2.2604E+08  1.9290E+06  5.6318E+07  1.5426E+07  7.4321E-02
     990-
 mid.  surface    -2.3892E+08 -2.2104E+08 -5.0187E+08  1.0436E+06  4.9828E+07  1.2099E+07  9.0143E-02
    1035-
 mid.  surface    -3.3123E+08 -3.2625E+08 -6.3311E+08 -1.1440E+07  7.6599E+07  5.9777E+06  6.7299E-02
    1036-
 mid.  surface    -1.6335E+08 -1.6697E+08 -4.6143E+08 -1.8813E+06  8.1855E+07  1.0624E+07  6.2138E-02
    1140-
 mid.  surface     1.1090E+09  1.1136E+09 -6.6882E+08  1.7747E+07 -4.9128E+07 -4.1515E+07  1.1375E-01
    1141-
 mid.  surface     2.6881E+09  2.6705E+09  9.1670E+08  5.8527E+06 -3.0755E+07 -1.1108E+08  8.3910E-02
    1142-
 mid.  surface     1.6549E+09  1.6136E+09  5.8973E+08  3.9518E+06  8.6645E+06 -2.5696E+07  9.6192E-02
    1230-
 mid.  surface     4.2836E+06 -3.7868E+07 -3.3207E+08 -1.0502E+07  6.4493E+07  2.9395E+07  5.9536E-02



 n o d a l  s t r a i n  c a l c u l a t i o n s   f o r   t i m e  s t e p      538   ( at time 9.50004E+00 )

 node (global)
          strain       eps-xx      eps-yy      eps-zz      eps-xy      eps-yz      eps-zx       
     269-
 mid.  surface     3.3079E-02  3.7607E-02 -6.1018E-02  1.0430E-02 -2.3430E-03  1.1725E-02
     270-
 mid.  surface     3.2365E-02  5.0028E-02 -9.6380E-02  1.0022E-02  5.8635E-04  1.6690E-02
     284-
 mid.  surface     3.6053E-02  3.5984E-02 -6.9687E-02 -4.1706E-03 -1.8131E-02  3.6539E-04
     285-
 mid.  surface     4.1218E-02  3.5662E-02 -7.8544E-02 -5.0310E-03 -2.0240E-02  5.0938E-04
     286-
 mid.  surface     4.0565E-02  3.6995E-02 -8.1260E-02 -1.9074E-03 -1.1940E-02  3.0844E-03
     287-
 mid.  surface     3.8940E-02  3.7628E-02 -7.8370E-02 -1.3988E-03 -1.9726E-02  3.3506E-03
     288-
 mid.  surface     3.7098E-02  3.6004E-02 -7.5606E-02 -2.0285E-03 -2.7728E-02  2.0984E-03
     289-
 mid.  surface     3.6899E-02  3.6957E-02 -7.2868E-02  8.2699E-04 -3.8146E-02 -4.8601E-03
     290-
 mid.  surface     3.0849E-02  3.6995E-02 -7.0459E-02 -1.2325E-03 -3.8525E-02 -4.7689E-03
     291-
 mid.  surface     3.0644E-02  3.5017E-02 -6.4952E-02 -2.6220E-03 -3.7583E-02 -8.0812E-03
     292-
 mid.  surface     3.6674E-02  3.5961E-02 -6.2706E-02  2.6019E-03 -2.6968E-02 -1.3418E-02
     311-
 mid.  surface     3.4385E-02  4.0375E-02 -7.1859E-02  7.3999E-04 -3.0322E-02 -1.3983E-02
     314-
 mid.  surface     3.3004E-02  3.8402E-02 -7.1588E-02 -7.9639E-04 -2.1251E-02 -5.7304E-03
     317-
 mid.  surface     3.4975E-02  3.8226E-02 -7.1617E-02 -3.2786E-04 -1.6504E-02 -3.0435E-03
     320-
[...]
     269-
 mid.  surface     3.6307E-01  4.3721E-01 -7.6093E-01 -1.3961E-02  9.6630E-03  7.6991E-02
     270-
 mid.  surface     3.6154E-01  4.0315E-01 -8.1934E-01 -2.6039E-02  1.6648E-02 -3.9895E-02
     284-
 mid.  surface     4.1449E-01  4.0408E-01 -8.5772E-01  3.2050E-02 -1.1913E-01 -1.6034E-02
     285-
 mid.  surface     4.1155E-01  4.0688E-01 -8.6127E-01  5.9837E-03 -9.6272E-02 -1.3803E-02
     286-
 mid.  surface     3.9962E-01  3.1321E-01 -7.0360E-01 -1.6676E-02 -1.2738E-01 -1.7796E-02
     287-
 mid.  surface     3.8162E-01  3.0259E-01 -7.1864E-01 -3.3857E-02 -9.7861E-02  7.7561E-03
     288-
 mid.  surface     3.5250E-01  3.0034E-01 -7.1492E-01 -4.0594E-02 -6.5516E-02 -2.7958E-02
     289-
 mid.  surface     3.1553E-01  3.0000E-01 -6.1843E-01 -4.6993E-02 -8.2671E-02 -3.1173E-02
     290-
 mid.  surface     3.1195E-01  3.1964E-01 -6.1623E-01 -4.4254E-02 -9.6652E-02 -6.9987E-03
     291-
 mid.  surface     3.2911E-01  3.7143E-01 -7.1069E-01 -1.9976E-02 -1.0309E-01 -3.1043E-02
     292-
 mid.  surface     3.9171E-01  4.4340E-01 -8.0356E-01  2.8015E-02 -4.8703E-02 -3.7557E-02
     311-
 mid.  surface     3.5545E-01  3.5029E-01 -7.0666E-01 -3.4761E-02 -8.9734E-02 -5.7710E-02
     314-
 mid.  surface     3.7091E-01  3.5452E-01 -7.3437E-01 -3.3717E-02 -5.1796E-02 -3.1728E-02
     317-
 mid.  surface     3.8044E-01  3.7250E-01 -7.2127E-01 -2.9840E-02 -5.9401E-02 -8.2085E-03
     320-
 mid.  surface     4.1128E-01  3.4352E-01 -7.3685E-01 -9.6236E-04 -1.0645E-01 -2.1054E-02
     327-
 mid.  surface     3.3662E-01  3.7728E-01 -6.9810E-01 -2.6549E-02 -7.0504E-02 -3.5339E-02
     328-
 mid.  surface     3.3650E-01  3.9611E-01 -7.9148E-01 -1.0225E-02 -4.7240E-02 -5.9452E-02
     329-
 mid.  surface     3.9254E-01  4.2499E-01 -8.6146E-01  2.2481E-02 -1.6582E-02 -1.0713E-01
     330-
 mid.  surface     3.8561E-01  3.8917E-01 -7.4865E-01 -1.8610E-02  8.5285E-02  5.8289E-02
     331-
 mid.  surface     3.8992E-01  3.4577E-01 -7.7228E-01 -2.3147E-02 -3.4192E-03 -1.6255E-02
     332-
 mid.  surface     3.9953E-01  3.4574E-01 -7.5125E-01 -2.0004E-02  7.5426E-02  1.9319E-02
     333-
 mid.  surface     4.0770E-01  3.5498E-01 -7.6357E-01 -7.0991E-03  1.0363E-01  3.4337E-02
     510-
 mid.  surface     3.7642E-01  3.8996E-01 -7.7284E-01 -6.8116E-03  8.0075E-02  5.9804E-02
     511-
 mid.  surface     3.7279E-01  3.3584E-01 -7.5293E-01 -1.0793E-02  7.1968E-03  7.7317E-02
     647-
 mid.  surface     3.9287E-01  4.1505E-01 -8.7711E-01  1.3439E-02  7.0838E-02  1.1005E-02
     648-
 mid.  surface     3.5042E-01  3.8421E-01 -7.9560E-01 -1.7930E-02  5.0340E-02  1.1541E-02
     705-
 mid.  surface     4.0901E-01  4.0137E-01 -8.6999E-01  3.6784E-03  1.8811E-01  2.2938E-02
     706-
 mid.  surface     4.1354E-01  3.9758E-01 -8.5074E-01  2.2109E-02  8.8918E-02  3.8159E-02
     841-
 mid.  surface     3.4663E-01  3.7952E-01 -7.4867E-01 -3.4360E-02  1.3954E-01  7.1160E-02
     990-
 mid.  surface     3.2013E-01  3.6145E-01 -7.0421E-01 -5.2146E-02  1.2370E-01  6.4830E-02
    1035-
 mid.  surface     3.0888E-01  3.1251E-01 -6.3688E-01 -5.4045E-02  7.4467E-02  7.3522E-03
    1036-
 mid.  surface     3.3102E-01  3.1772E-01 -6.5607E-01 -3.3423E-02  5.9461E-02 -2.0133E-02
    1140-
 mid.  surface     3.6271E-01  3.9723E-01 -8.0236E-01 -2.0343E-02  7.0367E-02  8.1716E-02
    1141-
 mid.  surface     3.6283E-01  4.1471E-01 -7.5545E-01 -1.3434E-02  8.7144E-02  9.9286E-02
    1142-
 mid.  surface     3.9381E-01  4.2794E-01 -8.1358E-01  2.2221E-02  7.4023E-02  9.7031E-02
    1230-
 mid.  surface     3.4392E-01  3.7954E-01 -7.1752E-01 -1.6436E-02  8.0283E-02  7.4959E-02



 n o d a l  s t r e s s  c a l c u l a t i o n s   f o r   t i m e  s t e p     1559   ( at time 9.64990E+01 )

 node (global)
          stress       sig-xx      sig-yy      sig-zz      sig-xy      sig-yz      sig-zx       plastic
                                                                                                 strain 
     269-
 mid.  surface     3.3233E+07  3.3233E+07  3.3233E+07  0.0000E+00  0.0000E+00  0.0000E+00  2.0754E+00
     270-
 mid.  surface     5.0274E+07  5.0274E+07  5.0274E+07  0.0000E+00  0.0000E+00  0.0000E+00  3.1500E+00
     284-
 mid.  surface     1.1972E+08 -1.3487E+07 -1.9737E+09 -3.1116E+07 -2.5179E+08 -2.7698E+07  1.1447E+00
     285-
 mid.  surface     2.4641E+09  2.3902E+09  2.3612E+09 -7.1970E+07 -1.8644E+08  1.7669E+07  1.6132E+00
     286-
 mid.  surface     2.9217E+09  2.7817E+09  7.6591E+08 -3.4714E+07 -4.7524E+08 -9.2001E+07  2.0896E+00
     287-
 mid.  surface    -8.5029E+08 -9.5390E+08 -1.7492E+09 -3.1673E+07 -4.2370E+08 -9.5587E+07  1.3061E+00
     288-
 mid.  surface    -8.7794E+08 -1.0289E+09 -1.9774E+09 -7.0022E+06 -3.3509E+08 -1.5296E+08  1.1889E+00
     289-
 mid.  surface    -2.2737E+09 -2.1326E+09 -3.6951E+08  8.6820E+07 -4.4298E+08 -2.6057E+08  5.8565E-01
     290-
 mid.  surface    -1.0564E+09 -1.0274E+09 -1.1397E+09 -1.9238E+06 -2.9615E+08 -2.1533E+08  2.1343E-01
     291-
 mid.  surface     1.5506E+09  1.6241E+09  3.3607E+08 -3.5118E+07 -5.7780E+07 -2.8679E+07  3.3829E-01
     292-
 mid.  surface    -1.0519E+08 -1.0519E+08 -1.0519E+08  0.0000E+00  0.0000E+00  0.0000E+00 -3.0532E-01
     311-
 mid.  surface     1.9834E+09  1.9513E+09  4.4388E+08 -7.5738E+07 -1.1709E+08 -7.1448E+07  1.1045E+00
     314-
 mid.  surface     5.9728E+08  5.3081E+08 -9.2571E+08 -7.7787E+07 -1.7946E+08 -4.4417E+07  7.1102E-01
     317-
 mid.  surface    -9.9124E+08 -8.9273E+08  4.5154E+08  3.1458E+07 -9.8973E+07  1.4380E+06  1.7635E-01
     320-
 mid.  surface     2.1453E+09  2.0165E+09 -2.8560E+08 -5.2003E+06 -2.2166E+08 -6.1001E+07  9.9042E-01
     327-
 mid.  surface    -6.4782E+07 -1.7455E+08  5.4062E+07 -2.5720E+07 -1.4333E+08 -1.6326E+08 -4.6278E-01
     328-
 mid.  surface     5.7024E+08  5.1383E+08  5.2182E+08 -1.9154E+07 -5.6588E+07 -2.2926E+07  2.3881E-01
     329-
 mid.  surface    -7.0574E+07 -7.0574E+07 -7.0574E+07  0.0000E+00  0.0000E+00  0.0000E+00  2.8164E-01
     330-
 mid.  surface    -1.1923E+09 -9.5689E+08  1.5646E+09  7.0422E+07  1.5611E+08  7.9350E+07 -1.0686E-01
     331-
 mid.  surface    -1.2075E+09 -1.1575E+09 -4.7295E+08  2.9615E+07  2.5205E+07  1.9851E+07  7.9088E-01
     332-
 mid.  surface     1.0058E+09  9.9249E+08  1.0311E+09 -1.8686E+07  1.3658E+08 -1.4146E+06  7.7861E-01
     333-
 mid.  surface     7.6892E+07  3.4393E+07 -5.5734E+08  1.2491E+07  1.5133E+08 -4.3844E+05  8.8783E-02
     510-
 mid.  surface     5.8523E+07  3.7866E+07 -1.0750E+09 -5.7344E+07  4.5735E+08  2.1194E+08  1.0654E+00
     511-
 mid.  surface    -1.6016E+09 -1.5957E+09 -1.4535E+09  3.6196E+07  2.8025E+08  7.8043E+07  5.7556E-01
     647-
 mid.  surface    -1.0519E+08 -1.0519E+08 -1.0519E+08  0.0000E+00  0.0000E+00  0.0000E+00  1.3882E-01
     648-
 mid.  surface     7.7820E+08  7.7858E+08  2.0659E+08 -3.6585E+07  4.6524E+07  5.1805E+07  3.8908E-01
     705-
 mid.  surface    -1.9548E+08 -1.7081E+08  1.1530E+09 -1.1230E+08  4.8431E+08  6.7815E+07  1.3937E+00
     706-
 mid.  surface    -2.8769E+09 -2.9433E+09 -3.5288E+09 -6.0281E+07  4.5244E+08  3.7049E+07  8.7187E-01
     841-
 mid.  surface     1.5626E+09  1.5153E+09  3.0024E+08 -6.4049E+07  4.6412E+08  3.0570E+08  1.1660E+00
     990-
 mid.  surface     6.8527E+07 -7.5830E+07  4.6106E+07 -9.6145E+06  1.5009E+08  1.1785E+08  4.8891E-01
    1035-
 mid.  surface    -1.1991E+09 -1.1358E+09 -1.4621E+09  1.7110E+07  9.6747E+07  8.0886E+07  1.3075E+00
    1036-
 mid.  surface    -1.8240E+09 -1.6729E+09  6.6750E+08  1.1998E+08  1.8129E+08  9.6095E+07  3.4808E-01
    1140-
 mid.  surface     3.3233E+07  3.3233E+07  3.3233E+07  0.0000E+00  0.0000E+00  0.0000E+00  2.4444E+00
    1141-
 mid.  surface    -3.5998E+07 -3.5998E+07 -3.5998E+07  0.0000E+00  0.0000E+00  0.0000E+00  2.1140E+00
    1142-
 mid.  surface    -1.3623E+08 -1.3623E+08 -1.3623E+08  0.0000E+00  0.0000E+00  0.0000E+00 -8.5264E-01
    1230-
 mid.  surface     1.1735E+09  1.2927E+09 -5.1698E+08 -5.8014E+07  1.3974E+08  1.5001E+08  4.9204E-01



 n o d a l  s t r a i n  c a l c u l a t i o n s   f o r   t i m e  s t e p     1559   ( at time 9.64990E+01 )

 node (global)
          strain       eps-xx      eps-yy      eps-zz      eps-xy      eps-yz      eps-zx       
     269-
 mid.  surface     3.8909E-01  4.5937E-01 -8.0203E-01 -2.2625E-02  1.4440E-02  7.3516E-02
     270-
 mid.  surface     3.8284E-01  4.2428E-01 -8.5576E-01 -3.0704E-02  1.3788E-02 -6.0242E-02
     284-
 mid.  surface     4.3725E-01  4.1948E-01 -9.0080E-01  3.4127E-02 -1.5713E-01 -2.3636E-02
     285-
 mid.  surface     4.3257E-01  4.4044E-01 -9.2774E-01  4.8214E-03 -8.7245E-02 -1.6695E-02
     286-
 mid.  surface     4.1938E-01  3.2463E-01 -7.2519E-01 -1.8131E-02 -1.5055E-01 -1.9804E-02
     287-
 mid.  surface     4.0125E-01  3.2048E-01 -7.6286E-01 -3.6440E-02 -1.1310E-01  1.4216E-02
     288-
 mid.  surface     3.6893E-01  3.0456E-01 -7.3463E-01 -4.6456E-02 -7.4728E-02 -3.1109E-02
     289-
 mid.  surface     3.2754E-01  3.0456E-01 -6.3339E-01 -5.5806E-02 -9.7041E-02 -3.3586E-02
     290-
 mid.  surface     3.3036E-01  3.3241E-01 -6.5272E-01 -4.6040E-02 -9.6271E-02 -1.5006E-02
     291-
 mid.  surface     3.4171E-01  3.8962E-01 -7.2397E-01 -2.8379E-02 -1.1084E-01 -4.5210E-02
     292-
 mid.  surface     4.1850E-01  4.6701E-01 -8.6436E-01  2.7346E-02 -4.8923E-02 -4.8132E-02
     311-
 mid.  surface     3.6655E-01  3.5957E-01 -7.2693E-01 -4.4823E-02 -1.0849E-01 -5.5431E-02
     314-
 mid.  surface     3.8791E-01  3.5857E-01 -7.5396E-01 -3.7802E-02 -6.3286E-02 -3.7226E-02
     317-
 mid.  surface     3.9824E-01  3.8657E-01 -7.5675E-01 -3.2245E-02 -8.8882E-02 -1.2171E-02
     320-
 mid.  surface     4.3184E-01  3.4732E-01 -7.5030E-01 -1.9687E-03 -1.5341E-01 -2.7246E-02
     327-
 mid.  surface     3.5603E-01  3.9234E-01 -7.4650E-01 -2.9416E-02 -8.4402E-02 -4.1393E-02
     328-
 mid.  surface     3.4807E-01  4.1609E-01 -8.0316E-01 -1.8670E-02 -6.7989E-02 -7.9123E-02
     329-
 mid.  surface     4.1470E-01  4.4914E-01 -9.2108E-01  2.3397E-02 -2.8889E-02 -1.1825E-01
     330-
 mid.  surface     4.0425E-01  3.9731E-01 -7.7442E-01 -2.2497E-02  8.1373E-02  4.9640E-02
     331-
 mid.  surface     4.0820E-01  3.5875E-01 -8.1423E-01 -2.8117E-02  5.4152E-02 -8.5030E-03
     332-
 mid.  surface     4.1896E-01  3.5721E-01 -7.6431E-01 -2.3615E-02  1.2510E-01  3.6085E-02
     333-
 mid.  surface     4.2819E-01  3.5357E-01 -7.7041E-01 -9.0497E-03  1.2784E-01  4.3978E-02
     510-
 mid.  surface     3.9834E-01  3.9567E-01 -7.8793E-01 -6.7281E-03  9.4404E-02  6.9507E-02
     511-
 mid.  surface     3.9296E-01  3.4927E-01 -7.7141E-01 -1.1604E-02  2.2277E-02  1.0116E-01
     647-
 mid.  surface     4.1327E-01  4.3351E-01 -9.2759E-01  1.4886E-02  8.5950E-02  1.4633E-02
     648-
 mid.  surface     3.6144E-01  4.0433E-01 -7.9901E-01 -2.2367E-02  6.8962E-02  2.4322E-02
     705-
 mid.  surface     4.2955E-01  4.1970E-01 -9.2414E-01 -3.8661E-03  2.9450E-01  2.3727E-02
     706-
 mid.  surface     4.3671E-01  4.0840E-01 -8.8900E-01  1.9212E-02  1.1706E-01  3.9424E-02
     841-
 mid.  surface     3.5802E-01  3.8876E-01 -7.6426E-01 -4.2350E-02  1.3759E-01  6.4088E-02
     990-
 mid.  surface     3.3593E-01  3.7704E-01 -7.4397E-01 -5.6383E-02  1.2446E-01  5.6785E-02
    1035-
 mid.  surface     3.2577E-01  3.2427E-01 -6.6870E-01 -5.7680E-02  1.0444E-01  4.6063E-02
    1036-
 mid.  surface     3.4090E-01  3.2593E-01 -6.7035E-01 -3.9206E-02  8.5454E-02 -1.5572E-02
    1140-
 mid.  surface     3.7814E-01  4.1353E-01 -8.3248E-01 -2.3664E-02  6.1454E-02  8.1848E-02
    1141-
 mid.  surface     3.8581E-01  4.3128E-01 -7.7951E-01 -2.0090E-02  1.0126E-01  1.6141E-01
    1142-
 mid.  surface     4.1790E-01  4.4661E-01 -8.6254E-01  2.2630E-02  1.0302E-01  1.7072E-01
    1230-
 mid.  surface     3.5768E-01  3.9883E-01 -7.2126E-01 -1.7080E-02  1.0314E-01  8.1136E-02



 n o d a l  s t r e s s  c a l c u l a t i o n s   f o r   t i m e  s t e p     1566   ( at time 1.00000E+02 )

 node (global)
          stress       sig-xx      sig-yy      sig-zz      sig-xy      sig-yz      sig-zx       plastic
                                                                                                 strain 
     269-
 mid.  surface    -7.0426E+08 -7.0426E+08 -7.0426E+08  0.0000E+00  0.0000E+00  0.0000E+00  2.0754E+00
     270-
 mid.  surface    -2.5977E+08 -2.5977E+08 -2.5977E+08  0.0000E+00  0.0000E+00  0.0000E+00  3.1500E+00
     284-
 mid.  surface    -1.2370E+09 -1.2794E+09 -9.1032E+08  1.1655E+06  2.4260E+08  3.2484E+06  1.1280E+00
     285-
 mid.  surface     1.9935E+09  1.9261E+09  3.0573E+09 -2.4234E+07  9.3271E+07 -2.4588E+06  1.5595E+00
     286-
 mid.  surface     1.3692E+09  1.2556E+09  5.7239E+08 -7.2054E+05 -2.1872E+08 -4.6037E+06  2.1327E+00
     287-
 mid.  surface    -1.2307E+09 -1.2996E+09 -2.4178E+09 -5.3384E+07 -2.5546E+08 -1.0055E+07  1.3681E+00
     288-
 mid.  surface    -1.8225E+09 -1.8908E+09 -2.8928E+09 -4.3208E+07 -2.1896E+08 -6.8949E+07  1.2471E+00
     289-
 mid.  surface    -1.6367E+09 -1.5869E+09  2.5152E+08  4.3539E+07 -3.0544E+08 -1.5429E+08  4.8297E-01
     290-
 mid.  surface    -2.7095E+08 -3.0046E+08 -6.4884E+08 -1.4657E+07 -1.3828E+08 -8.8901E+07  2.3481E-01
     291-
 mid.  surface     6.3588E+08  6.4935E+08  6.2337E+08 -2.1427E+06  6.2196E+06 -1.8919E+06  3.3739E-01
     292-
 mid.  surface    -6.1077E+08 -6.1077E+08 -6.1077E+08  0.0000E+00  0.0000E+00  0.0000E+00 -3.0532E-01
     311-
 mid.  surface     1.5635E+09  1.5167E+09 -8.1758E+06 -1.2147E+07 -1.3631E+08 -7.3068E+07  1.1892E+00
     314-
 mid.  surface     1.0805E+08  9.3388E+07 -1.3927E+09 -4.6422E+07 -1.5488E+08 -6.4997E+07  7.8684E-01
     317-
 mid.  surface    -8.5243E+08 -7.3120E+08  8.5406E+08  8.9292E+06 -1.2181E+08  6.5099E+06  8.3763E-02
     320-
 mid.  surface    -2.8207E+07 -6.2169E+07 -3.6796E+08  2.0931E+07  3.3871E+07  4.4096E+06  1.0119E+00
     327-
 mid.  surface     1.4993E+09  1.4607E+09  9.3337E+08 -1.8886E+07 -8.6773E+07 -8.3673E+07 -4.3721E-01
     328-
 mid.  surface     1.0509E+09  1.0398E+09  1.7320E+09 -5.4074E+06 -4.4866E+07 -5.0904E+07  1.9531E-01
     329-
 mid.  surface     1.2504E+08  1.2504E+08  1.2504E+08  0.0000E+00  0.0000E+00  0.0000E+00  2.8164E-01
     330-
 mid.  surface    -3.5720E+08 -1.6285E+08  2.1859E+09  4.3069E+07  1.5458E+08  1.6050E+07 -2.4335E-01
     331-
 mid.  surface    -1.0254E+09 -1.0135E+09 -9.9797E+08  7.6157E+06  1.4192E+08  1.4108E+06  7.8983E-01
     332-
 mid.  surface     1.6143E+09  1.5465E+09  2.5986E+08 -1.6914E+07 -6.0700E+07 -1.3606E+07  8.4897E-01
     333-
 mid.  surface    -3.0718E+08 -3.1959E+08 -1.1817E+09  1.1927E+07 -3.9902E+07 -7.7638E+06  1.3317E-01
     510-
 mid.  surface     4.8105E+08  4.5400E+08 -7.1274E+08 -1.7436E+07  3.3376E+08  8.2059E+07  1.1292E+00
     511-
 mid.  surface    -1.4270E+09 -1.4478E+09 -1.3227E+09  1.8372E+07  2.6884E+08  7.2535E+07  5.7652E-01
     647-
 mid.  surface    -3.3977E+08 -3.3977E+08 -3.3977E+08  0.0000E+00  0.0000E+00  0.0000E+00  1.3882E-01
     648-
 mid.  surface     5.0005E+08  5.1352E+08  4.8753E+08 -2.1427E+06  6.2198E+06 -1.8917E+06  3.8818E-01
     705-
 mid.  surface     2.0605E+09  1.9898E+09  8.6623E+08 -1.0504E+08 -3.3084E+07 -1.9835E+07  1.4548E+00
     706-
 mid.  surface    -6.9203E+08 -7.3153E+08 -3.4909E+09 -6.8090E+07  4.8563E+07 -1.4601E+07  1.0225E+00
     841-
 mid.  surface     1.1115E+09  1.0333E+09 -2.5254E+08  6.9986E+06  2.9964E+08  1.8067E+08  1.2442E+00
     990-
 mid.  surface     9.5581E+08  9.1418E+08 -3.1398E+08 -7.6296E+06  4.2226E+07  6.2702E+07  5.6311E-01
    1035-
 mid.  surface    -1.1339E+09 -1.1260E+09 -2.1968E+09  3.9291E+06  6.5174E+07  8.8865E+07  1.3762E+00
    1036-
 mid.  surface    -1.2962E+09 -1.2337E+09  1.1392E+09  6.2157E+07  1.5130E+08  1.0882E+08  2.2172E-01
    1140-
 mid.  surface    -2.1343E+08 -2.1343E+08 -2.1343E+08  0.0000E+00  0.0000E+00  0.0000E+00  2.4444E+00
    1141-
 mid.  surface    -1.3353E+09 -1.3353E+09 -1.3353E+09  0.0000E+00  0.0000E+00  0.0000E+00  2.1140E+00
    1142-
 mid.  surface    -1.1328E+09 -1.1328E+09 -1.1328E+09  0.0000E+00  0.0000E+00  0.0000E+00 -8.5264E-01
    1230-
 mid.  surface    -1.8752E+08 -1.5298E+08 -1.2682E+09  5.7065E+06  7.8097E+07  7.7141E+07  5.5888E-01



 n o d a l  s t r a i n  c a l c u l a t i o n s   f o r   t i m e  s t e p     1566   ( at time 1.00000E+02 )

 node (global)
          strain       eps-xx      eps-yy      eps-zz      eps-xy      eps-yz      eps-zx       
     269-
 mid.  surface     3.9898E-01  4.7004E-01 -8.2348E-01 -2.7100E-02  1.4042E-02  7.6755E-02
     270-
 mid.  surface     3.9394E-01  4.3475E-01 -8.9047E-01 -3.2892E-02  1.2324E-02 -6.8441E-02
     284-
 mid.  surface     4.5040E-01  4.3779E-01 -9.2532E-01  3.6307E-02 -1.8105E-01 -2.1415E-02
     285-
 mid.  surface     4.4492E-01  4.5246E-01 -9.5718E-01  4.2202E-03 -8.1223E-02 -1.6148E-02
     286-
 mid.  surface     4.3179E-01  3.2832E-01 -7.5121E-01 -1.9893E-02 -1.6056E-01 -1.8351E-02
     287-
 mid.  surface     4.1341E-01  3.2718E-01 -7.9122E-01 -3.7147E-02 -1.2458E-01  2.0589E-02
     288-
 mid.  surface     3.7964E-01  3.1342E-01 -7.5681E-01 -4.8421E-02 -8.0267E-02 -2.8764E-02
     289-
 mid.  surface     3.4068E-01  3.1232E-01 -6.5937E-01 -5.6495E-02 -9.8725E-02 -3.2519E-02
     290-
 mid.  surface     3.4010E-01  3.4120E-01 -6.7100E-01 -4.9330E-02 -1.0006E-01 -2.2115E-02
     291-
 mid.  surface     3.5735E-01  4.0156E-01 -7.6595E-01 -2.6518E-02 -1.1413E-01 -4.9290E-02
     292-
 mid.  surface     4.2673E-01  4.7830E-01 -8.8337E-01  2.6351E-02 -4.6591E-02 -5.0945E-02
     311-
 mid.  surface     3.7928E-01  3.6982E-01 -7.4795E-01 -4.5471E-02 -1.1316E-01 -5.4880E-02
     314-
 mid.  surface     3.9837E-01  3.6891E-01 -7.7413E-01 -4.0262E-02 -7.2471E-02 -4.0000E-02
     317-
 mid.  surface     4.0991E-01  3.9568E-01 -7.8080E-01 -3.3825E-02 -1.0786E-01 -1.1893E-02
     320-
 mid.  surface     4.4404E-01  3.5851E-01 -7.6807E-01 -2.0689E-03 -1.7937E-01 -2.6270E-02
     327-
 mid.  surface     3.6421E-01  4.0181E-01 -7.6394E-01 -3.3049E-02 -9.2844E-02 -4.6033E-02
     328-
 mid.  surface     3.5995E-01  4.2693E-01 -8.4336E-01 -1.9589E-02 -7.3742E-02 -8.6400E-02
     329-
 mid.  surface     4.2176E-01  4.5933E-01 -9.4745E-01  2.2008E-02 -2.9788E-02 -1.3040E-01
     330-
 mid.  surface     4.1590E-01  4.0514E-01 -8.0173E-01 -2.3946E-02  8.7320E-02  4.2405E-02
     331-
 mid.  surface     4.1927E-01  3.6483E-01 -8.4335E-01 -3.0073E-02  6.7491E-02 -6.4661E-03
     332-
 mid.  surface     4.3133E-01  3.6377E-01 -7.8889E-01 -2.4496E-02  1.3359E-01  3.0313E-02
     333-
 mid.  surface     4.4075E-01  3.6340E-01 -7.9017E-01 -9.2344E-03  1.4070E-01  4.3729E-02
     510-
 mid.  surface     4.0885E-01  4.0321E-01 -8.0341E-01 -8.2557E-03  9.5989E-02  7.0393E-02
     511-
 mid.  surface     4.0346E-01  3.5790E-01 -7.9402E-01 -1.2581E-02  4.1060E-02  1.0039E-01
     647-
 mid.  surface     4.2145E-01  4.4417E-01 -9.5085E-01  1.4281E-02  9.0702E-02  2.9210E-02
     648-
 mid.  surface     3.7344E-01  4.1594E-01 -8.3993E-01 -2.0968E-02  6.8727E-02  1.8052E-02
     705-
 mid.  surface     4.4208E-01  4.2843E-01 -9.5131E-01 -5.6214E-03  3.2359E-01  2.3299E-02
     706-
 mid.  surface     4.4995E-01  4.2435E-01 -9.1672E-01  2.0290E-02  1.4647E-01  4.0728E-02
     841-
 mid.  surface     3.7026E-01  3.9738E-01 -7.7945E-01 -4.2073E-02  1.3190E-01  6.0815E-02
     990-
 mid.  surface     3.4575E-01  3.8550E-01 -7.6081E-01 -5.8032E-02  1.3308E-01  5.7143E-02
    1035-
 mid.  surface     3.3671E-01  3.3414E-01 -6.8643E-01 -5.7222E-02  1.1310E-01  4.5540E-02
    1036-
 mid.  surface     3.5248E-01  3.3435E-01 -6.9185E-01 -3.9009E-02  8.9640E-02 -4.7197E-03
    1140-
 mid.  surface     3.9016E-01  4.2353E-01 -8.6217E-01 -2.5322E-02  5.9810E-02  9.6305E-02
    1141-
 mid.  surface     3.9654E-01  4.4118E-01 -8.0026E-01 -2.3306E-02  1.0643E-01  1.6645E-01
    1142-
 mid.  surface     4.2850E-01  4.5880E-01 -8.8076E-01  2.2603E-02  1.0644E-01  1.7953E-01
    1230-
 mid.  surface     3.7123E-01  4.0933E-01 -7.5895E-01 -1.5736E-02  1.1884E-01  1.0756E-01
