 LS-DYNA keyword deck by LS-PrePost                                      
                    ls-dyna smp d R14 R14.1.1s_1_ef50e1 date 06/16/2024

{BEGIN LEGEND}
 Entity #        Title
      269                                                                                     
      285                                                                                     
      286                                                                                     
      287                                                                                     
      288                                                                                     
      289                                                                                     
      290                                                                                     
      291                                                                                     
      292                                                                                     
{END LEGEND}




 n o d a l   p r i n t   o u t   f o r   t i m e  s t e p       1                              ( at time 0.0000000E+00 )

 nodal point  x-disp     y-disp      z-disp      x-vel       y-vel       z-vel      x-accl      y-accl      z-accl      x-coor      y-coor      z-coor
      269  0.00000E+00 0.00000E+00 0.00000E+00 0.00000E+00 0.00000E+00 0.00000E+00 0.00000E+00 0.00000E+00 0.00000E+00 3.17500E-03 0.00000E+00 1.77600E-18
      285  0.00000E+00 0.00000E+00 0.00000E+00 0.00000E+00 0.00000E+00 0.00000E+00 0.00000E+00 0.00000E+00 0.00000E+00 1.94400E-19 3.17500E-03 0.00000E+00
      286  0.00000E+00 0.00000E+00 0.00000E+00 0.00000E+00 0.00000E+00 0.00000E+00 0.00000E+00 0.00000E+00 0.00000E+00 6.19412E-04 3.11400E-03 0.00000E+00
      287  0.00000E+00 0.00000E+00 0.00000E+00 0.00000E+00 0.00000E+00 0.00000E+00 0.00000E+00 0.00000E+00 0.00000E+00 1.21500E-03 2.93330E-03 0.00000E+00
      288  0.00000E+00 0.00000E+00 0.00000E+00 0.00000E+00 0.00000E+00 0.00000E+00 0.00000E+00 0.00000E+00 0.00000E+00 1.76390E-03 2.63990E-03 0.00000E+00
      289  0.00000E+00 0.00000E+00 0.00000E+00 0.00000E+00 0.00000E+00 0.00000E+00 0.00000E+00 0.00000E+00 0.00000E+00 2.24510E-03 2.24510E-03 0.00000E+00
      290  0.00000E+00 0.00000E+00 0.00000E+00 0.00000E+00 0.00000E+00 0.00000E+00 0.00000E+00 0.00000E+00 0.00000E+00 2.63990E-03 1.76390E-03 0.00000E+00
      291  0.00000E+00 0.00000E+00 0.00000E+00 0.00000E+00 0.00000E+00 0.00000E+00 0.00000E+00 0.00000E+00 0.00000E+00 2.93330E-03 1.21500E-03 0.00000E+00
      292  0.00000E+00 0.00000E+00 0.00000E+00 0.00000E+00 0.00000E+00 0.00000E+00 0.00000E+00 0.00000E+00 0.00000E+00 3.11400E-03 6.19412E-04 0.00000E+00



 n o d a l   p r i n t   o u t   f o r   t i m e  s t e p      10                              ( at time 1.2924466E+00 )

 nodal point  x-disp     y-disp      z-disp      x-vel       y-vel       z-vel      x-accl      y-accl      z-accl      x-coor      y-coor      z-coor
      269  3.34565E-06 0.00000E+00 0.00000E+00 0.00000E+00 0.00000E+00 0.00000E+00 0.00000E+00 0.00000E+00 0.00000E+00 3.17835E-03 0.00000E+00 1.77600E-18
      285  0.00000E+00 3.45152E-06 0.00000E+00 0.00000E+00 0.00000E+00 0.00000E+00 0.00000E+00 0.00000E+00 0.00000E+00 1.94400E-19 3.17845E-03 0.00000E+00
      286  6.19547E-07 3.30025E-06 0.00000E+00 0.00000E+00 0.00000E+00 0.00000E+00 0.00000E+00 0.00000E+00 0.00000E+00 6.20031E-04 3.11730E-03 0.00000E+00
      287  1.24222E-06 3.16996E-06 0.00000E+00 0.00000E+00 0.00000E+00 0.00000E+00 0.00000E+00 0.00000E+00 0.00000E+00 1.21624E-03 2.93647E-03 0.00000E+00
      288  1.82269E-06 2.91366E-06 0.00000E+00 0.00000E+00 0.00000E+00 0.00000E+00 0.00000E+00 0.00000E+00 0.00000E+00 1.76572E-03 2.64281E-03 0.00000E+00
      289  2.34440E-06 2.55114E-06 0.00000E+00 0.00000E+00 0.00000E+00 0.00000E+00 0.00000E+00 0.00000E+00 0.00000E+00 2.24744E-03 2.24765E-03 0.00000E+00
      290  2.77021E-06 2.05722E-06 0.00000E+00 0.00000E+00 0.00000E+00 0.00000E+00 0.00000E+00 0.00000E+00 0.00000E+00 2.64267E-03 1.76596E-03 0.00000E+00
      291  3.08985E-06 1.44568E-06 0.00000E+00 0.00000E+00 0.00000E+00 0.00000E+00 0.00000E+00 0.00000E+00 0.00000E+00 2.93639E-03 1.21645E-03 0.00000E+00
      292  3.28759E-06 7.46536E-07 0.00000E+00 0.00000E+00 0.00000E+00 0.00000E+00 0.00000E+00 0.00000E+00 0.00000E+00 3.11729E-03 6.20158E-04 0.00000E+00



 n o d a l   p r i n t   o u t   f o r   t i m e  s t e p     438                              ( at time 2.0491917E+00 )

 nodal point  x-disp     y-disp      z-disp      x-vel       y-vel       z-vel      x-accl      y-accl      z-accl      x-coor      y-coor      z-coor
      269  1.02465E-05 0.00000E+00 0.00000E+00 0.00000E+00 0.00000E+00 0.00000E+00 0.00000E+00 0.00000E+00 0.00000E+00 3.18525E-03 0.00000E+00 1.77600E-18
      285  0.00000E+00 1.28334E-05 0.00000E+00 0.00000E+00 0.00000E+00 0.00000E+00 0.00000E+00 0.00000E+00 0.00000E+00 1.94400E-19 3.18783E-03 0.00000E+00
      286  2.49102E-06 1.19087E-05 0.00000E+00 0.00000E+00 0.00000E+00 0.00000E+00 0.00000E+00 0.00000E+00 0.00000E+00 6.21903E-04 3.12591E-03 0.00000E+00
      287  4.98767E-06 1.13990E-05 0.00000E+00 0.00000E+00 0.00000E+00 0.00000E+00 0.00000E+00 0.00000E+00 0.00000E+00 1.21999E-03 2.94470E-03 0.00000E+00
      288  7.29579E-06 1.05830E-05 0.00000E+00 0.00000E+00 0.00000E+00 0.00000E+00 0.00000E+00 0.00000E+00 0.00000E+00 1.77120E-03 2.65048E-03 0.00000E+00
      289  1.02904E-05 1.05561E-05 0.00000E+00 0.00000E+00 0.00000E+00 0.00000E+00 0.00000E+00 0.00000E+00 0.00000E+00 2.25539E-03 2.25566E-03 0.00000E+00
      290  1.15104E-05 8.41475E-06 0.00000E+00 0.00000E+00 0.00000E+00 0.00000E+00 0.00000E+00 0.00000E+00 0.00000E+00 2.65141E-03 1.77231E-03 0.00000E+00
      291  1.24446E-05 5.95967E-06 0.00000E+00 0.00000E+00 0.00000E+00 0.00000E+00 0.00000E+00 0.00000E+00 0.00000E+00 2.94574E-03 1.22096E-03 0.00000E+00
      292  1.26590E-05 3.14608E-06 0.00000E+00 0.00000E+00 0.00000E+00 0.00000E+00 0.00000E+00 0.00000E+00 0.00000E+00 3.12666E-03 6.22558E-04 0.00000E+00



 n o d a l   p r i n t   o u t   f o r   t i m e  s t e p     460                              ( at time 3.4696129E+00 )

 nodal point  x-disp     y-disp      z-disp      x-vel       y-vel       z-vel      x-accl      y-accl      z-accl      x-coor      y-coor      z-coor
      269  3.17826E-05 0.00000E+00 0.00000E+00 0.00000E+00 0.00000E+00 0.00000E+00 0.00000E+00 0.00000E+00 0.00000E+00 3.20678E-03 0.00000E+00 1.77600E-18
      285  0.00000E+00 3.47798E-05 0.00000E+00 0.00000E+00 0.00000E+00 0.00000E+00 0.00000E+00 0.00000E+00 0.00000E+00 1.94400E-19 3.20978E-03 0.00000E+00
      286  6.82779E-06 3.31541E-05 0.00000E+00 0.00000E+00 0.00000E+00 0.00000E+00 0.00000E+00 0.00000E+00 0.00000E+00 6.26240E-04 3.14715E-03 0.00000E+00
      287  1.35511E-05 3.15577E-05 0.00000E+00 0.00000E+00 0.00000E+00 0.00000E+00 0.00000E+00 0.00000E+00 0.00000E+00 1.22855E-03 2.96486E-03 0.00000E+00
      288  1.96115E-05 2.87829E-05 0.00000E+00 0.00000E+00 0.00000E+00 0.00000E+00 0.00000E+00 0.00000E+00 0.00000E+00 1.78351E-03 2.66868E-03 0.00000E+00
      289  2.59797E-05 2.63598E-05 0.00000E+00 0.00000E+00 0.00000E+00 0.00000E+00 0.00000E+00 0.00000E+00 0.00000E+00 2.27108E-03 2.27146E-03 0.00000E+00
      290  2.95970E-05 2.10853E-05 0.00000E+00 0.00000E+00 0.00000E+00 0.00000E+00 0.00000E+00 0.00000E+00 0.00000E+00 2.66950E-03 1.78499E-03 0.00000E+00
      291  3.25818E-05 1.50558E-05 0.00000E+00 0.00000E+00 0.00000E+00 0.00000E+00 0.00000E+00 0.00000E+00 0.00000E+00 2.96588E-03 1.23006E-03 0.00000E+00
      292  3.41453E-05 7.97536E-06 0.00000E+00 0.00000E+00 0.00000E+00 0.00000E+00 0.00000E+00 0.00000E+00 0.00000E+00 3.14815E-03 6.27387E-04 0.00000E+00



 n o d a l   p r i n t   o u t   f o r   t i m e  s t e p     468                              ( at time 4.0095005E+00 )

 nodal point  x-disp     y-disp      z-disp      x-vel       y-vel       z-vel      x-accl      y-accl      z-accl      x-coor      y-coor      z-coor
      269  3.99144E-05 0.00000E+00 0.00000E+00 0.00000E+00 0.00000E+00 0.00000E+00 0.00000E+00 0.00000E+00 0.00000E+00 3.21491E-03 0.00000E+00 1.77600E-18
      285  0.00000E+00 4.31158E-05 0.00000E+00 0.00000E+00 0.00000E+00 0.00000E+00 0.00000E+00 0.00000E+00 0.00000E+00 1.94400E-19 3.21812E-03 0.00000E+00
      286  8.50524E-06 4.12526E-05 0.00000E+00 0.00000E+00 0.00000E+00 0.00000E+00 0.00000E+00 0.00000E+00 0.00000E+00 6.27917E-04 3.15525E-03 0.00000E+00
      287  1.68423E-05 3.92182E-05 0.00000E+00 0.00000E+00 0.00000E+00 0.00000E+00 0.00000E+00 0.00000E+00 0.00000E+00 1.23184E-03 2.97252E-03 0.00000E+00
      288  2.43370E-05 3.56763E-05 0.00000E+00 0.00000E+00 0.00000E+00 0.00000E+00 0.00000E+00 0.00000E+00 0.00000E+00 1.78824E-03 2.67558E-03 0.00000E+00
      289  3.19443E-05 3.22875E-05 0.00000E+00 0.00000E+00 0.00000E+00 0.00000E+00 0.00000E+00 0.00000E+00 0.00000E+00 2.27704E-03 2.27739E-03 0.00000E+00
      290  3.64813E-05 2.58099E-05 0.00000E+00 0.00000E+00 0.00000E+00 0.00000E+00 0.00000E+00 0.00000E+00 0.00000E+00 2.67638E-03 1.78971E-03 0.00000E+00
      291  4.01967E-05 1.84084E-05 0.00000E+00 0.00000E+00 0.00000E+00 0.00000E+00 0.00000E+00 0.00000E+00 0.00000E+00 2.97350E-03 1.23341E-03 0.00000E+00
      292  4.22651E-05 9.74406E-06 0.00000E+00 0.00000E+00 0.00000E+00 0.00000E+00 0.00000E+00 0.00000E+00 0.00000E+00 3.15627E-03 6.29156E-04 0.00000E+00



 n o d a l   p r i n t   o u t   f o r   t i m e  s t e p     484                              ( at time 5.0892757E+00 )

 nodal point  x-disp     y-disp      z-disp      x-vel       y-vel       z-vel      x-accl      y-accl      z-accl      x-coor      y-coor      z-coor
      269  5.59562E-05 0.00000E+00 0.00000E+00 0.00000E+00 0.00000E+00 0.00000E+00 0.00000E+00 0.00000E+00 0.00000E+00 3.23096E-03 0.00000E+00 1.77600E-18
      285  0.00000E+00 5.94713E-05 0.00000E+00 0.00000E+00 0.00000E+00 0.00000E+00 0.00000E+00 0.00000E+00 0.00000E+00 1.94400E-19 3.23447E-03 0.00000E+00
      286  1.18092E-05 5.71473E-05 0.00000E+00 0.00000E+00 0.00000E+00 0.00000E+00 0.00000E+00 0.00000E+00 0.00000E+00 6.31221E-04 3.17115E-03 0.00000E+00
      287  2.32828E-05 5.41942E-05 0.00000E+00 0.00000E+00 0.00000E+00 0.00000E+00 0.00000E+00 0.00000E+00 0.00000E+00 1.23828E-03 2.98749E-03 0.00000E+00
      288  3.35579E-05 4.91721E-05 0.00000E+00 0.00000E+00 0.00000E+00 0.00000E+00 0.00000E+00 0.00000E+00 0.00000E+00 1.79746E-03 2.68907E-03 0.00000E+00
      289  4.35624E-05 4.39115E-05 0.00000E+00 0.00000E+00 0.00000E+00 0.00000E+00 0.00000E+00 0.00000E+00 0.00000E+00 2.28866E-03 2.28901E-03 0.00000E+00
      290  4.99510E-05 3.50912E-05 0.00000E+00 0.00000E+00 0.00000E+00 0.00000E+00 0.00000E+00 0.00000E+00 0.00000E+00 2.68985E-03 1.79899E-03 0.00000E+00
      291  5.51588E-05 2.50031E-05 0.00000E+00 0.00000E+00 0.00000E+00 0.00000E+00 0.00000E+00 0.00000E+00 0.00000E+00 2.98846E-03 1.24000E-03 0.00000E+00
      292  5.82628E-05 1.32198E-05 0.00000E+00 0.00000E+00 0.00000E+00 0.00000E+00 0.00000E+00 0.00000E+00 0.00000E+00 3.17226E-03 6.32632E-04 0.00000E+00



 n o d a l   p r i n t   o u t   f o r   t i m e  s t e p     500                              ( at time 6.1690508E+00 )

 nodal point  x-disp     y-disp      z-disp      x-vel       y-vel       z-vel      x-accl      y-accl      z-accl      x-coor      y-coor      z-coor
      269  7.18213E-05 0.00000E+00 0.00000E+00 0.00000E+00 0.00000E+00 0.00000E+00 0.00000E+00 0.00000E+00 0.00000E+00 3.24682E-03 0.00000E+00 1.77600E-18
      285  0.00000E+00 7.56091E-05 0.00000E+00 0.00000E+00 0.00000E+00 0.00000E+00 0.00000E+00 0.00000E+00 0.00000E+00 1.94400E-19 3.25061E-03 0.00000E+00
      286  1.50799E-05 7.28678E-05 0.00000E+00 0.00000E+00 0.00000E+00 0.00000E+00 0.00000E+00 0.00000E+00 0.00000E+00 6.34492E-04 3.18687E-03 0.00000E+00
      287  2.96611E-05 6.90025E-05 0.00000E+00 0.00000E+00 0.00000E+00 0.00000E+00 0.00000E+00 0.00000E+00 0.00000E+00 1.24466E-03 3.00230E-03 0.00000E+00
      288  4.26932E-05 6.24701E-05 0.00000E+00 0.00000E+00 0.00000E+00 0.00000E+00 0.00000E+00 0.00000E+00 0.00000E+00 1.80659E-03 2.70237E-03 0.00000E+00
      289  5.50108E-05 5.52635E-05 0.00000E+00 0.00000E+00 0.00000E+00 0.00000E+00 0.00000E+00 0.00000E+00 0.00000E+00 2.30011E-03 2.30036E-03 0.00000E+00
      290  6.32220E-05 4.41361E-05 0.00000E+00 0.00000E+00 0.00000E+00 0.00000E+00 0.00000E+00 0.00000E+00 0.00000E+00 2.70312E-03 1.80804E-03 0.00000E+00
      291  6.98538E-05 3.13966E-05 0.00000E+00 0.00000E+00 0.00000E+00 0.00000E+00 0.00000E+00 0.00000E+00 0.00000E+00 3.00315E-03 1.24640E-03 0.00000E+00
      292  7.40235E-05 1.65880E-05 0.00000E+00 0.00000E+00 0.00000E+00 0.00000E+00 0.00000E+00 0.00000E+00 0.00000E+00 3.18802E-03 6.36000E-04 0.00000E+00



 n o d a l   p r i n t   o u t   f o r   t i m e  s t e p     516                              ( at time 7.2488260E+00 )

 nodal point  x-disp     y-disp      z-disp      x-vel       y-vel       z-vel      x-accl      y-accl      z-accl      x-coor      y-coor      z-coor
      269  8.77103E-05 0.00000E+00 0.00000E+00 0.00000E+00 0.00000E+00 0.00000E+00 0.00000E+00 0.00000E+00 0.00000E+00 3.26271E-03 0.00000E+00 1.77600E-18
      285  0.00000E+00 9.16237E-05 0.00000E+00 0.00000E+00 0.00000E+00 0.00000E+00 0.00000E+00 0.00000E+00 0.00000E+00 1.94400E-19 3.26662E-03 0.00000E+00
      286  1.82937E-05 8.84684E-05 0.00000E+00 0.00000E+00 0.00000E+00 0.00000E+00 0.00000E+00 0.00000E+00 0.00000E+00 6.37706E-04 3.20247E-03 0.00000E+00
      287  3.59253E-05 8.37097E-05 0.00000E+00 0.00000E+00 0.00000E+00 0.00000E+00 0.00000E+00 0.00000E+00 0.00000E+00 1.25093E-03 3.01701E-03 0.00000E+00
      288  5.17089E-05 7.56812E-05 0.00000E+00 0.00000E+00 0.00000E+00 0.00000E+00 0.00000E+00 0.00000E+00 0.00000E+00 1.81561E-03 2.71558E-03 0.00000E+00
      289  6.63169E-05 6.65602E-05 0.00000E+00 0.00000E+00 0.00000E+00 0.00000E+00 0.00000E+00 0.00000E+00 0.00000E+00 2.31142E-03 2.31166E-03 0.00000E+00
      290  7.64391E-05 5.31272E-05 0.00000E+00 0.00000E+00 0.00000E+00 0.00000E+00 0.00000E+00 0.00000E+00 0.00000E+00 2.71634E-03 1.81703E-03 0.00000E+00
      291  8.44616E-05 3.77061E-05 0.00000E+00 0.00000E+00 0.00000E+00 0.00000E+00 0.00000E+00 0.00000E+00 0.00000E+00 3.01776E-03 1.25271E-03 0.00000E+00
      292  8.97464E-05 1.99000E-05 0.00000E+00 0.00000E+00 0.00000E+00 0.00000E+00 0.00000E+00 0.00000E+00 0.00000E+00 3.20375E-03 6.39312E-04 0.00000E+00



 n o d a l   p r i n t   o u t   f o r   t i m e  s t e p     530                              ( at time 8.6443777E+00 )

 nodal point  x-disp     y-disp      z-disp      x-vel       y-vel       z-vel      x-accl      y-accl      z-accl      x-coor      y-coor      z-coor
      269  1.06574E-04 0.00000E+00 0.00000E+00 0.00000E+00 0.00000E+00 0.00000E+00 0.00000E+00 0.00000E+00 0.00000E+00 3.28157E-03 0.00000E+00 1.77600E-18
      285  0.00000E+00 1.10389E-04 0.00000E+00 0.00000E+00 0.00000E+00 0.00000E+00 0.00000E+00 0.00000E+00 0.00000E+00 1.94400E-19 3.28539E-03 0.00000E+00
      286  2.20408E-05 1.06821E-04 0.00000E+00 0.00000E+00 0.00000E+00 0.00000E+00 0.00000E+00 0.00000E+00 0.00000E+00 6.41453E-04 3.22082E-03 0.00000E+00
      287  4.32395E-05 1.01023E-04 0.00000E+00 0.00000E+00 0.00000E+00 0.00000E+00 0.00000E+00 0.00000E+00 0.00000E+00 1.25824E-03 3.03432E-03 0.00000E+00
      288  6.21794E-05 9.13231E-05 0.00000E+00 0.00000E+00 0.00000E+00 0.00000E+00 0.00000E+00 0.00000E+00 0.00000E+00 1.82608E-03 2.73122E-03 0.00000E+00
      289  7.94880E-05 7.99006E-05 0.00000E+00 0.00000E+00 0.00000E+00 0.00000E+00 0.00000E+00 0.00000E+00 0.00000E+00 2.32459E-03 2.32500E-03 0.00000E+00
      290  9.18570E-05 6.37493E-05 0.00000E+00 0.00000E+00 0.00000E+00 0.00000E+00 0.00000E+00 0.00000E+00 0.00000E+00 2.73176E-03 1.82765E-03 0.00000E+00
      291  1.01735E-04 4.51908E-05 0.00000E+00 0.00000E+00 0.00000E+00 0.00000E+00 0.00000E+00 0.00000E+00 0.00000E+00 3.03503E-03 1.26019E-03 0.00000E+00
      292  1.08224E-04 2.38125E-05 0.00000E+00 0.00000E+00 0.00000E+00 0.00000E+00 0.00000E+00 0.00000E+00 0.00000E+00 3.22222E-03 6.43224E-04 0.00000E+00



 n o d a l   p r i n t   o u t   f o r   t i m e  s t e p     538                              ( at time 9.5000419E+00 )

 nodal point  x-disp     y-disp      z-disp      x-vel       y-vel       z-vel      x-accl      y-accl      z-accl      x-coor      y-coor      z-coor
      269  1.19615E-04 0.00000E+00 0.00000E+00 0.00000E+00 0.00000E+00 0.00000E+00 0.00000E+00 0.00000E+00 0.00000E+00 3.29461E-03 0.00000E+00 1.77600E-18
      285  0.00000E+00 1.22346E-04 0.00000E+00 0.00000E+00 0.00000E+00 0.00000E+00 0.00000E+00 0.00000E+00 0.00000E+00 1.94400E-19 3.29735E-03 0.00000E+00
      286  2.43523E-05 1.18507E-04 0.00000E+00 0.00000E+00 0.00000E+00 0.00000E+00 0.00000E+00 0.00000E+00 0.00000E+00 6.43764E-04 3.23251E-03 0.00000E+00
      287  4.77661E-05 1.12101E-04 0.00000E+00 0.00000E+00 0.00000E+00 0.00000E+00 0.00000E+00 0.00000E+00 0.00000E+00 1.26277E-03 3.04540E-03 0.00000E+00
      288  6.87502E-05 1.01410E-04 0.00000E+00 0.00000E+00 0.00000E+00 0.00000E+00 0.00000E+00 0.00000E+00 0.00000E+00 1.83265E-03 2.74131E-03 0.00000E+00
      289  8.78530E-05 8.85756E-05 0.00000E+00 0.00000E+00 0.00000E+00 0.00000E+00 0.00000E+00 0.00000E+00 0.00000E+00 2.33295E-03 2.33368E-03 0.00000E+00
      290  1.01738E-04 7.07737E-05 0.00000E+00 0.00000E+00 0.00000E+00 0.00000E+00 0.00000E+00 0.00000E+00 0.00000E+00 2.74164E-03 1.83467E-03 0.00000E+00
      291  1.12836E-04 5.04015E-05 0.00000E+00 0.00000E+00 0.00000E+00 0.00000E+00 0.00000E+00 0.00000E+00 0.00000E+00 3.04614E-03 1.26540E-03 0.00000E+00
      292  1.20566E-04 2.72981E-05 0.00000E+00 0.00000E+00 0.00000E+00 0.00000E+00 0.00000E+00 0.00000E+00 0.00000E+00 3.23457E-03 6.46710E-04 0.00000E+00



 n o d a l   p r i n t   o u t   f o r   t i m e  s t e p     546                              ( at time 1.0355706E+01 )

 nodal point  x-disp     y-disp      z-disp      x-vel       y-vel       z-vel      x-accl      y-accl      z-accl      x-coor      y-coor      z-coor
      269  1.31682E-04 0.00000E+00 0.00000E+00 0.00000E+00 0.00000E+00 0.00000E+00 0.00000E+00 0.00000E+00 0.00000E+00 3.30668E-03 0.00000E+00 1.77600E-18
      285  0.00000E+00 1.34206E-04 0.00000E+00 0.00000E+00 0.00000E+00 0.00000E+00 0.00000E+00 0.00000E+00 0.00000E+00 1.94400E-19 3.30921E-03 0.00000E+00
      286  2.67375E-05 1.30122E-04 0.00000E+00 0.00000E+00 0.00000E+00 0.00000E+00 0.00000E+00 0.00000E+00 0.00000E+00 6.46149E-04 3.24412E-03 0.00000E+00
      287  5.23837E-05 1.23005E-04 0.00000E+00 0.00000E+00 0.00000E+00 0.00000E+00 0.00000E+00 0.00000E+00 0.00000E+00 1.26738E-03 3.05631E-03 0.00000E+00
      288  7.53975E-05 1.11256E-04 0.00000E+00 0.00000E+00 0.00000E+00 0.00000E+00 0.00000E+00 0.00000E+00 0.00000E+00 1.83930E-03 2.75116E-03 0.00000E+00
      289  9.62049E-05 9.69735E-05 0.00000E+00 0.00000E+00 0.00000E+00 0.00000E+00 0.00000E+00 0.00000E+00 0.00000E+00 2.34130E-03 2.34207E-03 0.00000E+00
      290  1.11500E-04 7.74975E-05 0.00000E+00 0.00000E+00 0.00000E+00 0.00000E+00 0.00000E+00 0.00000E+00 0.00000E+00 2.75140E-03 1.84140E-03 0.00000E+00
      291  1.23782E-04 5.52003E-05 0.00000E+00 0.00000E+00 0.00000E+00 0.00000E+00 0.00000E+00 0.00000E+00 0.00000E+00 3.05708E-03 1.27020E-03 0.00000E+00
      292  1.32283E-04 2.99654E-05 0.00000E+00 0.00000E+00 0.00000E+00 0.00000E+00 0.00000E+00 0.00000E+00 0.00000E+00 3.24628E-03 6.49377E-04 0.00000E+00



 n o d a l   p r i n t   o u t   f o r   t i m e  s t e p     555                              ( at time 1.1211370E+01 )

 nodal point  x-disp     y-disp      z-disp      x-vel       y-vel       z-vel      x-accl      y-accl      z-accl      x-coor      y-coor      z-coor
      269  1.44509E-04 0.00000E+00 0.00000E+00 0.00000E+00 0.00000E+00 0.00000E+00 0.00000E+00 0.00000E+00 0.00000E+00 3.31951E-03 0.00000E+00 1.77600E-18
      285  0.00000E+00 1.46926E-04 0.00000E+00 0.00000E+00 0.00000E+00 0.00000E+00 0.00000E+00 0.00000E+00 0.00000E+00 1.94400E-19 3.32193E-03 0.00000E+00
      286  2.92858E-05 1.42561E-04 0.00000E+00 0.00000E+00 0.00000E+00 0.00000E+00 0.00000E+00 0.00000E+00 0.00000E+00 6.48698E-04 3.25656E-03 0.00000E+00
      287  5.73693E-05 1.34714E-04 0.00000E+00 0.00000E+00 0.00000E+00 0.00000E+00 0.00000E+00 0.00000E+00 0.00000E+00 1.27237E-03 3.06801E-03 0.00000E+00
      288  8.26472E-05 1.21757E-04 0.00000E+00 0.00000E+00 0.00000E+00 0.00000E+00 0.00000E+00 0.00000E+00 0.00000E+00 1.84655E-03 2.76166E-03 0.00000E+00
      289  1.05186E-04 1.05890E-04 0.00000E+00 0.00000E+00 0.00000E+00 0.00000E+00 0.00000E+00 0.00000E+00 0.00000E+00 2.35029E-03 2.35099E-03 0.00000E+00
      290  1.22040E-04 8.46965E-05 0.00000E+00 0.00000E+00 0.00000E+00 0.00000E+00 0.00000E+00 0.00000E+00 0.00000E+00 2.76194E-03 1.84860E-03 0.00000E+00
      291  1.35486E-04 6.02291E-05 0.00000E+00 0.00000E+00 0.00000E+00 0.00000E+00 0.00000E+00 0.00000E+00 0.00000E+00 3.06879E-03 1.27523E-03 0.00000E+00
      292  1.44815E-04 3.27049E-05 0.00000E+00 0.00000E+00 0.00000E+00 0.00000E+00 0.00000E+00 0.00000E+00 0.00000E+00 3.25881E-03 6.52117E-04 0.00000E+00



 n o d a l   p r i n t   o u t   f o r   t i m e  s t e p     561                              ( at time 1.2067034E+01 )

 nodal point  x-disp     y-disp      z-disp      x-vel       y-vel       z-vel      x-accl      y-accl      z-accl      x-coor      y-coor      z-coor
      269  1.54788E-04 0.00000E+00 0.00000E+00 0.00000E+00 0.00000E+00 0.00000E+00 0.00000E+00 0.00000E+00 0.00000E+00 3.32979E-03 0.00000E+00 1.77600E-18
      285  0.00000E+00 1.56892E-04 0.00000E+00 0.00000E+00 0.00000E+00 0.00000E+00 0.00000E+00 0.00000E+00 0.00000E+00 1.94400E-19 3.33189E-03 0.00000E+00
      286  3.11201E-05 1.52368E-04 0.00000E+00 0.00000E+00 0.00000E+00 0.00000E+00 0.00000E+00 0.00000E+00 0.00000E+00 6.50532E-04 3.26637E-03 0.00000E+00
      287  6.10517E-05 1.44102E-04 0.00000E+00 0.00000E+00 0.00000E+00 0.00000E+00 0.00000E+00 0.00000E+00 0.00000E+00 1.27605E-03 3.07740E-03 0.00000E+00
      288  8.81320E-05 1.30400E-04 0.00000E+00 0.00000E+00 0.00000E+00 0.00000E+00 0.00000E+00 0.00000E+00 0.00000E+00 1.85203E-03 2.77030E-03 0.00000E+00
      289  1.12228E-04 1.13292E-04 0.00000E+00 0.00000E+00 0.00000E+00 0.00000E+00 0.00000E+00 0.00000E+00 0.00000E+00 2.35733E-03 2.35839E-03 0.00000E+00
      290  1.30433E-04 9.06463E-05 0.00000E+00 0.00000E+00 0.00000E+00 0.00000E+00 0.00000E+00 0.00000E+00 0.00000E+00 2.77033E-03 1.85455E-03 0.00000E+00
      291  1.44909E-04 6.43140E-05 0.00000E+00 0.00000E+00 0.00000E+00 0.00000E+00 0.00000E+00 0.00000E+00 0.00000E+00 3.07821E-03 1.27931E-03 0.00000E+00
      292  1.54916E-04 3.48332E-05 0.00000E+00 0.00000E+00 0.00000E+00 0.00000E+00 0.00000E+00 0.00000E+00 0.00000E+00 3.26892E-03 6.54245E-04 0.00000E+00



 n o d a l   p r i n t   o u t   f o r   t i m e  s t e p     569                              ( at time 1.3423171E+01 )

 nodal point  x-disp     y-disp      z-disp      x-vel       y-vel       z-vel      x-accl      y-accl      z-accl      x-coor      y-coor      z-coor
      269  1.73958E-04 0.00000E+00 0.00000E+00 0.00000E+00 0.00000E+00 0.00000E+00 0.00000E+00 0.00000E+00 0.00000E+00 3.34896E-03 0.00000E+00 1.77600E-18
      285  0.00000E+00 1.75416E-04 0.00000E+00 0.00000E+00 0.00000E+00 0.00000E+00 0.00000E+00 0.00000E+00 0.00000E+00 1.94400E-19 3.35042E-03 0.00000E+00
      286  3.47088E-05 1.70546E-04 0.00000E+00 0.00000E+00 0.00000E+00 0.00000E+00 0.00000E+00 0.00000E+00 0.00000E+00 6.54121E-04 3.28455E-03 0.00000E+00
      287  6.80141E-05 1.61225E-04 0.00000E+00 0.00000E+00 0.00000E+00 0.00000E+00 0.00000E+00 0.00000E+00 0.00000E+00 1.28301E-03 3.09453E-03 0.00000E+00
      288  9.82644E-05 1.46084E-04 0.00000E+00 0.00000E+00 0.00000E+00 0.00000E+00 0.00000E+00 0.00000E+00 0.00000E+00 1.86216E-03 2.78598E-03 0.00000E+00
      289  1.25031E-04 1.26579E-04 0.00000E+00 0.00000E+00 0.00000E+00 0.00000E+00 0.00000E+00 0.00000E+00 0.00000E+00 2.37013E-03 2.37168E-03 0.00000E+00
      290  1.45584E-04 1.01267E-04 0.00000E+00 0.00000E+00 0.00000E+00 0.00000E+00 0.00000E+00 0.00000E+00 0.00000E+00 2.78548E-03 1.86517E-03 0.00000E+00
      291  1.61950E-04 7.19063E-05 0.00000E+00 0.00000E+00 0.00000E+00 0.00000E+00 0.00000E+00 0.00000E+00 0.00000E+00 3.09525E-03 1.28691E-03 0.00000E+00
      292  1.73300E-04 3.91406E-05 0.00000E+00 0.00000E+00 0.00000E+00 0.00000E+00 0.00000E+00 0.00000E+00 0.00000E+00 3.28730E-03 6.58553E-04 0.00000E+00



 n o d a l   p r i n t   o u t   f o r   t i m e  s t e p     577                              ( at time 1.4779307E+01 )

 nodal point  x-disp     y-disp      z-disp      x-vel       y-vel       z-vel      x-accl      y-accl      z-accl      x-coor      y-coor      z-coor
      269  1.93685E-04 0.00000E+00 0.00000E+00 0.00000E+00 0.00000E+00 0.00000E+00 0.00000E+00 0.00000E+00 0.00000E+00 3.36869E-03 0.00000E+00 1.77600E-18
      285  0.00000E+00 1.94210E-04 0.00000E+00 0.00000E+00 0.00000E+00 0.00000E+00 0.00000E+00 0.00000E+00 0.00000E+00 1.94400E-19 3.36921E-03 0.00000E+00
      286  3.81777E-05 1.89093E-04 0.00000E+00 0.00000E+00 0.00000E+00 0.00000E+00 0.00000E+00 0.00000E+00 0.00000E+00 6.57590E-04 3.30309E-03 0.00000E+00
      287  7.49835E-05 1.78864E-04 0.00000E+00 0.00000E+00 0.00000E+00 0.00000E+00 0.00000E+00 0.00000E+00 0.00000E+00 1.28998E-03 3.11216E-03 0.00000E+00
      288  1.08494E-04 1.62141E-04 0.00000E+00 0.00000E+00 0.00000E+00 0.00000E+00 0.00000E+00 0.00000E+00 0.00000E+00 1.87239E-03 2.80204E-03 0.00000E+00
      289  1.37936E-04 1.40392E-04 0.00000E+00 0.00000E+00 0.00000E+00 0.00000E+00 0.00000E+00 0.00000E+00 0.00000E+00 2.38304E-03 2.38549E-03 0.00000E+00
      290  1.61109E-04 1.12573E-04 0.00000E+00 0.00000E+00 0.00000E+00 0.00000E+00 0.00000E+00 0.00000E+00 0.00000E+00 2.80101E-03 1.87647E-03 0.00000E+00
      291  1.79487E-04 8.01056E-05 0.00000E+00 0.00000E+00 0.00000E+00 0.00000E+00 0.00000E+00 0.00000E+00 0.00000E+00 3.11279E-03 1.29511E-03 0.00000E+00
      292  1.92415E-04 4.35473E-05 0.00000E+00 0.00000E+00 0.00000E+00 0.00000E+00 0.00000E+00 0.00000E+00 0.00000E+00 3.30642E-03 6.62959E-04 0.00000E+00



 n o d a l   p r i n t   o u t   f o r   t i m e  s t e p     586                              ( at time 1.6135443E+01 )

 nodal point  x-disp     y-disp      z-disp      x-vel       y-vel       z-vel      x-accl      y-accl      z-accl      x-coor      y-coor      z-coor
      269  2.15176E-04 0.00000E+00 0.00000E+00 0.00000E+00 0.00000E+00 0.00000E+00 0.00000E+00 0.00000E+00 0.00000E+00 3.39018E-03 0.00000E+00 1.77600E-18
      285  0.00000E+00 2.14792E-04 0.00000E+00 0.00000E+00 0.00000E+00 0.00000E+00 0.00000E+00 0.00000E+00 0.00000E+00 1.94400E-19 3.38979E-03 0.00000E+00
      286  4.21870E-05 2.09386E-04 0.00000E+00 0.00000E+00 0.00000E+00 0.00000E+00 0.00000E+00 0.00000E+00 0.00000E+00 6.61599E-04 3.32339E-03 0.00000E+00
      287  8.28624E-05 1.98030E-04 0.00000E+00 0.00000E+00 0.00000E+00 0.00000E+00 0.00000E+00 0.00000E+00 0.00000E+00 1.29786E-03 3.13133E-03 0.00000E+00
      288  1.19928E-04 1.79442E-04 0.00000E+00 0.00000E+00 0.00000E+00 0.00000E+00 0.00000E+00 0.00000E+00 0.00000E+00 1.88383E-03 2.81934E-03 0.00000E+00
      289  1.52250E-04 1.55008E-04 0.00000E+00 0.00000E+00 0.00000E+00 0.00000E+00 0.00000E+00 0.00000E+00 0.00000E+00 2.39735E-03 2.40011E-03 0.00000E+00
      290  1.77848E-04 1.24320E-04 0.00000E+00 0.00000E+00 0.00000E+00 0.00000E+00 0.00000E+00 0.00000E+00 0.00000E+00 2.81775E-03 1.88822E-03 0.00000E+00
      291  1.98262E-04 8.85823E-05 0.00000E+00 0.00000E+00 0.00000E+00 0.00000E+00 0.00000E+00 0.00000E+00 0.00000E+00 3.13156E-03 1.30358E-03 0.00000E+00
      292  2.12898E-04 4.80630E-05 0.00000E+00 0.00000E+00 0.00000E+00 0.00000E+00 0.00000E+00 0.00000E+00 0.00000E+00 3.32690E-03 6.67475E-04 0.00000E+00



 n o d a l   p r i n t   o u t   f o r   t i m e  s t e p     594                              ( at time 1.7491580E+01 )

 nodal point  x-disp     y-disp      z-disp      x-vel       y-vel       z-vel      x-accl      y-accl      z-accl      x-coor      y-coor      z-coor
      269  2.34804E-04 0.00000E+00 0.00000E+00 0.00000E+00 0.00000E+00 0.00000E+00 0.00000E+00 0.00000E+00 0.00000E+00 3.40980E-03 0.00000E+00 1.77600E-18
      285  0.00000E+00 2.33466E-04 0.00000E+00 0.00000E+00 0.00000E+00 0.00000E+00 0.00000E+00 0.00000E+00 0.00000E+00 1.94400E-19 3.40847E-03 0.00000E+00
      286  4.58174E-05 2.27791E-04 0.00000E+00 0.00000E+00 0.00000E+00 0.00000E+00 0.00000E+00 0.00000E+00 0.00000E+00 6.65229E-04 3.34179E-03 0.00000E+00
      287  9.02953E-05 2.15394E-04 0.00000E+00 0.00000E+00 0.00000E+00 0.00000E+00 0.00000E+00 0.00000E+00 0.00000E+00 1.30530E-03 3.14869E-03 0.00000E+00
      288  1.30611E-04 1.95116E-04 0.00000E+00 0.00000E+00 0.00000E+00 0.00000E+00 0.00000E+00 0.00000E+00 0.00000E+00 1.89451E-03 2.83502E-03 0.00000E+00
      289  1.65449E-04 1.68334E-04 0.00000E+00 0.00000E+00 0.00000E+00 0.00000E+00 0.00000E+00 0.00000E+00 0.00000E+00 2.41055E-03 2.41343E-03 0.00000E+00
      290  1.93454E-04 1.35101E-04 0.00000E+00 0.00000E+00 0.00000E+00 0.00000E+00 0.00000E+00 0.00000E+00 0.00000E+00 2.83335E-03 1.89900E-03 0.00000E+00
      291  2.16016E-04 9.62920E-05 0.00000E+00 0.00000E+00 0.00000E+00 0.00000E+00 0.00000E+00 0.00000E+00 0.00000E+00 3.14932E-03 1.31129E-03 0.00000E+00
      292  2.31852E-04 5.19770E-05 0.00000E+00 0.00000E+00 0.00000E+00 0.00000E+00 0.00000E+00 0.00000E+00 0.00000E+00 3.34585E-03 6.71389E-04 0.00000E+00



 n o d a l   p r i n t   o u t   f o r   t i m e  s t e p     602                              ( at time 1.8847716E+01 )

 nodal point  x-disp     y-disp      z-disp      x-vel       y-vel       z-vel      x-accl      y-accl      z-accl      x-coor      y-coor      z-coor
      269  2.55660E-04 0.00000E+00 0.00000E+00 0.00000E+00 0.00000E+00 0.00000E+00 0.00000E+00 0.00000E+00 0.00000E+00 3.43066E-03 0.00000E+00 1.77600E-18
      285  0.00000E+00 2.52855E-04 0.00000E+00 0.00000E+00 0.00000E+00 0.00000E+00 0.00000E+00 0.00000E+00 0.00000E+00 1.94400E-19 3.42786E-03 0.00000E+00
      286  4.96468E-05 2.46812E-04 0.00000E+00 0.00000E+00 0.00000E+00 0.00000E+00 0.00000E+00 0.00000E+00 0.00000E+00 6.69059E-04 3.36081E-03 0.00000E+00
      287  9.80439E-05 2.33493E-04 0.00000E+00 0.00000E+00 0.00000E+00 0.00000E+00 0.00000E+00 0.00000E+00 0.00000E+00 1.31304E-03 3.16679E-03 0.00000E+00
      288  1.41817E-04 2.11483E-04 0.00000E+00 0.00000E+00 0.00000E+00 0.00000E+00 0.00000E+00 0.00000E+00 0.00000E+00 1.90572E-03 2.85138E-03 0.00000E+00
      289  1.79534E-04 1.82250E-04 0.00000E+00 0.00000E+00 0.00000E+00 0.00000E+00 0.00000E+00 0.00000E+00 0.00000E+00 2.42463E-03 2.42735E-03 0.00000E+00
      290  2.10093E-04 1.46189E-04 0.00000E+00 0.00000E+00 0.00000E+00 0.00000E+00 0.00000E+00 0.00000E+00 0.00000E+00 2.84999E-03 1.91009E-03 0.00000E+00
      291  2.34672E-04 1.04370E-04 0.00000E+00 0.00000E+00 0.00000E+00 0.00000E+00 0.00000E+00 0.00000E+00 0.00000E+00 3.16797E-03 1.31937E-03 0.00000E+00
      292  2.51902E-04 5.71789E-05 0.00000E+00 0.00000E+00 0.00000E+00 0.00000E+00 0.00000E+00 0.00000E+00 0.00000E+00 3.36590E-03 6.76591E-04 0.00000E+00



 n o d a l   p r i n t   o u t   f o r   t i m e  s t e p     610                              ( at time 2.0203852E+01 )

 nodal point  x-disp     y-disp      z-disp      x-vel       y-vel       z-vel      x-accl      y-accl      z-accl      x-coor      y-coor      z-coor
      269  2.75834E-04 0.00000E+00 0.00000E+00 0.00000E+00 0.00000E+00 0.00000E+00 0.00000E+00 0.00000E+00 0.00000E+00 3.45083E-03 0.00000E+00 1.77600E-18
      285  0.00000E+00 2.72121E-04 0.00000E+00 0.00000E+00 0.00000E+00 0.00000E+00 0.00000E+00 0.00000E+00 0.00000E+00 1.94400E-19 3.44712E-03 0.00000E+00
      286  5.38767E-05 2.65587E-04 0.00000E+00 0.00000E+00 0.00000E+00 0.00000E+00 0.00000E+00 0.00000E+00 0.00000E+00 6.73289E-04 3.37959E-03 0.00000E+00
      287  1.06083E-04 2.51329E-04 0.00000E+00 0.00000E+00 0.00000E+00 0.00000E+00 0.00000E+00 0.00000E+00 0.00000E+00 1.32108E-03 3.18463E-03 0.00000E+00
      288  1.53182E-04 2.27401E-04 0.00000E+00 0.00000E+00 0.00000E+00 0.00000E+00 0.00000E+00 0.00000E+00 0.00000E+00 1.91708E-03 2.86730E-03 0.00000E+00
      289  1.93871E-04 1.95643E-04 0.00000E+00 0.00000E+00 0.00000E+00 0.00000E+00 0.00000E+00 0.00000E+00 0.00000E+00 2.43897E-03 2.44074E-03 0.00000E+00
      290  2.26606E-04 1.56923E-04 0.00000E+00 0.00000E+00 0.00000E+00 0.00000E+00 0.00000E+00 0.00000E+00 0.00000E+00 2.86651E-03 1.92082E-03 0.00000E+00
      291  2.53154E-04 1.12258E-04 0.00000E+00 0.00000E+00 0.00000E+00 0.00000E+00 0.00000E+00 0.00000E+00 0.00000E+00 3.18645E-03 1.32726E-03 0.00000E+00
      292  2.71935E-04 6.25127E-05 0.00000E+00 0.00000E+00 0.00000E+00 0.00000E+00 0.00000E+00 0.00000E+00 0.00000E+00 3.38593E-03 6.81925E-04 0.00000E+00



 n o d a l   p r i n t   o u t   f o r   t i m e  s t e p     618                              ( at time 2.1559988E+01 )

 nodal point  x-disp     y-disp      z-disp      x-vel       y-vel       z-vel      x-accl      y-accl      z-accl      x-coor      y-coor      z-coor
      269  2.97723E-04 0.00000E+00 0.00000E+00 0.00000E+00 0.00000E+00 0.00000E+00 0.00000E+00 0.00000E+00 0.00000E+00 3.47272E-03 0.00000E+00 1.77600E-18
      285  0.00000E+00 2.91501E-04 0.00000E+00 0.00000E+00 0.00000E+00 0.00000E+00 0.00000E+00 0.00000E+00 0.00000E+00 1.94400E-19 3.46650E-03 0.00000E+00
      286  5.80016E-05 2.84712E-04 0.00000E+00 0.00000E+00 0.00000E+00 0.00000E+00 0.00000E+00 0.00000E+00 0.00000E+00 6.77413E-04 3.39871E-03 0.00000E+00
      287  1.14242E-04 2.69391E-04 0.00000E+00 0.00000E+00 0.00000E+00 0.00000E+00 0.00000E+00 0.00000E+00 0.00000E+00 1.32924E-03 3.20269E-03 0.00000E+00
      288  1.64853E-04 2.43516E-04 0.00000E+00 0.00000E+00 0.00000E+00 0.00000E+00 0.00000E+00 0.00000E+00 0.00000E+00 1.92875E-03 2.88342E-03 0.00000E+00
      289  2.08875E-04 2.09408E-04 0.00000E+00 0.00000E+00 0.00000E+00 0.00000E+00 0.00000E+00 0.00000E+00 0.00000E+00 2.45397E-03 2.45451E-03 0.00000E+00
      290  2.43797E-04 1.68294E-04 0.00000E+00 0.00000E+00 0.00000E+00 0.00000E+00 0.00000E+00 0.00000E+00 0.00000E+00 2.88370E-03 1.93219E-03 0.00000E+00
      291  2.72799E-04 1.20978E-04 0.00000E+00 0.00000E+00 0.00000E+00 0.00000E+00 0.00000E+00 0.00000E+00 0.00000E+00 3.20610E-03 1.33598E-03 0.00000E+00
      292  2.93388E-04 6.83199E-05 0.00000E+00 0.00000E+00 0.00000E+00 0.00000E+00 0.00000E+00 0.00000E+00 0.00000E+00 3.40739E-03 6.87732E-04 0.00000E+00



 n o d a l   p r i n t   o u t   f o r   t i m e  s t e p     628                              ( at time 2.2916125E+01 )

 nodal point  x-disp     y-disp      z-disp      x-vel       y-vel       z-vel      x-accl      y-accl      z-accl      x-coor      y-coor      z-coor
      269  3.24906E-04 0.00000E+00 0.00000E+00 0.00000E+00 0.00000E+00 0.00000E+00 0.00000E+00 0.00000E+00 0.00000E+00 3.49991E-03 0.00000E+00 1.77600E-18
      285  0.00000E+00 3.15178E-04 0.00000E+00 0.00000E+00 0.00000E+00 0.00000E+00 0.00000E+00 0.00000E+00 0.00000E+00 1.94400E-19 3.49018E-03 0.00000E+00
      286  6.37641E-05 3.07901E-04 0.00000E+00 0.00000E+00 0.00000E+00 0.00000E+00 0.00000E+00 0.00000E+00 0.00000E+00 6.83176E-04 3.42190E-03 0.00000E+00
      287  1.25163E-04 2.91078E-04 0.00000E+00 0.00000E+00 0.00000E+00 0.00000E+00 0.00000E+00 0.00000E+00 0.00000E+00 1.34016E-03 3.22438E-03 0.00000E+00
      288  1.80290E-04 2.62603E-04 0.00000E+00 0.00000E+00 0.00000E+00 0.00000E+00 0.00000E+00 0.00000E+00 0.00000E+00 1.94419E-03 2.90250E-03 0.00000E+00
      289  2.28629E-04 2.25189E-04 0.00000E+00 0.00000E+00 0.00000E+00 0.00000E+00 0.00000E+00 0.00000E+00 0.00000E+00 2.47373E-03 2.47029E-03 0.00000E+00
      290  2.65211E-04 1.81702E-04 0.00000E+00 0.00000E+00 0.00000E+00 0.00000E+00 0.00000E+00 0.00000E+00 0.00000E+00 2.90511E-03 1.94560E-03 0.00000E+00
      291  2.96758E-04 1.32854E-04 0.00000E+00 0.00000E+00 0.00000E+00 0.00000E+00 0.00000E+00 0.00000E+00 0.00000E+00 3.23006E-03 1.34785E-03 0.00000E+00
      292  3.21906E-04 7.92722E-05 0.00000E+00 0.00000E+00 0.00000E+00 0.00000E+00 0.00000E+00 0.00000E+00 0.00000E+00 3.43591E-03 6.98684E-04 0.00000E+00



 n o d a l   p r i n t   o u t   f o r   t i m e  s t e p    1195                              ( at time 2.3051738E+01 )

 nodal point  x-disp     y-disp      z-disp      x-vel       y-vel       z-vel      x-accl      y-accl      z-accl      x-coor      y-coor      z-coor
      269  3.25565E-04 0.00000E+00 0.00000E+00 0.00000E+00 0.00000E+00 0.00000E+00 0.00000E+00 0.00000E+00 0.00000E+00 3.50057E-03 0.00000E+00 1.77600E-18
      285  0.00000E+00 3.15602E-04 0.00000E+00 0.00000E+00 0.00000E+00 0.00000E+00 0.00000E+00 0.00000E+00 0.00000E+00 1.94400E-19 3.49060E-03 0.00000E+00
      286  6.38733E-05 3.08415E-04 0.00000E+00 0.00000E+00 0.00000E+00 0.00000E+00 0.00000E+00 0.00000E+00 0.00000E+00 6.83285E-04 3.42241E-03 0.00000E+00
      287  1.25424E-04 2.91526E-04 0.00000E+00 0.00000E+00 0.00000E+00 0.00000E+00 0.00000E+00 0.00000E+00 0.00000E+00 1.34042E-03 3.22483E-03 0.00000E+00
      288  1.80700E-04 2.62845E-04 0.00000E+00 0.00000E+00 0.00000E+00 0.00000E+00 0.00000E+00 0.00000E+00 0.00000E+00 1.94460E-03 2.90274E-03 0.00000E+00
      289  2.28619E-04 2.25664E-04 0.00000E+00 0.00000E+00 0.00000E+00 0.00000E+00 0.00000E+00 0.00000E+00 0.00000E+00 2.47372E-03 2.47076E-03 0.00000E+00
      290  2.65475E-04 1.82253E-04 0.00000E+00 0.00000E+00 0.00000E+00 0.00000E+00 0.00000E+00 0.00000E+00 0.00000E+00 2.90538E-03 1.94615E-03 0.00000E+00
      291  2.97255E-04 1.33473E-04 0.00000E+00 0.00000E+00 0.00000E+00 0.00000E+00 0.00000E+00 0.00000E+00 0.00000E+00 3.23055E-03 1.34847E-03 0.00000E+00
      292  3.22600E-04 7.94407E-05 0.00000E+00 0.00000E+00 0.00000E+00 0.00000E+00 0.00000E+00 0.00000E+00 0.00000E+00 3.43660E-03 6.98853E-04 0.00000E+00



 n o d a l   p r i n t   o u t   f o r   t i m e  s t e p    1214                              ( at time 2.4147205E+01 )

 nodal point  x-disp     y-disp      z-disp      x-vel       y-vel       z-vel      x-accl      y-accl      z-accl      x-coor      y-coor      z-coor
      269  3.38690E-04 0.00000E+00 0.00000E+00 0.00000E+00 0.00000E+00 0.00000E+00 0.00000E+00 0.00000E+00 0.00000E+00 3.51369E-03 0.00000E+00 1.77600E-18
      285  0.00000E+00 3.27902E-04 0.00000E+00 0.00000E+00 0.00000E+00 0.00000E+00 0.00000E+00 0.00000E+00 0.00000E+00 1.94400E-19 3.50290E-03 0.00000E+00
      286  6.68163E-05 3.20369E-04 0.00000E+00 0.00000E+00 0.00000E+00 0.00000E+00 0.00000E+00 0.00000E+00 0.00000E+00 6.86228E-04 3.43437E-03 0.00000E+00
      287  1.31013E-04 3.02249E-04 0.00000E+00 0.00000E+00 0.00000E+00 0.00000E+00 0.00000E+00 0.00000E+00 0.00000E+00 1.34601E-03 3.23555E-03 0.00000E+00
      288  1.88207E-04 2.72020E-04 0.00000E+00 0.00000E+00 0.00000E+00 0.00000E+00 0.00000E+00 0.00000E+00 0.00000E+00 1.95211E-03 2.91192E-03 0.00000E+00
      289  2.37059E-04 2.33218E-04 0.00000E+00 0.00000E+00 0.00000E+00 0.00000E+00 0.00000E+00 0.00000E+00 0.00000E+00 2.48216E-03 2.47832E-03 0.00000E+00
      290  2.75127E-04 1.88714E-04 0.00000E+00 0.00000E+00 0.00000E+00 0.00000E+00 0.00000E+00 0.00000E+00 0.00000E+00 2.91503E-03 1.95261E-03 0.00000E+00
      291  3.08395E-04 1.38554E-04 0.00000E+00 0.00000E+00 0.00000E+00 0.00000E+00 0.00000E+00 0.00000E+00 0.00000E+00 3.24169E-03 1.35355E-03 0.00000E+00
      292  3.34907E-04 8.23676E-05 0.00000E+00 0.00000E+00 0.00000E+00 0.00000E+00 0.00000E+00 0.00000E+00 0.00000E+00 3.44891E-03 7.01780E-04 0.00000E+00



 n o d a l   p r i n t   o u t   f o r   t i m e  s t e p    1341                              ( at time 2.5173832E+01 )

 nodal point  x-disp     y-disp      z-disp      x-vel       y-vel       z-vel      x-accl      y-accl      z-accl      x-coor      y-coor      z-coor
      269  3.52385E-04 0.00000E+00 0.00000E+00 0.00000E+00 0.00000E+00 0.00000E+00 0.00000E+00 0.00000E+00 0.00000E+00 3.52738E-03 0.00000E+00 1.77600E-18
      285  0.00000E+00 3.40855E-04 0.00000E+00 0.00000E+00 0.00000E+00 0.00000E+00 0.00000E+00 0.00000E+00 0.00000E+00 1.94400E-19 3.51586E-03 0.00000E+00
      286  7.00102E-05 3.32796E-04 0.00000E+00 0.00000E+00 0.00000E+00 0.00000E+00 0.00000E+00 0.00000E+00 0.00000E+00 6.89422E-04 3.44680E-03 0.00000E+00
      287  1.36630E-04 3.13402E-04 0.00000E+00 0.00000E+00 0.00000E+00 0.00000E+00 0.00000E+00 0.00000E+00 0.00000E+00 1.35163E-03 3.24670E-03 0.00000E+00
      288  1.95682E-04 2.82053E-04 0.00000E+00 0.00000E+00 0.00000E+00 0.00000E+00 0.00000E+00 0.00000E+00 0.00000E+00 1.95958E-03 2.92195E-03 0.00000E+00
      289  2.45861E-04 2.41897E-04 0.00000E+00 0.00000E+00 0.00000E+00 0.00000E+00 0.00000E+00 0.00000E+00 0.00000E+00 2.49096E-03 2.48700E-03 0.00000E+00
      290  2.85552E-04 1.96182E-04 0.00000E+00 0.00000E+00 0.00000E+00 0.00000E+00 0.00000E+00 0.00000E+00 0.00000E+00 2.92545E-03 1.96008E-03 0.00000E+00
      291  3.20431E-04 1.44094E-04 0.00000E+00 0.00000E+00 0.00000E+00 0.00000E+00 0.00000E+00 0.00000E+00 0.00000E+00 3.25373E-03 1.35909E-03 0.00000E+00
      292  3.48270E-04 8.54964E-05 0.00000E+00 0.00000E+00 0.00000E+00 0.00000E+00 0.00000E+00 0.00000E+00 0.00000E+00 3.46227E-03 7.04908E-04 0.00000E+00



 n o d a l   p r i n t   o u t   f o r   t i m e  s t e p    1353                              ( at time 2.6171463E+01 )

 nodal point  x-disp     y-disp      z-disp      x-vel       y-vel       z-vel      x-accl      y-accl      z-accl      x-coor      y-coor      z-coor
      269  3.81656E-04 0.00000E+00 0.00000E+00 0.00000E+00 0.00000E+00 0.00000E+00 0.00000E+00 0.00000E+00 0.00000E+00 3.55666E-03 0.00000E+00 1.77600E-18
      285  0.00000E+00 3.63415E-04 0.00000E+00 0.00000E+00 0.00000E+00 0.00000E+00 0.00000E+00 0.00000E+00 0.00000E+00 1.94400E-19 3.53841E-03 0.00000E+00
      286  7.46967E-05 3.55214E-04 0.00000E+00 0.00000E+00 0.00000E+00 0.00000E+00 0.00000E+00 0.00000E+00 0.00000E+00 6.94109E-04 3.46921E-03 0.00000E+00
      287  1.46881E-04 3.34272E-04 0.00000E+00 0.00000E+00 0.00000E+00 0.00000E+00 0.00000E+00 0.00000E+00 0.00000E+00 1.36188E-03 3.26757E-03 0.00000E+00
      288  2.11136E-04 3.00460E-04 0.00000E+00 0.00000E+00 0.00000E+00 0.00000E+00 0.00000E+00 0.00000E+00 0.00000E+00 1.97504E-03 2.94036E-03 0.00000E+00
      289  2.64091E-04 2.56981E-04 0.00000E+00 0.00000E+00 0.00000E+00 0.00000E+00 0.00000E+00 0.00000E+00 0.00000E+00 2.50919E-03 2.50208E-03 0.00000E+00
      290  3.06428E-04 2.09457E-04 0.00000E+00 0.00000E+00 0.00000E+00 0.00000E+00 0.00000E+00 0.00000E+00 0.00000E+00 2.94633E-03 1.97336E-03 0.00000E+00
      291  3.43550E-04 1.55771E-04 0.00000E+00 0.00000E+00 0.00000E+00 0.00000E+00 0.00000E+00 0.00000E+00 0.00000E+00 3.27685E-03 1.37077E-03 0.00000E+00
      292  3.76300E-04 9.48491E-05 0.00000E+00 0.00000E+00 0.00000E+00 0.00000E+00 0.00000E+00 0.00000E+00 0.00000E+00 3.49030E-03 7.14261E-04 0.00000E+00



 n o d a l   p r i n t   o u t   f o r   t i m e  s t e p    1358                              ( at time 2.7169094E+01 )

 nodal point  x-disp     y-disp      z-disp      x-vel       y-vel       z-vel      x-accl      y-accl      z-accl      x-coor      y-coor      z-coor
      269  3.88518E-04 0.00000E+00 0.00000E+00 0.00000E+00 0.00000E+00 0.00000E+00 0.00000E+00 0.00000E+00 0.00000E+00 3.56352E-03 0.00000E+00 1.77600E-18
      285  0.00000E+00 3.70572E-04 0.00000E+00 0.00000E+00 0.00000E+00 0.00000E+00 0.00000E+00 0.00000E+00 0.00000E+00 1.94400E-19 3.54557E-03 0.00000E+00
      286  7.65499E-05 3.62043E-04 0.00000E+00 0.00000E+00 0.00000E+00 0.00000E+00 0.00000E+00 0.00000E+00 0.00000E+00 6.95962E-04 3.47604E-03 0.00000E+00
      287  1.49629E-04 3.40249E-04 0.00000E+00 0.00000E+00 0.00000E+00 0.00000E+00 0.00000E+00 0.00000E+00 0.00000E+00 1.36463E-03 3.27355E-03 0.00000E+00
      288  2.14889E-04 3.06463E-04 0.00000E+00 0.00000E+00 0.00000E+00 0.00000E+00 0.00000E+00 0.00000E+00 0.00000E+00 1.97879E-03 2.94636E-03 0.00000E+00
      289  2.68378E-04 2.62485E-04 0.00000E+00 0.00000E+00 0.00000E+00 0.00000E+00 0.00000E+00 0.00000E+00 0.00000E+00 2.51348E-03 2.50758E-03 0.00000E+00
      290  3.12253E-04 2.14099E-04 0.00000E+00 0.00000E+00 0.00000E+00 0.00000E+00 0.00000E+00 0.00000E+00 0.00000E+00 2.95215E-03 1.97800E-03 0.00000E+00
      291  3.50550E-04 1.58276E-04 0.00000E+00 0.00000E+00 0.00000E+00 0.00000E+00 0.00000E+00 0.00000E+00 0.00000E+00 3.28385E-03 1.37328E-03 0.00000E+00
      292  3.83564E-04 9.62793E-05 0.00000E+00 0.00000E+00 0.00000E+00 0.00000E+00 0.00000E+00 0.00000E+00 0.00000E+00 3.49756E-03 7.15691E-04 0.00000E+00



 n o d a l   p r i n t   o u t   f o r   t i m e  s t e p    1372                              ( at time 2.8750233E+01 )

 nodal point  x-disp     y-disp      z-disp      x-vel       y-vel       z-vel      x-accl      y-accl      z-accl      x-coor      y-coor      z-coor
      269  4.23642E-04 0.00000E+00 0.00000E+00 0.00000E+00 0.00000E+00 0.00000E+00 0.00000E+00 0.00000E+00 0.00000E+00 3.59864E-03 0.00000E+00 1.77600E-18
      285  0.00000E+00 3.98805E-04 0.00000E+00 0.00000E+00 0.00000E+00 0.00000E+00 0.00000E+00 0.00000E+00 0.00000E+00 1.94400E-19 3.57381E-03 0.00000E+00
      286  8.21855E-05 3.90595E-04 0.00000E+00 0.00000E+00 0.00000E+00 0.00000E+00 0.00000E+00 0.00000E+00 0.00000E+00 7.01597E-04 3.50460E-03 0.00000E+00
      287  1.61344E-04 3.66809E-04 0.00000E+00 0.00000E+00 0.00000E+00 0.00000E+00 0.00000E+00 0.00000E+00 0.00000E+00 1.37634E-03 3.30011E-03 0.00000E+00
      288  2.32694E-04 3.31669E-04 0.00000E+00 0.00000E+00 0.00000E+00 0.00000E+00 0.00000E+00 0.00000E+00 0.00000E+00 1.99659E-03 2.97157E-03 0.00000E+00
      289  2.89609E-04 2.84745E-04 0.00000E+00 0.00000E+00 0.00000E+00 0.00000E+00 0.00000E+00 0.00000E+00 0.00000E+00 2.53471E-03 2.52984E-03 0.00000E+00
      290  3.39539E-04 2.33161E-04 0.00000E+00 0.00000E+00 0.00000E+00 0.00000E+00 0.00000E+00 0.00000E+00 0.00000E+00 2.97944E-03 1.99706E-03 0.00000E+00
      291  3.81991E-04 1.71171E-04 0.00000E+00 0.00000E+00 0.00000E+00 0.00000E+00 0.00000E+00 0.00000E+00 0.00000E+00 3.31529E-03 1.38617E-03 0.00000E+00
      292  4.19122E-04 1.03640E-04 0.00000E+00 0.00000E+00 0.00000E+00 0.00000E+00 0.00000E+00 0.00000E+00 0.00000E+00 3.53312E-03 7.23052E-04 0.00000E+00



 n o d a l   p r i n t   o u t   f o r   t i m e  s t e p    1382                              ( at time 3.0331372E+01 )

 nodal point  x-disp     y-disp      z-disp      x-vel       y-vel       z-vel      x-accl      y-accl      z-accl      x-coor      y-coor      z-coor
      269  4.45555E-04 0.00000E+00 0.00000E+00 0.00000E+00 0.00000E+00 0.00000E+00 0.00000E+00 0.00000E+00 0.00000E+00 3.62055E-03 0.00000E+00 1.77600E-18
      285  0.00000E+00 4.17079E-04 0.00000E+00 0.00000E+00 0.00000E+00 0.00000E+00 0.00000E+00 0.00000E+00 0.00000E+00 1.94400E-19 3.59208E-03 0.00000E+00
      286  8.58593E-05 4.09033E-04 0.00000E+00 0.00000E+00 0.00000E+00 0.00000E+00 0.00000E+00 0.00000E+00 0.00000E+00 7.05271E-04 3.52303E-03 0.00000E+00
      287  1.68565E-04 3.84331E-04 0.00000E+00 0.00000E+00 0.00000E+00 0.00000E+00 0.00000E+00 0.00000E+00 0.00000E+00 1.38357E-03 3.31763E-03 0.00000E+00
      288  2.43638E-04 3.47831E-04 0.00000E+00 0.00000E+00 0.00000E+00 0.00000E+00 0.00000E+00 0.00000E+00 0.00000E+00 2.00754E-03 2.98773E-03 0.00000E+00
      289  3.03744E-04 2.98939E-04 0.00000E+00 0.00000E+00 0.00000E+00 0.00000E+00 0.00000E+00 0.00000E+00 0.00000E+00 2.54884E-03 2.54404E-03 0.00000E+00
      290  3.56536E-04 2.44482E-04 0.00000E+00 0.00000E+00 0.00000E+00 0.00000E+00 0.00000E+00 0.00000E+00 0.00000E+00 2.99644E-03 2.00838E-03 0.00000E+00
      291  4.01503E-04 1.78326E-04 0.00000E+00 0.00000E+00 0.00000E+00 0.00000E+00 0.00000E+00 0.00000E+00 0.00000E+00 3.33480E-03 1.39333E-03 0.00000E+00
      292  4.40516E-04 1.08532E-04 0.00000E+00 0.00000E+00 0.00000E+00 0.00000E+00 0.00000E+00 0.00000E+00 0.00000E+00 3.55452E-03 7.27944E-04 0.00000E+00



 n o d a l   p r i n t   o u t   f o r   t i m e  s t e p    1389                              ( at time 3.1912511E+01 )

 nodal point  x-disp     y-disp      z-disp      x-vel       y-vel       z-vel      x-accl      y-accl      z-accl      x-coor      y-coor      z-coor
      269  4.68065E-04 0.00000E+00 0.00000E+00 0.00000E+00 0.00000E+00 0.00000E+00 0.00000E+00 0.00000E+00 0.00000E+00 3.64307E-03 0.00000E+00 1.77600E-18
      285  0.00000E+00 4.37757E-04 0.00000E+00 0.00000E+00 0.00000E+00 0.00000E+00 0.00000E+00 0.00000E+00 0.00000E+00 1.94400E-19 3.61276E-03 0.00000E+00
      286  9.03004E-05 4.29806E-04 0.00000E+00 0.00000E+00 0.00000E+00 0.00000E+00 0.00000E+00 0.00000E+00 0.00000E+00 7.09712E-04 3.54381E-03 0.00000E+00
      287  1.77423E-04 4.03586E-04 0.00000E+00 0.00000E+00 0.00000E+00 0.00000E+00 0.00000E+00 0.00000E+00 0.00000E+00 1.39242E-03 3.33689E-03 0.00000E+00
      288  2.56222E-04 3.65297E-04 0.00000E+00 0.00000E+00 0.00000E+00 0.00000E+00 0.00000E+00 0.00000E+00 0.00000E+00 2.02012E-03 3.00520E-03 0.00000E+00
      289  3.19427E-04 3.13060E-04 0.00000E+00 0.00000E+00 0.00000E+00 0.00000E+00 0.00000E+00 0.00000E+00 0.00000E+00 2.56453E-03 2.55816E-03 0.00000E+00
      290  3.74386E-04 2.55749E-04 0.00000E+00 0.00000E+00 0.00000E+00 0.00000E+00 0.00000E+00 0.00000E+00 0.00000E+00 3.01429E-03 2.01965E-03 0.00000E+00
      291  4.21587E-04 1.86084E-04 0.00000E+00 0.00000E+00 0.00000E+00 0.00000E+00 0.00000E+00 0.00000E+00 0.00000E+00 3.35489E-03 1.40108E-03 0.00000E+00
      292  4.62618E-04 1.12867E-04 0.00000E+00 0.00000E+00 0.00000E+00 0.00000E+00 0.00000E+00 0.00000E+00 0.00000E+00 3.57662E-03 7.32279E-04 0.00000E+00



 n o d a l   p r i n t   o u t   f o r   t i m e  s t e p    1398                              ( at time 3.4418447E+01 )

 nodal point  x-disp     y-disp      z-disp      x-vel       y-vel       z-vel      x-accl      y-accl      z-accl      x-coor      y-coor      z-coor
      269  5.09183E-04 0.00000E+00 0.00000E+00 0.00000E+00 0.00000E+00 0.00000E+00 0.00000E+00 0.00000E+00 0.00000E+00 3.68418E-03 0.00000E+00 1.77600E-18
      285  0.00000E+00 4.72471E-04 0.00000E+00 0.00000E+00 0.00000E+00 0.00000E+00 0.00000E+00 0.00000E+00 0.00000E+00 1.94400E-19 3.64747E-03 0.00000E+00
      286  9.72871E-05 4.64817E-04 0.00000E+00 0.00000E+00 0.00000E+00 0.00000E+00 0.00000E+00 0.00000E+00 0.00000E+00 7.16699E-04 3.57882E-03 0.00000E+00
      287  1.91986E-04 4.36669E-04 0.00000E+00 0.00000E+00 0.00000E+00 0.00000E+00 0.00000E+00 0.00000E+00 0.00000E+00 1.40699E-03 3.36997E-03 0.00000E+00
      288  2.77698E-04 3.95905E-04 0.00000E+00 0.00000E+00 0.00000E+00 0.00000E+00 0.00000E+00 0.00000E+00 0.00000E+00 2.04160E-03 3.03580E-03 0.00000E+00
      289  3.46384E-04 3.39005E-04 0.00000E+00 0.00000E+00 0.00000E+00 0.00000E+00 0.00000E+00 0.00000E+00 0.00000E+00 2.59148E-03 2.58411E-03 0.00000E+00
      290  4.06537E-04 2.76637E-04 0.00000E+00 0.00000E+00 0.00000E+00 0.00000E+00 0.00000E+00 0.00000E+00 0.00000E+00 3.04644E-03 2.04054E-03 0.00000E+00
      291  4.57533E-04 2.01121E-04 0.00000E+00 0.00000E+00 0.00000E+00 0.00000E+00 0.00000E+00 0.00000E+00 0.00000E+00 3.39083E-03 1.41612E-03 0.00000E+00
      292  5.03447E-04 1.20979E-04 0.00000E+00 0.00000E+00 0.00000E+00 0.00000E+00 0.00000E+00 0.00000E+00 0.00000E+00 3.61745E-03 7.40391E-04 0.00000E+00



 n o d a l   p r i n t   o u t   f o r   t i m e  s t e p    1405                              ( at time 3.6924383E+01 )

 nodal point  x-disp     y-disp      z-disp      x-vel       y-vel       z-vel      x-accl      y-accl      z-accl      x-coor      y-coor      z-coor
      269  5.44058E-04 0.00000E+00 0.00000E+00 0.00000E+00 0.00000E+00 0.00000E+00 0.00000E+00 0.00000E+00 0.00000E+00 3.71906E-03 0.00000E+00 1.77600E-18
      285  0.00000E+00 5.04473E-04 0.00000E+00 0.00000E+00 0.00000E+00 0.00000E+00 0.00000E+00 0.00000E+00 0.00000E+00 1.94400E-19 3.67947E-03 0.00000E+00
      286  1.04308E-04 4.96617E-04 0.00000E+00 0.00000E+00 0.00000E+00 0.00000E+00 0.00000E+00 0.00000E+00 0.00000E+00 7.23720E-04 3.61062E-03 0.00000E+00
      287  2.05465E-04 4.66671E-04 0.00000E+00 0.00000E+00 0.00000E+00 0.00000E+00 0.00000E+00 0.00000E+00 0.00000E+00 1.42047E-03 3.39997E-03 0.00000E+00
      288  2.96950E-04 4.23420E-04 0.00000E+00 0.00000E+00 0.00000E+00 0.00000E+00 0.00000E+00 0.00000E+00 0.00000E+00 2.06085E-03 3.06332E-03 0.00000E+00
      289  3.70708E-04 3.62188E-04 0.00000E+00 0.00000E+00 0.00000E+00 0.00000E+00 0.00000E+00 0.00000E+00 0.00000E+00 2.61581E-03 2.60729E-03 0.00000E+00
      290  4.35291E-04 2.94984E-04 0.00000E+00 0.00000E+00 0.00000E+00 0.00000E+00 0.00000E+00 0.00000E+00 0.00000E+00 3.07519E-03 2.05888E-03 0.00000E+00
      291  4.89572E-04 2.13339E-04 0.00000E+00 0.00000E+00 0.00000E+00 0.00000E+00 0.00000E+00 0.00000E+00 0.00000E+00 3.42287E-03 1.42834E-03 0.00000E+00
      292  5.37949E-04 1.27215E-04 0.00000E+00 0.00000E+00 0.00000E+00 0.00000E+00 0.00000E+00 0.00000E+00 0.00000E+00 3.65195E-03 7.46627E-04 0.00000E+00



 n o d a l   p r i n t   o u t   f o r   t i m e  s t e p    1416                              ( at time 4.0896024E+01 )

 nodal point  x-disp     y-disp      z-disp      x-vel       y-vel       z-vel      x-accl      y-accl      z-accl      x-coor      y-coor      z-coor
      269  6.16325E-04 0.00000E+00 0.00000E+00 0.00000E+00 0.00000E+00 0.00000E+00 0.00000E+00 0.00000E+00 0.00000E+00 3.79133E-03 0.00000E+00 1.77600E-18
      285  0.00000E+00 5.64071E-04 0.00000E+00 0.00000E+00 0.00000E+00 0.00000E+00 0.00000E+00 0.00000E+00 0.00000E+00 1.94400E-19 3.73907E-03 0.00000E+00
      286  1.16325E-04 5.54636E-04 0.00000E+00 0.00000E+00 0.00000E+00 0.00000E+00 0.00000E+00 0.00000E+00 0.00000E+00 7.35737E-04 3.66864E-03 0.00000E+00
      287  2.29107E-04 5.23562E-04 0.00000E+00 0.00000E+00 0.00000E+00 0.00000E+00 0.00000E+00 0.00000E+00 0.00000E+00 1.44411E-03 3.45686E-03 0.00000E+00
      288  3.32911E-04 4.75652E-04 0.00000E+00 0.00000E+00 0.00000E+00 0.00000E+00 0.00000E+00 0.00000E+00 0.00000E+00 2.09681E-03 3.11555E-03 0.00000E+00
      289  4.16512E-04 4.07588E-04 0.00000E+00 0.00000E+00 0.00000E+00 0.00000E+00 0.00000E+00 0.00000E+00 0.00000E+00 2.66161E-03 2.65269E-03 0.00000E+00
      290  4.89601E-04 3.31136E-04 0.00000E+00 0.00000E+00 0.00000E+00 0.00000E+00 0.00000E+00 0.00000E+00 0.00000E+00 3.12950E-03 2.09504E-03 0.00000E+00
      291  5.50602E-04 2.39385E-04 0.00000E+00 0.00000E+00 0.00000E+00 0.00000E+00 0.00000E+00 0.00000E+00 0.00000E+00 3.48390E-03 1.45439E-03 0.00000E+00
      292  6.09274E-04 1.42394E-04 0.00000E+00 0.00000E+00 0.00000E+00 0.00000E+00 0.00000E+00 0.00000E+00 0.00000E+00 3.72327E-03 7.61806E-04 0.00000E+00



 n o d a l   p r i n t   o u t   f o r   t i m e  s t e p    1425                              ( at time 4.4867665E+01 )

 nodal point  x-disp     y-disp      z-disp      x-vel       y-vel       z-vel      x-accl      y-accl      z-accl      x-coor      y-coor      z-coor
      269  6.74128E-04 0.00000E+00 0.00000E+00 0.00000E+00 0.00000E+00 0.00000E+00 0.00000E+00 0.00000E+00 0.00000E+00 3.84913E-03 0.00000E+00 1.77600E-18
      285  0.00000E+00 6.16475E-04 0.00000E+00 0.00000E+00 0.00000E+00 0.00000E+00 0.00000E+00 0.00000E+00 0.00000E+00 1.94400E-19 3.79147E-03 0.00000E+00
      286  1.28004E-04 6.05600E-04 0.00000E+00 0.00000E+00 0.00000E+00 0.00000E+00 0.00000E+00 0.00000E+00 0.00000E+00 7.47416E-04 3.71960E-03 0.00000E+00
      287  2.51037E-04 5.72346E-04 0.00000E+00 0.00000E+00 0.00000E+00 0.00000E+00 0.00000E+00 0.00000E+00 0.00000E+00 1.46604E-03 3.50565E-03 0.00000E+00
      288  3.63284E-04 5.20661E-04 0.00000E+00 0.00000E+00 0.00000E+00 0.00000E+00 0.00000E+00 0.00000E+00 0.00000E+00 2.12718E-03 3.16056E-03 0.00000E+00
      289  4.55735E-04 4.46258E-04 0.00000E+00 0.00000E+00 0.00000E+00 0.00000E+00 0.00000E+00 0.00000E+00 0.00000E+00 2.70083E-03 2.69136E-03 0.00000E+00
      290  5.36425E-04 3.61964E-04 0.00000E+00 0.00000E+00 0.00000E+00 0.00000E+00 0.00000E+00 0.00000E+00 0.00000E+00 3.17632E-03 2.12586E-03 0.00000E+00
      291  6.03426E-04 2.59315E-04 0.00000E+00 0.00000E+00 0.00000E+00 0.00000E+00 0.00000E+00 0.00000E+00 0.00000E+00 3.53673E-03 1.47431E-03 0.00000E+00
      292  6.66926E-04 1.52642E-04 0.00000E+00 0.00000E+00 0.00000E+00 0.00000E+00 0.00000E+00 0.00000E+00 0.00000E+00 3.78093E-03 7.72054E-04 0.00000E+00



 n o d a l   p r i n t   o u t   f o r   t i m e  s t e p    1440                              ( at time 4.8839307E+01 )

 nodal point  x-disp     y-disp      z-disp      x-vel       y-vel       z-vel      x-accl      y-accl      z-accl      x-coor      y-coor      z-coor
      269  7.66248E-04 0.00000E+00 0.00000E+00 0.00000E+00 0.00000E+00 0.00000E+00 0.00000E+00 0.00000E+00 0.00000E+00 3.94125E-03 0.00000E+00 1.77600E-18
      285  0.00000E+00 6.83526E-04 0.00000E+00 0.00000E+00 0.00000E+00 0.00000E+00 0.00000E+00 0.00000E+00 0.00000E+00 1.94400E-19 3.85853E-03 0.00000E+00
      286  1.40266E-04 6.70754E-04 0.00000E+00 0.00000E+00 0.00000E+00 0.00000E+00 0.00000E+00 0.00000E+00 0.00000E+00 7.59678E-04 3.78475E-03 0.00000E+00
      287  2.77857E-04 6.37756E-04 0.00000E+00 0.00000E+00 0.00000E+00 0.00000E+00 0.00000E+00 0.00000E+00 0.00000E+00 1.49286E-03 3.57106E-03 0.00000E+00
      288  4.04584E-04 5.81995E-04 0.00000E+00 0.00000E+00 0.00000E+00 0.00000E+00 0.00000E+00 0.00000E+00 0.00000E+00 2.16848E-03 3.22190E-03 0.00000E+00
      289  5.09993E-04 5.00516E-04 0.00000E+00 0.00000E+00 0.00000E+00 0.00000E+00 0.00000E+00 0.00000E+00 0.00000E+00 2.75509E-03 2.74562E-03 0.00000E+00
      290  6.03296E-04 4.06359E-04 0.00000E+00 0.00000E+00 0.00000E+00 0.00000E+00 0.00000E+00 0.00000E+00 0.00000E+00 3.24320E-03 2.17026E-03 0.00000E+00
      291  6.78385E-04 2.92215E-04 0.00000E+00 0.00000E+00 0.00000E+00 0.00000E+00 0.00000E+00 0.00000E+00 0.00000E+00 3.61169E-03 1.50722E-03 0.00000E+00
      292  7.57090E-04 1.78009E-04 0.00000E+00 0.00000E+00 0.00000E+00 0.00000E+00 0.00000E+00 0.00000E+00 0.00000E+00 3.87109E-03 7.97421E-04 0.00000E+00



 n o d a l   p r i n t   o u t   f o r   t i m e  s t e p    1453                              ( at time 5.2810948E+01 )

 nodal point  x-disp     y-disp      z-disp      x-vel       y-vel       z-vel      x-accl      y-accl      z-accl      x-coor      y-coor      z-coor
      269  8.48187E-04 0.00000E+00 0.00000E+00 0.00000E+00 0.00000E+00 0.00000E+00 0.00000E+00 0.00000E+00 0.00000E+00 4.02319E-03 0.00000E+00 1.77600E-18
      285  0.00000E+00 7.46566E-04 0.00000E+00 0.00000E+00 0.00000E+00 0.00000E+00 0.00000E+00 0.00000E+00 0.00000E+00 1.94400E-19 3.92157E-03 0.00000E+00
      286  1.55567E-04 7.30557E-04 0.00000E+00 0.00000E+00 0.00000E+00 0.00000E+00 0.00000E+00 0.00000E+00 0.00000E+00 7.74979E-04 3.84456E-03 0.00000E+00
      287  3.05649E-04 6.93668E-04 0.00000E+00 0.00000E+00 0.00000E+00 0.00000E+00 0.00000E+00 0.00000E+00 0.00000E+00 1.52065E-03 3.62697E-03 0.00000E+00
      288  4.45270E-04 6.34392E-04 0.00000E+00 0.00000E+00 0.00000E+00 0.00000E+00 0.00000E+00 0.00000E+00 0.00000E+00 2.20917E-03 3.27429E-03 0.00000E+00
      289  5.60315E-04 5.45136E-04 0.00000E+00 0.00000E+00 0.00000E+00 0.00000E+00 0.00000E+00 0.00000E+00 0.00000E+00 2.80542E-03 2.79024E-03 0.00000E+00
      290  6.62867E-04 4.45743E-04 0.00000E+00 0.00000E+00 0.00000E+00 0.00000E+00 0.00000E+00 0.00000E+00 0.00000E+00 3.30277E-03 2.20964E-03 0.00000E+00
      291  7.48618E-04 3.23432E-04 0.00000E+00 0.00000E+00 0.00000E+00 0.00000E+00 0.00000E+00 0.00000E+00 0.00000E+00 3.68192E-03 1.53843E-03 0.00000E+00
      292  8.36296E-04 1.96911E-04 0.00000E+00 0.00000E+00 0.00000E+00 0.00000E+00 0.00000E+00 0.00000E+00 0.00000E+00 3.95030E-03 8.16323E-04 0.00000E+00



 n o d a l   p r i n t   o u t   f o r   t i m e  s t e p    1461                              ( at time 5.6782589E+01 )

 nodal point  x-disp     y-disp      z-disp      x-vel       y-vel       z-vel      x-accl      y-accl      z-accl      x-coor      y-coor      z-coor
      269  9.03613E-04 0.00000E+00 0.00000E+00 0.00000E+00 0.00000E+00 0.00000E+00 0.00000E+00 0.00000E+00 0.00000E+00 4.07861E-03 0.00000E+00 1.77600E-18
      285  0.00000E+00 7.99284E-04 0.00000E+00 0.00000E+00 0.00000E+00 0.00000E+00 0.00000E+00 0.00000E+00 0.00000E+00 1.94400E-19 3.97428E-03 0.00000E+00
      286  1.67259E-04 7.83480E-04 0.00000E+00 0.00000E+00 0.00000E+00 0.00000E+00 0.00000E+00 0.00000E+00 0.00000E+00 7.86671E-04 3.89748E-03 0.00000E+00
      287  3.30134E-04 7.42407E-04 0.00000E+00 0.00000E+00 0.00000E+00 0.00000E+00 0.00000E+00 0.00000E+00 0.00000E+00 1.54513E-03 3.67571E-03 0.00000E+00
      288  4.78896E-04 6.78380E-04 0.00000E+00 0.00000E+00 0.00000E+00 0.00000E+00 0.00000E+00 0.00000E+00 0.00000E+00 2.24280E-03 3.31828E-03 0.00000E+00
      289  6.01526E-04 5.81428E-04 0.00000E+00 0.00000E+00 0.00000E+00 0.00000E+00 0.00000E+00 0.00000E+00 0.00000E+00 2.84663E-03 2.82653E-03 0.00000E+00
      290  7.11712E-04 4.74125E-04 0.00000E+00 0.00000E+00 0.00000E+00 0.00000E+00 0.00000E+00 0.00000E+00 0.00000E+00 3.35161E-03 2.23803E-03 0.00000E+00
      291  8.02545E-04 3.41590E-04 0.00000E+00 0.00000E+00 0.00000E+00 0.00000E+00 0.00000E+00 0.00000E+00 0.00000E+00 3.73585E-03 1.55659E-03 0.00000E+00
      292  8.91854E-04 2.05842E-04 0.00000E+00 0.00000E+00 0.00000E+00 0.00000E+00 0.00000E+00 0.00000E+00 0.00000E+00 4.00585E-03 8.25254E-04 0.00000E+00



 n o d a l   p r i n t   o u t   f o r   t i m e  s t e p    1472                              ( at time 6.0754230E+01 )

 nodal point  x-disp     y-disp      z-disp      x-vel       y-vel       z-vel      x-accl      y-accl      z-accl      x-coor      y-coor      z-coor
      269  9.84089E-04 0.00000E+00 0.00000E+00 0.00000E+00 0.00000E+00 0.00000E+00 0.00000E+00 0.00000E+00 0.00000E+00 4.15909E-03 0.00000E+00 1.77600E-18
      285  0.00000E+00 8.65243E-04 0.00000E+00 0.00000E+00 0.00000E+00 0.00000E+00 0.00000E+00 0.00000E+00 0.00000E+00 1.94400E-19 4.04024E-03 0.00000E+00
      286  1.80979E-04 8.45655E-04 0.00000E+00 0.00000E+00 0.00000E+00 0.00000E+00 0.00000E+00 0.00000E+00 0.00000E+00 8.00391E-04 3.95965E-03 0.00000E+00
      287  3.58931E-04 8.02560E-04 0.00000E+00 0.00000E+00 0.00000E+00 0.00000E+00 0.00000E+00 0.00000E+00 0.00000E+00 1.57393E-03 3.73586E-03 0.00000E+00
      288  5.17458E-04 7.34549E-04 0.00000E+00 0.00000E+00 0.00000E+00 0.00000E+00 0.00000E+00 0.00000E+00 0.00000E+00 2.28136E-03 3.37445E-03 0.00000E+00
      289  6.51358E-04 6.30257E-04 0.00000E+00 0.00000E+00 0.00000E+00 0.00000E+00 0.00000E+00 0.00000E+00 0.00000E+00 2.89646E-03 2.87536E-03 0.00000E+00
      290  7.73222E-04 5.13793E-04 0.00000E+00 0.00000E+00 0.00000E+00 0.00000E+00 0.00000E+00 0.00000E+00 0.00000E+00 3.41312E-03 2.27769E-03 0.00000E+00
      291  8.72139E-04 3.71837E-04 0.00000E+00 0.00000E+00 0.00000E+00 0.00000E+00 0.00000E+00 0.00000E+00 0.00000E+00 3.80544E-03 1.58684E-03 0.00000E+00
      292  9.70650E-04 2.22081E-04 0.00000E+00 0.00000E+00 0.00000E+00 0.00000E+00 0.00000E+00 0.00000E+00 0.00000E+00 4.08465E-03 8.41492E-04 0.00000E+00



 n o d a l   p r i n t   o u t   f o r   t i m e  s t e p    1480                              ( at time 6.4725871E+01 )

 nodal point  x-disp     y-disp      z-disp      x-vel       y-vel       z-vel      x-accl      y-accl      z-accl      x-coor      y-coor      z-coor
      269  1.04481E-03 0.00000E+00 0.00000E+00 0.00000E+00 0.00000E+00 0.00000E+00 0.00000E+00 0.00000E+00 0.00000E+00 4.21981E-03 0.00000E+00 1.77600E-18
      285  0.00000E+00 9.22408E-04 0.00000E+00 0.00000E+00 0.00000E+00 0.00000E+00 0.00000E+00 0.00000E+00 0.00000E+00 1.94400E-19 4.09741E-03 0.00000E+00
      286  1.94206E-04 9.01640E-04 0.00000E+00 0.00000E+00 0.00000E+00 0.00000E+00 0.00000E+00 0.00000E+00 0.00000E+00 8.13618E-04 4.01564E-03 0.00000E+00
      287  3.84001E-04 8.55295E-04 0.00000E+00 0.00000E+00 0.00000E+00 0.00000E+00 0.00000E+00 0.00000E+00 0.00000E+00 1.59900E-03 3.78860E-03 0.00000E+00
      288  5.53377E-04 7.81029E-04 0.00000E+00 0.00000E+00 0.00000E+00 0.00000E+00 0.00000E+00 0.00000E+00 0.00000E+00 2.31728E-03 3.42093E-03 0.00000E+00
      289  6.93719E-04 6.70354E-04 0.00000E+00 0.00000E+00 0.00000E+00 0.00000E+00 0.00000E+00 0.00000E+00 0.00000E+00 2.93882E-03 2.91545E-03 0.00000E+00
      290  8.25017E-04 5.45283E-04 0.00000E+00 0.00000E+00 0.00000E+00 0.00000E+00 0.00000E+00 0.00000E+00 0.00000E+00 3.46492E-03 2.30918E-03 0.00000E+00
      291  9.29461E-04 3.93955E-04 0.00000E+00 0.00000E+00 0.00000E+00 0.00000E+00 0.00000E+00 0.00000E+00 0.00000E+00 3.86276E-03 1.60895E-03 0.00000E+00
      292  1.03015E-03 2.32777E-04 0.00000E+00 0.00000E+00 0.00000E+00 0.00000E+00 0.00000E+00 0.00000E+00 0.00000E+00 4.14415E-03 8.52189E-04 0.00000E+00



 n o d a l   p r i n t   o u t   f o r   t i m e  s t e p    1489                              ( at time 6.8697512E+01 )

 nodal point  x-disp     y-disp      z-disp      x-vel       y-vel       z-vel      x-accl      y-accl      z-accl      x-coor      y-coor      z-coor
      269  1.12382E-03 0.00000E+00 0.00000E+00 0.00000E+00 0.00000E+00 0.00000E+00 0.00000E+00 0.00000E+00 0.00000E+00 4.29882E-03 0.00000E+00 1.77600E-18
      285  0.00000E+00 9.90888E-04 0.00000E+00 0.00000E+00 0.00000E+00 0.00000E+00 0.00000E+00 0.00000E+00 0.00000E+00 1.94400E-19 4.16589E-03 0.00000E+00
      286  2.08888E-04 9.65865E-04 0.00000E+00 0.00000E+00 0.00000E+00 0.00000E+00 0.00000E+00 0.00000E+00 0.00000E+00 8.28300E-04 4.07987E-03 0.00000E+00
      287  4.13281E-04 9.17432E-04 0.00000E+00 0.00000E+00 0.00000E+00 0.00000E+00 0.00000E+00 0.00000E+00 0.00000E+00 1.62828E-03 3.85073E-03 0.00000E+00
      288  5.94288E-04 8.37429E-04 0.00000E+00 0.00000E+00 0.00000E+00 0.00000E+00 0.00000E+00 0.00000E+00 0.00000E+00 2.35819E-03 3.47733E-03 0.00000E+00
      289  7.45819E-04 7.18851E-04 0.00000E+00 0.00000E+00 0.00000E+00 0.00000E+00 0.00000E+00 0.00000E+00 0.00000E+00 2.99092E-03 2.96395E-03 0.00000E+00
      290  8.85233E-04 5.84735E-04 0.00000E+00 0.00000E+00 0.00000E+00 0.00000E+00 0.00000E+00 0.00000E+00 0.00000E+00 3.52513E-03 2.34863E-03 0.00000E+00
      291  9.98144E-04 4.24767E-04 0.00000E+00 0.00000E+00 0.00000E+00 0.00000E+00 0.00000E+00 0.00000E+00 0.00000E+00 3.93144E-03 1.63977E-03 0.00000E+00
      292  1.10608E-03 2.48016E-04 0.00000E+00 0.00000E+00 0.00000E+00 0.00000E+00 0.00000E+00 0.00000E+00 0.00000E+00 4.22008E-03 8.67428E-04 0.00000E+00



 n o d a l   p r i n t   o u t   f o r   t i m e  s t e p    1501                              ( at time 7.2669154E+01 )

 nodal point  x-disp     y-disp      z-disp      x-vel       y-vel       z-vel      x-accl      y-accl      z-accl      x-coor      y-coor      z-coor
      269  1.21946E-03 0.00000E+00 0.00000E+00 0.00000E+00 0.00000E+00 0.00000E+00 0.00000E+00 0.00000E+00 0.00000E+00 4.39446E-03 0.00000E+00 1.77600E-18
      285  0.00000E+00 1.06865E-03 0.00000E+00 0.00000E+00 0.00000E+00 0.00000E+00 0.00000E+00 0.00000E+00 0.00000E+00 1.94400E-19 4.24365E-03 0.00000E+00
      286  2.25160E-04 1.03914E-03 0.00000E+00 0.00000E+00 0.00000E+00 0.00000E+00 0.00000E+00 0.00000E+00 0.00000E+00 8.44572E-04 4.15314E-03 0.00000E+00
      287  4.48330E-04 9.87705E-04 0.00000E+00 0.00000E+00 0.00000E+00 0.00000E+00 0.00000E+00 0.00000E+00 0.00000E+00 1.66333E-03 3.92101E-03 0.00000E+00
      288  6.43803E-04 9.01222E-04 0.00000E+00 0.00000E+00 0.00000E+00 0.00000E+00 0.00000E+00 0.00000E+00 0.00000E+00 2.40770E-03 3.54112E-03 0.00000E+00
      289  8.06351E-04 7.72338E-04 0.00000E+00 0.00000E+00 0.00000E+00 0.00000E+00 0.00000E+00 0.00000E+00 0.00000E+00 3.05145E-03 3.01744E-03 0.00000E+00
      290  9.54119E-04 6.31328E-04 0.00000E+00 0.00000E+00 0.00000E+00 0.00000E+00 0.00000E+00 0.00000E+00 0.00000E+00 3.59402E-03 2.39523E-03 0.00000E+00
      291  1.08076E-03 4.61636E-04 0.00000E+00 0.00000E+00 0.00000E+00 0.00000E+00 0.00000E+00 0.00000E+00 0.00000E+00 4.01406E-03 1.67664E-03 0.00000E+00
      292  1.19604E-03 2.67425E-04 0.00000E+00 0.00000E+00 0.00000E+00 0.00000E+00 0.00000E+00 0.00000E+00 0.00000E+00 4.31004E-03 8.86837E-04 0.00000E+00



 n o d a l   p r i n t   o u t   f o r   t i m e  s t e p    1509                              ( at time 7.6640795E+01 )

 nodal point  x-disp     y-disp      z-disp      x-vel       y-vel       z-vel      x-accl      y-accl      z-accl      x-coor      y-coor      z-coor
      269  1.28469E-03 0.00000E+00 0.00000E+00 0.00000E+00 0.00000E+00 0.00000E+00 0.00000E+00 0.00000E+00 0.00000E+00 4.45969E-03 0.00000E+00 1.77600E-18
      285  0.00000E+00 1.12849E-03 0.00000E+00 0.00000E+00 0.00000E+00 0.00000E+00 0.00000E+00 0.00000E+00 0.00000E+00 1.94400E-19 4.30349E-03 0.00000E+00
      286  2.39368E-04 1.09649E-03 0.00000E+00 0.00000E+00 0.00000E+00 0.00000E+00 0.00000E+00 0.00000E+00 0.00000E+00 8.58780E-04 4.21049E-03 0.00000E+00
      287  4.72533E-04 1.04296E-03 0.00000E+00 0.00000E+00 0.00000E+00 0.00000E+00 0.00000E+00 0.00000E+00 0.00000E+00 1.68753E-03 3.97626E-03 0.00000E+00
      288  6.79955E-04 9.50287E-04 0.00000E+00 0.00000E+00 0.00000E+00 0.00000E+00 0.00000E+00 0.00000E+00 0.00000E+00 2.44385E-03 3.59019E-03 0.00000E+00
      289  8.51654E-04 8.14233E-04 0.00000E+00 0.00000E+00 0.00000E+00 0.00000E+00 0.00000E+00 0.00000E+00 0.00000E+00 3.09675E-03 3.05933E-03 0.00000E+00
      290  1.00782E-03 6.64447E-04 0.00000E+00 0.00000E+00 0.00000E+00 0.00000E+00 0.00000E+00 0.00000E+00 0.00000E+00 3.64772E-03 2.42835E-03 0.00000E+00
      291  1.13969E-03 4.84342E-04 0.00000E+00 0.00000E+00 0.00000E+00 0.00000E+00 0.00000E+00 0.00000E+00 0.00000E+00 4.07299E-03 1.69934E-03 0.00000E+00
      292  1.25759E-03 2.80006E-04 0.00000E+00 0.00000E+00 0.00000E+00 0.00000E+00 0.00000E+00 0.00000E+00 0.00000E+00 4.37159E-03 8.99418E-04 0.00000E+00



 n o d a l   p r i n t   o u t   f o r   t i m e  s t e p    1519                              ( at time 8.0612436E+01 )

 nodal point  x-disp     y-disp      z-disp      x-vel       y-vel       z-vel      x-accl      y-accl      z-accl      x-coor      y-coor      z-coor
      269  1.37476E-03 0.00000E+00 0.00000E+00 0.00000E+00 0.00000E+00 0.00000E+00 0.00000E+00 0.00000E+00 0.00000E+00 4.54976E-03 0.00000E+00 1.77600E-18
      285  0.00000E+00 1.20822E-03 0.00000E+00 0.00000E+00 0.00000E+00 0.00000E+00 0.00000E+00 0.00000E+00 0.00000E+00 1.94400E-19 4.38322E-03 0.00000E+00
      286  2.58684E-04 1.17241E-03 0.00000E+00 0.00000E+00 0.00000E+00 0.00000E+00 0.00000E+00 0.00000E+00 0.00000E+00 8.78096E-04 4.28641E-03 0.00000E+00
      287  5.07461E-04 1.11374E-03 0.00000E+00 0.00000E+00 0.00000E+00 0.00000E+00 0.00000E+00 0.00000E+00 0.00000E+00 1.72246E-03 4.04704E-03 0.00000E+00
      288  7.29334E-04 1.01361E-03 0.00000E+00 0.00000E+00 0.00000E+00 0.00000E+00 0.00000E+00 0.00000E+00 0.00000E+00 2.49323E-03 3.65351E-03 0.00000E+00
      289  9.08681E-04 8.68745E-04 0.00000E+00 0.00000E+00 0.00000E+00 0.00000E+00 0.00000E+00 0.00000E+00 0.00000E+00 3.15378E-03 3.11384E-03 0.00000E+00
      290  1.07633E-03 7.12144E-04 0.00000E+00 0.00000E+00 0.00000E+00 0.00000E+00 0.00000E+00 0.00000E+00 0.00000E+00 3.71623E-03 2.47604E-03 0.00000E+00
      291  1.22089E-03 5.18967E-04 0.00000E+00 0.00000E+00 0.00000E+00 0.00000E+00 0.00000E+00 0.00000E+00 0.00000E+00 4.15419E-03 1.73397E-03 0.00000E+00
      292  1.34679E-03 2.97381E-04 0.00000E+00 0.00000E+00 0.00000E+00 0.00000E+00 0.00000E+00 0.00000E+00 0.00000E+00 4.46079E-03 9.16793E-04 0.00000E+00



 n o d a l   p r i n t   o u t   f o r   t i m e  s t e p    1531                              ( at time 8.4584077E+01 )

 nodal point  x-disp     y-disp      z-disp      x-vel       y-vel       z-vel      x-accl      y-accl      z-accl      x-coor      y-coor      z-coor
      269  1.47613E-03 0.00000E+00 0.00000E+00 0.00000E+00 0.00000E+00 0.00000E+00 0.00000E+00 0.00000E+00 0.00000E+00 4.65113E-03 0.00000E+00 1.77600E-18
      285  0.00000E+00 1.29691E-03 0.00000E+00 0.00000E+00 0.00000E+00 0.00000E+00 0.00000E+00 0.00000E+00 0.00000E+00 1.94400E-19 4.47191E-03 0.00000E+00
      286  2.82430E-04 1.25575E-03 0.00000E+00 0.00000E+00 0.00000E+00 0.00000E+00 0.00000E+00 0.00000E+00 0.00000E+00 9.01842E-04 4.36975E-03 0.00000E+00
      287  5.41135E-04 1.19030E-03 0.00000E+00 0.00000E+00 0.00000E+00 0.00000E+00 0.00000E+00 0.00000E+00 0.00000E+00 1.75614E-03 4.12360E-03 0.00000E+00
      288  7.87274E-04 1.08114E-03 0.00000E+00 0.00000E+00 0.00000E+00 0.00000E+00 0.00000E+00 0.00000E+00 0.00000E+00 2.55117E-03 3.72104E-03 0.00000E+00
      289  9.71772E-04 9.26313E-04 0.00000E+00 0.00000E+00 0.00000E+00 0.00000E+00 0.00000E+00 0.00000E+00 0.00000E+00 3.21687E-03 3.17141E-03 0.00000E+00
      290  1.15081E-03 7.66091E-04 0.00000E+00 0.00000E+00 0.00000E+00 0.00000E+00 0.00000E+00 0.00000E+00 0.00000E+00 3.79071E-03 2.52999E-03 0.00000E+00
      291  1.31118E-03 5.60457E-04 0.00000E+00 0.00000E+00 0.00000E+00 0.00000E+00 0.00000E+00 0.00000E+00 0.00000E+00 4.24448E-03 1.77546E-03 0.00000E+00
      292  1.44585E-03 3.17229E-04 0.00000E+00 0.00000E+00 0.00000E+00 0.00000E+00 0.00000E+00 0.00000E+00 0.00000E+00 4.55985E-03 9.36641E-04 0.00000E+00



 n o d a l   p r i n t   o u t   f o r   t i m e  s t e p    1539                              ( at time 8.8555718E+01 )

 nodal point  x-disp     y-disp      z-disp      x-vel       y-vel       z-vel      x-accl      y-accl      z-accl      x-coor      y-coor      z-coor
      269  1.54114E-03 0.00000E+00 0.00000E+00 0.00000E+00 0.00000E+00 0.00000E+00 0.00000E+00 0.00000E+00 0.00000E+00 4.71614E-03 0.00000E+00 1.77600E-18
      285  0.00000E+00 1.35526E-03 0.00000E+00 0.00000E+00 0.00000E+00 0.00000E+00 0.00000E+00 0.00000E+00 0.00000E+00 1.94400E-19 4.53026E-03 0.00000E+00
      286  2.95296E-04 1.31647E-03 0.00000E+00 0.00000E+00 0.00000E+00 0.00000E+00 0.00000E+00 0.00000E+00 0.00000E+00 9.14708E-04 4.43047E-03 0.00000E+00
      287  5.66585E-04 1.24520E-03 0.00000E+00 0.00000E+00 0.00000E+00 0.00000E+00 0.00000E+00 0.00000E+00 0.00000E+00 1.78159E-03 4.17850E-03 0.00000E+00
      288  8.22942E-04 1.13059E-03 0.00000E+00 0.00000E+00 0.00000E+00 0.00000E+00 0.00000E+00 0.00000E+00 0.00000E+00 2.58684E-03 3.77049E-03 0.00000E+00
      289  1.01609E-03 9.69327E-04 0.00000E+00 0.00000E+00 0.00000E+00 0.00000E+00 0.00000E+00 0.00000E+00 0.00000E+00 3.26119E-03 3.21443E-03 0.00000E+00
      290  1.20520E-03 7.98874E-04 0.00000E+00 0.00000E+00 0.00000E+00 0.00000E+00 0.00000E+00 0.00000E+00 0.00000E+00 3.84510E-03 2.56277E-03 0.00000E+00
      291  1.37001E-03 5.85685E-04 0.00000E+00 0.00000E+00 0.00000E+00 0.00000E+00 0.00000E+00 0.00000E+00 0.00000E+00 4.30331E-03 1.80068E-03 0.00000E+00
      292  1.50789E-03 3.30480E-04 0.00000E+00 0.00000E+00 0.00000E+00 0.00000E+00 0.00000E+00 0.00000E+00 0.00000E+00 4.62189E-03 9.49892E-04 0.00000E+00



 n o d a l   p r i n t   o u t   f o r   t i m e  s t e p    1548                              ( at time 9.2527359E+01 )

 nodal point  x-disp     y-disp      z-disp      x-vel       y-vel       z-vel      x-accl      y-accl      z-accl      x-coor      y-coor      z-coor
      269  1.62892E-03 0.00000E+00 0.00000E+00 0.00000E+00 0.00000E+00 0.00000E+00 0.00000E+00 0.00000E+00 0.00000E+00 4.80392E-03 0.00000E+00 1.77600E-18
      285  0.00000E+00 1.43675E-03 0.00000E+00 0.00000E+00 0.00000E+00 0.00000E+00 0.00000E+00 0.00000E+00 0.00000E+00 1.94400E-19 4.61175E-03 0.00000E+00
      286  3.11787E-04 1.39560E-03 0.00000E+00 0.00000E+00 0.00000E+00 0.00000E+00 0.00000E+00 0.00000E+00 0.00000E+00 9.31199E-04 4.50960E-03 0.00000E+00
      287  6.01662E-04 1.31721E-03 0.00000E+00 0.00000E+00 0.00000E+00 0.00000E+00 0.00000E+00 0.00000E+00 0.00000E+00 1.81666E-03 4.25051E-03 0.00000E+00
      288  8.73060E-04 1.19510E-03 0.00000E+00 0.00000E+00 0.00000E+00 0.00000E+00 0.00000E+00 0.00000E+00 0.00000E+00 2.63696E-03 3.83500E-03 0.00000E+00
      289  1.07375E-03 1.02392E-03 0.00000E+00 0.00000E+00 0.00000E+00 0.00000E+00 0.00000E+00 0.00000E+00 0.00000E+00 3.31885E-03 3.26902E-03 0.00000E+00
      290  1.27322E-03 8.44127E-04 0.00000E+00 0.00000E+00 0.00000E+00 0.00000E+00 0.00000E+00 0.00000E+00 0.00000E+00 3.91312E-03 2.60803E-03 0.00000E+00
      291  1.45021E-03 6.20191E-04 0.00000E+00 0.00000E+00 0.00000E+00 0.00000E+00 0.00000E+00 0.00000E+00 0.00000E+00 4.38351E-03 1.83519E-03 0.00000E+00
      292  1.59314E-03 3.48559E-04 0.00000E+00 0.00000E+00 0.00000E+00 0.00000E+00 0.00000E+00 0.00000E+00 0.00000E+00 4.70714E-03 9.67971E-04 0.00000E+00



 n o d a l   p r i n t   o u t   f o r   t i m e  s t e p    1559                              ( at time 9.6499001E+01 )

 nodal point  x-disp     y-disp      z-disp      x-vel       y-vel       z-vel      x-accl      y-accl      z-accl      x-coor      y-coor      z-coor
      269  1.74030E-03 0.00000E+00 0.00000E+00 0.00000E+00 0.00000E+00 0.00000E+00 0.00000E+00 0.00000E+00 0.00000E+00 4.91530E-03 0.00000E+00 1.77600E-18
      285  0.00000E+00 1.52925E-03 0.00000E+00 0.00000E+00 0.00000E+00 0.00000E+00 0.00000E+00 0.00000E+00 0.00000E+00 1.94400E-19 4.70425E-03 0.00000E+00
      286  3.32064E-04 1.48270E-03 0.00000E+00 0.00000E+00 0.00000E+00 0.00000E+00 0.00000E+00 0.00000E+00 0.00000E+00 9.51476E-04 4.59670E-03 0.00000E+00
      287  6.39192E-04 1.40020E-03 0.00000E+00 0.00000E+00 0.00000E+00 0.00000E+00 0.00000E+00 0.00000E+00 0.00000E+00 1.85419E-03 4.33350E-03 0.00000E+00
      288  9.29060E-04 1.26616E-03 0.00000E+00 0.00000E+00 0.00000E+00 0.00000E+00 0.00000E+00 0.00000E+00 0.00000E+00 2.69296E-03 3.90606E-03 0.00000E+00
      289  1.13776E-03 1.08772E-03 0.00000E+00 0.00000E+00 0.00000E+00 0.00000E+00 0.00000E+00 0.00000E+00 0.00000E+00 3.38286E-03 3.33282E-03 0.00000E+00
      290  1.35241E-03 8.99100E-04 0.00000E+00 0.00000E+00 0.00000E+00 0.00000E+00 0.00000E+00 0.00000E+00 0.00000E+00 3.99231E-03 2.66300E-03 0.00000E+00
      291  1.54059E-03 6.61790E-04 0.00000E+00 0.00000E+00 0.00000E+00 0.00000E+00 0.00000E+00 0.00000E+00 0.00000E+00 4.47389E-03 1.87679E-03 0.00000E+00
      292  1.69545E-03 3.70412E-04 0.00000E+00 0.00000E+00 0.00000E+00 0.00000E+00 0.00000E+00 0.00000E+00 0.00000E+00 4.80945E-03 9.89824E-04 0.00000E+00



 n o d a l   p r i n t   o u t   f o r   t i m e  s t e p    1566                              ( at time 1.0000000E+02 )

 nodal point  x-disp     y-disp      z-disp      x-vel       y-vel       z-vel      x-accl      y-accl      z-accl      x-coor      y-coor      z-coor
      269  1.80111E-03 0.00000E+00 0.00000E+00 0.00000E+00 0.00000E+00 0.00000E+00 0.00000E+00 0.00000E+00 0.00000E+00 4.97611E-03 0.00000E+00 1.77600E-18
      285  0.00000E+00 1.58620E-03 0.00000E+00 0.00000E+00 0.00000E+00 0.00000E+00 0.00000E+00 0.00000E+00 0.00000E+00 1.94400E-19 4.76120E-03 0.00000E+00
      286  3.44171E-04 1.53518E-03 0.00000E+00 0.00000E+00 0.00000E+00 0.00000E+00 0.00000E+00 0.00000E+00 0.00000E+00 9.63582E-04 4.64918E-03 0.00000E+00
      287  6.62446E-04 1.44983E-03 0.00000E+00 0.00000E+00 0.00000E+00 0.00000E+00 0.00000E+00 0.00000E+00 0.00000E+00 1.87745E-03 4.38313E-03 0.00000E+00
      288  9.61893E-04 1.30987E-03 0.00000E+00 0.00000E+00 0.00000E+00 0.00000E+00 0.00000E+00 0.00000E+00 0.00000E+00 2.72579E-03 3.94977E-03 0.00000E+00
      289  1.17928E-03 1.12610E-03 0.00000E+00 0.00000E+00 0.00000E+00 0.00000E+00 0.00000E+00 0.00000E+00 0.00000E+00 3.42438E-03 3.37120E-03 0.00000E+00
      290  1.40056E-03 9.29751E-04 0.00000E+00 0.00000E+00 0.00000E+00 0.00000E+00 0.00000E+00 0.00000E+00 0.00000E+00 4.04046E-03 2.69365E-03 0.00000E+00
      291  1.59542E-03 6.83987E-04 0.00000E+00 0.00000E+00 0.00000E+00 0.00000E+00 0.00000E+00 0.00000E+00 0.00000E+00 4.52872E-03 1.89899E-03 0.00000E+00
      292  1.75319E-03 3.81899E-04 0.00000E+00 0.00000E+00 0.00000E+00 0.00000E+00 0.00000E+00 0.00000E+00 0.00000E+00 4.86719E-03 1.00131E-03 0.00000E+00
