 LS-DYNA keyword deck by LS-PrePost                                      
                    ls-dyna smp d R14 R14.1.1s_1_ef50e1 date 06/16/2024

 n o d a l   f o r c e/e n e r g y    o u t p u t  t=   0.00000E+00

 velocity boundary condition forces/rigid body moments 

 nd#     179  xforce=   0.0000E+00   yforce=   0.0000E+00  zforce=   0.0000E+00   energy=   0.0000E+00   setid =     179 xmoment=   0.0000E+00 ymoment=   0.0000E+00 zmoment=   0.0000E+00
 nd#     180  xforce=   0.0000E+00   yforce=   0.0000E+00  zforce=   0.0000E+00   energy=   0.0000E+00   setid =     180 xmoment=   0.0000E+00 ymoment=   0.0000E+00 zmoment=   0.0000E+00
 nd#     181  xforce=   0.0000E+00   yforce=   0.0000E+00  zforce=   0.0000E+00   energy=   0.0000E+00   setid =     181 xmoment=   0.0000E+00 ymoment=   0.0000E+00 zmoment=   0.0000E+00
 nd#     182  xforce=   0.0000E+00   yforce=   0.0000E+00  zforce=   0.0000E+00   energy=   0.0000E+00   setid =     182 xmoment=   0.0000E+00 ymoment=   0.0000E+00 zmoment=   0.0000E+00
 nd#     247  xforce=   0.0000E+00   yforce=   0.0000E+00  zforce=   0.0000E+00   energy=   0.0000E+00   setid =     247 xmoment=   0.0000E+00 ymoment=   0.0000E+00 zmoment=   0.0000E+00
 nd#     248  xforce=   0.0000E+00   yforce=   0.0000E+00  zforce=   0.0000E+00   energy=   0.0000E+00   setid =     248 xmoment=   0.0000E+00 ymoment=   0.0000E+00 zmoment=   0.0000E+00
 nd#     249  xforce=   0.0000E+00   yforce=   0.0000E+00  zforce=   0.0000E+00   energy=   0.0000E+00   setid =     249 xmoment=   0.0000E+00 ymoment=   0.0000E+00 zmoment=   0.0000E+00
 nd#     250  xforce=   0.0000E+00   yforce=   0.0000E+00  zforce=   0.0000E+00   energy=   0.0000E+00   setid =     250 xmoment=   0.0000E+00 ymoment=   0.0000E+00 zmoment=   0.0000E+00
 nd#     283  xforce=   0.0000E+00   yforce=   0.0000E+00  zforce=   0.0000E+00   energy=   0.0000E+00   setid =     283 xmoment=   0.0000E+00 ymoment=   0.0000E+00 zmoment=   0.0000E+00
 nd#     284  xforce=   0.0000E+00   yforce=   0.0000E+00  zforce=   0.0000E+00   energy=   0.0000E+00   setid =     284 xmoment=   0.0000E+00 ymoment=   0.0000E+00 zmoment=   0.0000E+00
 nd#     333  xforce=   0.0000E+00   yforce=   0.0000E+00  zforce=   0.0000E+00   energy=   0.0000E+00   setid =     333 xmoment=   0.0000E+00 ymoment=   0.0000E+00 zmoment=   0.0000E+00
 nd#     334  xforce=   0.0000E+00   yforce=   0.0000E+00  zforce=   0.0000E+00   energy=   0.0000E+00   setid =     334 xmoment=   0.0000E+00 ymoment=   0.0000E+00 zmoment=   0.0000E+00
 nd#     335  xforce=   0.0000E+00   yforce=   0.0000E+00  zforce=   0.0000E+00   energy=   0.0000E+00   setid =     335 xmoment=   0.0000E+00 ymoment=   0.0000E+00 zmoment=   0.0000E+00
 nd#     368  xforce=   0.0000E+00   yforce=   0.0000E+00  zforce=   0.0000E+00   energy=   0.0000E+00   setid =     368 xmoment=   0.0000E+00 ymoment=   0.0000E+00 zmoment=   0.0000E+00
 nd#     369  xforce=   0.0000E+00   yforce=   0.0000E+00  zforce=   0.0000E+00   energy=   0.0000E+00   setid =     369 xmoment=   0.0000E+00 ymoment=   0.0000E+00 zmoment=   0.0000E+00
 nd#     386  xforce=   0.0000E+00   yforce=   0.0000E+00  zforce=   0.0000E+00   energy=   0.0000E+00   setid =     386 xmoment=   0.0000E+00 ymoment=   0.0000E+00 zmoment=   0.0000E+00
 nd#     403  xforce=   0.0000E+00   yforce=   0.0000E+00  zforce=   0.0000E+00   energy=   0.0000E+00   setid =     403 xmoment=   0.0000E+00 ymoment=   0.0000E+00 zmoment=   0.0000E+00
 nd#     436  xforce=   0.0000E+00   yforce=   0.0000E+00  zforce=   0.0000E+00   energy=   0.0000E+00   setid =     436 xmoment=   0.0000E+00 ymoment=   0.0000E+00 zmoment=   0.0000E+00
 nd#     437  xforce=   0.0000E+00   yforce=   0.0000E+00  zforce=   0.0000E+00   energy=   0.0000E+00   setid =     437 xmoment=   0.0000E+00 ymoment=   0.0000E+00 zmoment=   0.0000E+00
 nd#     438  xforce=   0.0000E+00   yforce=   0.0000E+00  zforce=   0.0000E+00   energy=   0.0000E+00   setid =     438 xmoment=   0.0000E+00 ymoment=   0.0000E+00 zmoment=   0.0000E+00
 nd#     439  xforce=   0.0000E+00   yforce=   0.0000E+00  zforce=   0.0000E+00   energy=   0.0000E+00   setid =     439 xmoment=   0.0000E+00 ymoment=   0.0000E+00 zmoment=   0.0000E+00
 nd#     440  xforce=   0.0000E+00   yforce=   0.0000E+00  zforce=   0.0000E+00   energy=   0.0000E+00   setid =     440 xmoment=   0.0000E+00 ymoment=   0.0000E+00 zmoment=   0.0000E+00
 nd#     441  xforce=   0.0000E+00   yforce=   0.0000E+00  zforce=   0.0000E+00   energy=   0.0000E+00   setid =     441 xmoment=   0.0000E+00 ymoment=   0.0000E+00 zmoment=   0.0000E+00
 nd#     442  xforce=   0.0000E+00   yforce=   0.0000E+00  zforce=   0.0000E+00   energy=   0.0000E+00   setid =     442 xmoment=   0.0000E+00 ymoment=   0.0000E+00 zmoment=   0.0000E+00
 nd#     443  xforce=   0.0000E+00   yforce=   0.0000E+00  zforce=   0.0000E+00   energy=   0.0000E+00   setid =     443 xmoment=   0.0000E+00 ymoment=   0.0000E+00 zmoment=   0.0000E+00
 nd#     444  xforce=   0.0000E+00   yforce=   0.0000E+00  zforce=   0.0000E+00   energy=   0.0000E+00   setid =     444 xmoment=   0.0000E+00 ymoment=   0.0000E+00 zmoment=   0.0000E+00
 nd#     628  xforce=   0.0000E+00   yforce=   0.0000E+00  zforce=   0.0000E+00   energy=   0.0000E+00   setid =     628 xmoment=   0.0000E+00 ymoment=   0.0000E+00 zmoment=   0.0000E+00
 nd#     631  xforce=   0.0000E+00   yforce=   0.0000E+00  zforce=   0.0000E+00   energy=   0.0000E+00   setid =     631 xmoment=   0.0000E+00 ymoment=   0.0000E+00 zmoment=   0.0000E+00
 nd#     632  xforce=   0.0000E+00   yforce=   0.0000E+00  zforce=   0.0000E+00   energy=   0.0000E+00   setid =     632 xmoment=   0.0000E+00 ymoment=   0.0000E+00 zmoment=   0.0000E+00
 nd#     635  xforce=   0.0000E+00   yforce=   0.0000E+00  zforce=   0.0000E+00   energy=   0.0000E+00   setid =     635 xmoment=   0.0000E+00 ymoment=   0.0000E+00 zmoment=   0.0000E+00
 nd#     636  xforce=   0.0000E+00   yforce=   0.0000E+00  zforce=   0.0000E+00   energy=   0.0000E+00   setid =     636 xmoment=   0.0000E+00 ymoment=   0.0000E+00 zmoment=   0.0000E+00
 nd#     639  xforce=   0.0000E+00   yforce=   0.0000E+00  zforce=   0.0000E+00   energy=   0.0000E+00   setid =     639 xmoment=   0.0000E+00 ymoment=   0.0000E+00 zmoment=   0.0000E+00
 nd#     640  xforce=   0.0000E+00   yforce=   0.0000E+00  zforce=   0.0000E+00   energy=   0.0000E+00   setid =     640 xmoment=   0.0000E+00 ymoment=   0.0000E+00 zmoment=   0.0000E+00
 nd#     643  xforce=   0.0000E+00   yforce=   0.0000E+00  zforce=   0.0000E+00   energy=   0.0000E+00   setid =     643 xmoment=   0.0000E+00 ymoment=   0.0000E+00 zmoment=   0.0000E+00
 nd#     692  xforce=   0.0000E+00   yforce=   0.0000E+00  zforce=   0.0000E+00   energy=   0.0000E+00   setid =     692 xmoment=   0.0000E+00 ymoment=   0.0000E+00 zmoment=   0.0000E+00
 nd#     694  xforce=   0.0000E+00   yforce=   0.0000E+00  zforce=   0.0000E+00   energy=   0.0000E+00   setid =     694 xmoment=   0.0000E+00 ymoment=   0.0000E+00 zmoment=   0.0000E+00
 nd#     696  xforce=   0.0000E+00   yforce=   0.0000E+00  zforce=   0.0000E+00   energy=   0.0000E+00   setid =     696 xmoment=   0.0000E+00 ymoment=   0.0000E+00 zmoment=   0.0000E+00
 nd#     698  xforce=   0.0000E+00   yforce=   0.0000E+00  zforce=   0.0000E+00   energy=   0.0000E+00   setid =     698 xmoment=   0.0000E+00 ymoment=   0.0000E+00 zmoment=   0.0000E+00
 nd#     900  xforce=   0.0000E+00   yforce=   0.0000E+00  zforce=   0.0000E+00   energy=   0.0000E+00   setid =     900 xmoment=   0.0000E+00 ymoment=   0.0000E+00 zmoment=   0.0000E+00
 nd#     902  xforce=   0.0000E+00   yforce=   0.0000E+00  zforce=   0.0000E+00   energy=   0.0000E+00   setid =     902 xmoment=   0.0000E+00 ymoment=   0.0000E+00 zmoment=   0.0000E+00
 nd#     903  xforce=   0.0000E+00   yforce=   0.0000E+00  zforce=   0.0000E+00   energy=   0.0000E+00   setid =     903 xmoment=   0.0000E+00 ymoment=   0.0000E+00 zmoment=   0.0000E+00
 nd#     905  xforce=   0.0000E+00   yforce=   0.0000E+00  zforce=   0.0000E+00   energy=   0.0000E+00   setid =     905 xmoment=   0.0000E+00 ymoment=   0.0000E+00 zmoment=   0.0000E+00
 nd#     906  xforce=   0.0000E+00   yforce=   0.0000E+00  zforce=   0.0000E+00   energy=   0.0000E+00   setid =     906 xmoment=   0.0000E+00 ymoment=   0.0000E+00 zmoment=   0.0000E+00
 nd#     908  xforce=   0.0000E+00   yforce=   0.0000E+00  zforce=   0.0000E+00   energy=   0.0000E+00   setid =     908 xmoment=   0.0000E+00 ymoment=   0.0000E+00 zmoment=   0.0000E+00
 nd#     909  xforce=   0.0000E+00   yforce=   0.0000E+00  zforce=   0.0000E+00   energy=   0.0000E+00   setid =     909 xmoment=   0.0000E+00 ymoment=   0.0000E+00 zmoment=   0.0000E+00
 nd#     911  xforce=   0.0000E+00   yforce=   0.0000E+00  zforce=   0.0000E+00   energy=   0.0000E+00   setid =     911 xmoment=   0.0000E+00 ymoment=   0.0000E+00 zmoment=   0.0000E+00
 nd#    1012  xforce=   0.0000E+00   yforce=   0.0000E+00  zforce=   0.0000E+00   energy=   0.0000E+00   setid =    1012 xmoment=   0.0000E+00 ymoment=   0.0000E+00 zmoment=   0.0000E+00
 nd#    1013  xforce=   0.0000E+00   yforce=   0.0000E+00  zforce=   0.0000E+00   energy=   0.0000E+00   setid =    1013 xmoment=   0.0000E+00 ymoment=   0.0000E+00 zmoment=   0.0000E+00
 nd#    1014  xforce=   0.0000E+00   yforce=   0.0000E+00  zforce=   0.0000E+00   energy=   0.0000E+00   setid =    1014 xmoment=   0.0000E+00 ymoment=   0.0000E+00 zmoment=   0.0000E+00
 nd#    1015  xforce=   0.0000E+00   yforce=   0.0000E+00  zforce=   0.0000E+00   energy=   0.0000E+00   setid =    1015 xmoment=   0.0000E+00 ymoment=   0.0000E+00 zmoment=   0.0000E+00
 nd#    1060  xforce=   0.0000E+00   yforce=   0.0000E+00  zforce=   0.0000E+00   energy=   0.0000E+00   setid =    1060 xmoment=   0.0000E+00 ymoment=   0.0000E+00 zmoment=   0.0000E+00
 nd#    1061  xforce=   0.0000E+00   yforce=   0.0000E+00  zforce=   0.0000E+00   energy=   0.0000E+00   setid =    1061 xmoment=   0.0000E+00 ymoment=   0.0000E+00 zmoment=   0.0000E+00
 nd#    1062  xforce=   0.0000E+00   yforce=   0.0000E+00  zforce=   0.0000E+00   energy=   0.0000E+00   setid =    1062 xmoment=   0.0000E+00 ymoment=   0.0000E+00 zmoment=   0.0000E+00
 nd#    1063  xforce=   0.0000E+00   yforce=   0.0000E+00  zforce=   0.0000E+00   energy=   0.0000E+00   setid =    1063 xmoment=   0.0000E+00 ymoment=   0.0000E+00 zmoment=   0.0000E+00
              xtotal=   0.0000E+00   ytotal=   0.0000E+00  ztotal=   0.0000E+00   etotal=   0.0000E+00

 n o d a l   f o r c e/e n e r g y    o u t p u t  t=   1.29245E+00

 velocity boundary condition forces/rigid body moments 

 nd#     179  xforce=   0.0000E+00   yforce=   0.0000E+00  zforce=  -3.0454E+01   energy=   1.9735E-04   setid =     179 xmoment=   0.0000E+00 ymoment=   0.0000E+00 zmoment=   0.0000E+00
 nd#     180  xforce=   0.0000E+00   yforce=   0.0000E+00  zforce=  -2.9016E+01   energy=   1.8927E-04   setid =     180 xmoment=   0.0000E+00 ymoment=   0.0000E+00 zmoment=   0.0000E+00
 nd#     181  xforce=   0.0000E+00   yforce=   0.0000E+00  zforce=  -3.4556E+01   energy=   2.2302E-04   setid =     181 xmoment=   0.0000E+00 ymoment=   0.0000E+00 zmoment=   0.0000E+00
 nd#     182  xforce=   0.0000E+00   yforce=   0.0000E+00  zforce=  -3.2136E+01   energy=   2.0750E-04   setid =     182 xmoment=   0.0000E+00 ymoment=   0.0000E+00 zmoment=   0.0000E+00
 nd#     247  xforce=   0.0000E+00   yforce=   0.0000E+00  zforce=  -1.6778E+01   energy=   1.0328E-04   setid =     247 xmoment=   0.0000E+00 ymoment=   0.0000E+00 zmoment=   0.0000E+00
 nd#     248  xforce=   0.0000E+00   yforce=   0.0000E+00  zforce=  -2.6922E+01   energy=   1.7492E-04   setid =     248 xmoment=   0.0000E+00 ymoment=   0.0000E+00 zmoment=   0.0000E+00
 nd#     249  xforce=   0.0000E+00   yforce=   0.0000E+00  zforce=  -1.9024E+01   energy=   1.1836E-04   setid =     249 xmoment=   0.0000E+00 ymoment=   0.0000E+00 zmoment=   0.0000E+00
 nd#     250  xforce=   0.0000E+00   yforce=   0.0000E+00  zforce=  -1.1391E+01   energy=   6.8723E-05   setid =     250 xmoment=   0.0000E+00 ymoment=   0.0000E+00 zmoment=   0.0000E+00
 nd#     283  xforce=   0.0000E+00   yforce=   0.0000E+00  zforce=  -1.9583E+01   energy=   1.2010E-04   setid =     283 xmoment=   0.0000E+00 ymoment=   0.0000E+00 zmoment=   0.0000E+00
 nd#     284  xforce=   0.0000E+00   yforce=   0.0000E+00  zforce=  -2.6976E+01   energy=   1.7581E-04   setid =     284 xmoment=   0.0000E+00 ymoment=   0.0000E+00 zmoment=   0.0000E+00
 nd#     333  xforce=   0.0000E+00   yforce=   0.0000E+00  zforce=  -1.8627E+01   energy=   1.2687E-04   setid =     333 xmoment=   0.0000E+00 ymoment=   0.0000E+00 zmoment=   0.0000E+00
 nd#     334  xforce=   0.0000E+00   yforce=   0.0000E+00  zforce=  -1.3507E+01   energy=   9.0107E-05   setid =     334 xmoment=   0.0000E+00 ymoment=   0.0000E+00 zmoment=   0.0000E+00
 nd#     335  xforce=   0.0000E+00   yforce=   0.0000E+00  zforce=  -3.0212E+01   energy=   1.9682E-04   setid =     335 xmoment=   0.0000E+00 ymoment=   0.0000E+00 zmoment=   0.0000E+00
 nd#     368  xforce=   0.0000E+00   yforce=   0.0000E+00  zforce=  -1.4825E+01   energy=   9.4505E-05   setid =     368 xmoment=   0.0000E+00 ymoment=   0.0000E+00 zmoment=   0.0000E+00
 nd#     369  xforce=   0.0000E+00   yforce=   0.0000E+00  zforce=  -1.8839E+01   energy=   1.1985E-04   setid =     369 xmoment=   0.0000E+00 ymoment=   0.0000E+00 zmoment=   0.0000E+00
 nd#     386  xforce=   0.0000E+00   yforce=   0.0000E+00  zforce=  -2.0709E+01   energy=   1.2937E-04   setid =     386 xmoment=   0.0000E+00 ymoment=   0.0000E+00 zmoment=   0.0000E+00
 nd#     403  xforce=   0.0000E+00   yforce=   0.0000E+00  zforce=  -1.7592E+01   energy=   1.1161E-04   setid =     403 xmoment=   0.0000E+00 ymoment=   0.0000E+00 zmoment=   0.0000E+00
 nd#     436  xforce=   0.0000E+00   yforce=   0.0000E+00  zforce=  -3.1486E+01   energy=   2.0349E-04   setid =     436 xmoment=   0.0000E+00 ymoment=   0.0000E+00 zmoment=   0.0000E+00
 nd#     437  xforce=   0.0000E+00   yforce=   0.0000E+00  zforce=  -1.8725E+01   energy=   1.1923E-04   setid =     437 xmoment=   0.0000E+00 ymoment=   0.0000E+00 zmoment=   0.0000E+00
 nd#     438  xforce=   0.0000E+00   yforce=   0.0000E+00  zforce=  -1.5432E+01   energy=   9.8737E-05   setid =     438 xmoment=   0.0000E+00 ymoment=   0.0000E+00 zmoment=   0.0000E+00
 nd#     439  xforce=   0.0000E+00   yforce=   0.0000E+00  zforce=  -1.6336E+01   energy=   1.0497E-04   setid =     439 xmoment=   0.0000E+00 ymoment=   0.0000E+00 zmoment=   0.0000E+00
 nd#     440  xforce=   0.0000E+00   yforce=   0.0000E+00  zforce=  -1.7071E+01   energy=   1.1018E-04   setid =     440 xmoment=   0.0000E+00 ymoment=   0.0000E+00 zmoment=   0.0000E+00
 nd#     441  xforce=   0.0000E+00   yforce=   0.0000E+00  zforce=  -1.7691E+01   energy=   1.1469E-04   setid =     441 xmoment=   0.0000E+00 ymoment=   0.0000E+00 zmoment=   0.0000E+00
 nd#     442  xforce=   0.0000E+00   yforce=   0.0000E+00  zforce=  -1.8230E+01   energy=   1.1876E-04   setid =     442 xmoment=   0.0000E+00 ymoment=   0.0000E+00 zmoment=   0.0000E+00
 nd#     443  xforce=   0.0000E+00   yforce=   0.0000E+00  zforce=  -1.8269E+01   energy=   1.1982E-04   setid =     443 xmoment=   0.0000E+00 ymoment=   0.0000E+00 zmoment=   0.0000E+00
 nd#     444  xforce=   0.0000E+00   yforce=   0.0000E+00  zforce=  -3.5283E+00   energy=   2.4120E-05   setid =     444 xmoment=   0.0000E+00 ymoment=   0.0000E+00 zmoment=   0.0000E+00
 nd#     628  xforce=   0.0000E+00   yforce=   0.0000E+00  zforce=  -3.3841E+01   energy=   2.1961E-04   setid =     628 xmoment=   0.0000E+00 ymoment=   0.0000E+00 zmoment=   0.0000E+00
 nd#     631  xforce=   0.0000E+00   yforce=   0.0000E+00  zforce=  -3.2002E+01   energy=   2.0729E-04   setid =     631 xmoment=   0.0000E+00 ymoment=   0.0000E+00 zmoment=   0.0000E+00
 nd#     632  xforce=   0.0000E+00   yforce=   0.0000E+00  zforce=  -3.3614E+01   energy=   2.1797E-04   setid =     632 xmoment=   0.0000E+00 ymoment=   0.0000E+00 zmoment=   0.0000E+00
 nd#     635  xforce=   0.0000E+00   yforce=   0.0000E+00  zforce=  -3.1354E+01   energy=   2.0312E-04   setid =     635 xmoment=   0.0000E+00 ymoment=   0.0000E+00 zmoment=   0.0000E+00
 nd#     636  xforce=   0.0000E+00   yforce=   0.0000E+00  zforce=  -3.4064E+01   energy=   2.2024E-04   setid =     636 xmoment=   0.0000E+00 ymoment=   0.0000E+00 zmoment=   0.0000E+00
 nd#     639  xforce=   0.0000E+00   yforce=   0.0000E+00  zforce=  -3.1646E+01   energy=   2.0450E-04   setid =     639 xmoment=   0.0000E+00 ymoment=   0.0000E+00 zmoment=   0.0000E+00
 nd#     640  xforce=   0.0000E+00   yforce=   0.0000E+00  zforce=  -1.7810E+01   energy=   1.1440E-04   setid =     640 xmoment=   0.0000E+00 ymoment=   0.0000E+00 zmoment=   0.0000E+00
 nd#     643  xforce=   0.0000E+00   yforce=   0.0000E+00  zforce=  -1.6762E+01   energy=   1.0744E-04   setid =     643 xmoment=   0.0000E+00 ymoment=   0.0000E+00 zmoment=   0.0000E+00
 nd#     692  xforce=   0.0000E+00   yforce=   0.0000E+00  zforce=  -3.5387E+01   energy=   2.3019E-04   setid =     692 xmoment=   0.0000E+00 ymoment=   0.0000E+00 zmoment=   0.0000E+00
 nd#     694  xforce=   0.0000E+00   yforce=   0.0000E+00  zforce=  -3.5561E+01   energy=   2.3095E-04   setid =     694 xmoment=   0.0000E+00 ymoment=   0.0000E+00 zmoment=   0.0000E+00
 nd#     696  xforce=   0.0000E+00   yforce=   0.0000E+00  zforce=  -3.6158E+01   energy=   2.3399E-04   setid =     696 xmoment=   0.0000E+00 ymoment=   0.0000E+00 zmoment=   0.0000E+00
 nd#     698  xforce=   0.0000E+00   yforce=   0.0000E+00  zforce=  -1.8712E+01   energy=   1.2046E-04   setid =     698 xmoment=   0.0000E+00 ymoment=   0.0000E+00 zmoment=   0.0000E+00
 nd#     900  xforce=   0.0000E+00   yforce=   0.0000E+00  zforce=  -3.6974E+01   energy=   2.4261E-04   setid =     900 xmoment=   0.0000E+00 ymoment=   0.0000E+00 zmoment=   0.0000E+00
 nd#     902  xforce=   0.0000E+00   yforce=   0.0000E+00  zforce=  -3.6695E+01   energy=   2.3945E-04   setid =     902 xmoment=   0.0000E+00 ymoment=   0.0000E+00 zmoment=   0.0000E+00
 nd#     903  xforce=   0.0000E+00   yforce=   0.0000E+00  zforce=  -3.7761E+01   energy=   2.4696E-04   setid =     903 xmoment=   0.0000E+00 ymoment=   0.0000E+00 zmoment=   0.0000E+00
 nd#     905  xforce=   0.0000E+00   yforce=   0.0000E+00  zforce=  -3.7199E+01   energy=   2.4215E-04   setid =     905 xmoment=   0.0000E+00 ymoment=   0.0000E+00 zmoment=   0.0000E+00
 nd#     906  xforce=   0.0000E+00   yforce=   0.0000E+00  zforce=  -3.8639E+01   energy=   2.5161E-04   setid =     906 xmoment=   0.0000E+00 ymoment=   0.0000E+00 zmoment=   0.0000E+00
 nd#     908  xforce=   0.0000E+00   yforce=   0.0000E+00  zforce=  -3.7988E+01   energy=   2.4624E-04   setid =     908 xmoment=   0.0000E+00 ymoment=   0.0000E+00 zmoment=   0.0000E+00
 nd#     909  xforce=   0.0000E+00   yforce=   0.0000E+00  zforce=  -1.9717E+01   energy=   1.2798E-04   setid =     909 xmoment=   0.0000E+00 ymoment=   0.0000E+00 zmoment=   0.0000E+00
 nd#     911  xforce=   0.0000E+00   yforce=   0.0000E+00  zforce=  -1.9515E+01   energy=   1.2596E-04   setid =     911 xmoment=   0.0000E+00 ymoment=   0.0000E+00 zmoment=   0.0000E+00
 nd#    1012  xforce=   0.0000E+00   yforce=   0.0000E+00  zforce=  -2.9908E+01   energy=   1.9345E-04   setid =    1012 xmoment=   0.0000E+00 ymoment=   0.0000E+00 zmoment=   0.0000E+00
 nd#    1013  xforce=   0.0000E+00   yforce=   0.0000E+00  zforce=  -2.8925E+01   energy=   1.8723E-04   setid =    1013 xmoment=   0.0000E+00 ymoment=   0.0000E+00 zmoment=   0.0000E+00
 nd#    1014  xforce=   0.0000E+00   yforce=   0.0000E+00  zforce=  -2.9249E+01   energy=   1.8885E-04   setid =    1014 xmoment=   0.0000E+00 ymoment=   0.0000E+00 zmoment=   0.0000E+00
 nd#    1015  xforce=   0.0000E+00   yforce=   0.0000E+00  zforce=  -1.5746E+01   energy=   1.0065E-04   setid =    1015 xmoment=   0.0000E+00 ymoment=   0.0000E+00 zmoment=   0.0000E+00
 nd#    1060  xforce=   0.0000E+00   yforce=   0.0000E+00  zforce=  -6.1238E+00   energy=   4.3381E-05   setid =    1060 xmoment=   0.0000E+00 ymoment=   0.0000E+00 zmoment=   0.0000E+00
 nd#    1061  xforce=   0.0000E+00   yforce=   0.0000E+00  zforce=  -4.1322E+00   energy=   3.1985E-05   setid =    1061 xmoment=   0.0000E+00 ymoment=   0.0000E+00 zmoment=   0.0000E+00
 nd#    1062  xforce=   0.0000E+00   yforce=   0.0000E+00  zforce=  -1.8301E+00   energy=   1.9262E-05   setid =    1062 xmoment=   0.0000E+00 ymoment=   0.0000E+00 zmoment=   0.0000E+00
 nd#    1063  xforce=   0.0000E+00   yforce=   0.0000E+00  zforce=  -5.5989E-01   energy=   8.0327E-06   setid =    1063 xmoment=   0.0000E+00 ymoment=   0.0000E+00 zmoment=   0.0000E+00
              xtotal=   0.0000E+00   ytotal=   0.0000E+00  ztotal=  -1.2758E+03   etotal=   8.2674E-03

 n o d a l   f o r c e/e n e r g y    o u t p u t  t=   2.54839E+00

 velocity boundary condition forces/rigid body moments 

 nd#     179  xforce=   0.0000E+00   yforce=   0.0000E+00  zforce=  -5.8768E+01   energy=   7.5763E-04   setid =     179 xmoment=   0.0000E+00 ymoment=   0.0000E+00 zmoment=   0.0000E+00
 nd#     180  xforce=   0.0000E+00   yforce=   0.0000E+00  zforce=  -5.5486E+01   energy=   7.1992E-04   setid =     180 xmoment=   0.0000E+00 ymoment=   0.0000E+00 zmoment=   0.0000E+00
 nd#     181  xforce=   0.0000E+00   yforce=   0.0000E+00  zforce=  -6.6079E+01   energy=   8.5498E-04   setid =     181 xmoment=   0.0000E+00 ymoment=   0.0000E+00 zmoment=   0.0000E+00
 nd#     182  xforce=   0.0000E+00   yforce=   0.0000E+00  zforce=  -6.1625E+01   energy=   7.9630E-04   setid =     182 xmoment=   0.0000E+00 ymoment=   0.0000E+00 zmoment=   0.0000E+00
 nd#     247  xforce=   0.0000E+00   yforce=   0.0000E+00  zforce=  -3.6691E+01   energy=   4.3905E-04   setid =     247 xmoment=   0.0000E+00 ymoment=   0.0000E+00 zmoment=   0.0000E+00
 nd#     248  xforce=   0.0000E+00   yforce=   0.0000E+00  zforce=  -5.0516E+01   energy=   6.6121E-04   setid =     248 xmoment=   0.0000E+00 ymoment=   0.0000E+00 zmoment=   0.0000E+00
 nd#     249  xforce=   0.0000E+00   yforce=   0.0000E+00  zforce=  -3.9003E+01   energy=   4.8276E-04   setid =     249 xmoment=   0.0000E+00 ymoment=   0.0000E+00 zmoment=   0.0000E+00
 nd#     250  xforce=   0.0000E+00   yforce=   0.0000E+00  zforce=  -2.5488E+01   energy=   3.0031E-04   setid =     250 xmoment=   0.0000E+00 ymoment=   0.0000E+00 zmoment=   0.0000E+00
 nd#     283  xforce=   0.0000E+00   yforce=   0.0000E+00  zforce=  -4.2022E+01   energy=   5.0695E-04   setid =     283 xmoment=   0.0000E+00 ymoment=   0.0000E+00 zmoment=   0.0000E+00
 nd#     284  xforce=   0.0000E+00   yforce=   0.0000E+00  zforce=  -4.9300E+01   energy=   6.5480E-04   setid =     284 xmoment=   0.0000E+00 ymoment=   0.0000E+00 zmoment=   0.0000E+00
 nd#     333  xforce=   0.0000E+00   yforce=   0.0000E+00  zforce=  -3.2907E+01   energy=   4.5049E-04   setid =     333 xmoment=   0.0000E+00 ymoment=   0.0000E+00 zmoment=   0.0000E+00
 nd#     334  xforce=   0.0000E+00   yforce=   0.0000E+00  zforce=  -2.4689E+01   energy=   3.2996E-04   setid =     334 xmoment=   0.0000E+00 ymoment=   0.0000E+00 zmoment=   0.0000E+00
 nd#     335  xforce=   0.0000E+00   yforce=   0.0000E+00  zforce=  -5.7593E+01   energy=   7.4821E-04   setid =     335 xmoment=   0.0000E+00 ymoment=   0.0000E+00 zmoment=   0.0000E+00
 nd#     368  xforce=   0.0000E+00   yforce=   0.0000E+00  zforce=  -3.0002E+01   energy=   3.7601E-04   setid =     368 xmoment=   0.0000E+00 ymoment=   0.0000E+00 zmoment=   0.0000E+00
 nd#     369  xforce=   0.0000E+00   yforce=   0.0000E+00  zforce=  -3.7630E+01   energy=   4.7447E-04   setid =     369 xmoment=   0.0000E+00 ymoment=   0.0000E+00 zmoment=   0.0000E+00
 nd#     386  xforce=   0.0000E+00   yforce=   0.0000E+00  zforce=  -4.3252E+01   energy=   5.3103E-04   setid =     386 xmoment=   0.0000E+00 ymoment=   0.0000E+00 zmoment=   0.0000E+00
 nd#     403  xforce=   0.0000E+00   yforce=   0.0000E+00  zforce=  -3.5514E+01   energy=   4.4510E-04   setid =     403 xmoment=   0.0000E+00 ymoment=   0.0000E+00 zmoment=   0.0000E+00
 nd#     436  xforce=   0.0000E+00   yforce=   0.0000E+00  zforce=  -6.0833E+01   energy=   7.8322E-04   setid =     436 xmoment=   0.0000E+00 ymoment=   0.0000E+00 zmoment=   0.0000E+00
 nd#     437  xforce=   0.0000E+00   yforce=   0.0000E+00  zforce=  -3.7209E+01   energy=   4.7048E-04   setid =     437 xmoment=   0.0000E+00 ymoment=   0.0000E+00 zmoment=   0.0000E+00
 nd#     438  xforce=   0.0000E+00   yforce=   0.0000E+00  zforce=  -3.0552E+01   energy=   3.8750E-04   setid =     438 xmoment=   0.0000E+00 ymoment=   0.0000E+00 zmoment=   0.0000E+00
 nd#     439  xforce=   0.0000E+00   yforce=   0.0000E+00  zforce=  -3.2027E+01   energy=   4.0867E-04   setid =     439 xmoment=   0.0000E+00 ymoment=   0.0000E+00 zmoment=   0.0000E+00
 nd#     440  xforce=   0.0000E+00   yforce=   0.0000E+00  zforce=  -3.3169E+01   energy=   4.2568E-04   setid =     440 xmoment=   0.0000E+00 ymoment=   0.0000E+00 zmoment=   0.0000E+00
 nd#     441  xforce=   0.0000E+00   yforce=   0.0000E+00  zforce=  -3.4073E+01   energy=   4.3975E-04   setid =     441 xmoment=   0.0000E+00 ymoment=   0.0000E+00 zmoment=   0.0000E+00
 nd#     442  xforce=   0.0000E+00   yforce=   0.0000E+00  zforce=  -3.4776E+01   energy=   4.5163E-04   setid =     442 xmoment=   0.0000E+00 ymoment=   0.0000E+00 zmoment=   0.0000E+00
 nd#     443  xforce=   0.0000E+00   yforce=   0.0000E+00  zforce=  -3.4376E+01   energy=   4.5041E-04   setid =     443 xmoment=   0.0000E+00 ymoment=   0.0000E+00 zmoment=   0.0000E+00
 nd#     444  xforce=   0.0000E+00   yforce=   0.0000E+00  zforce=  -6.0079E+00   energy=   8.4004E-05   setid =     444 xmoment=   0.0000E+00 ymoment=   0.0000E+00 zmoment=   0.0000E+00
 nd#     628  xforce=   0.0000E+00   yforce=   0.0000E+00  zforce=  -6.4594E+01   energy=   8.3776E-04   setid =     628 xmoment=   0.0000E+00 ymoment=   0.0000E+00 zmoment=   0.0000E+00
 nd#     631  xforce=   0.0000E+00   yforce=   0.0000E+00  zforce=  -6.1206E+01   energy=   7.9260E-04   setid =     631 xmoment=   0.0000E+00 ymoment=   0.0000E+00 zmoment=   0.0000E+00
 nd#     632  xforce=   0.0000E+00   yforce=   0.0000E+00  zforce=  -6.4610E+01   energy=   8.3479E-04   setid =     632 xmoment=   0.0000E+00 ymoment=   0.0000E+00 zmoment=   0.0000E+00
 nd#     635  xforce=   0.0000E+00   yforce=   0.0000E+00  zforce=  -6.0418E+01   energy=   7.7942E-04   setid =     635 xmoment=   0.0000E+00 ymoment=   0.0000E+00 zmoment=   0.0000E+00
 nd#     636  xforce=   0.0000E+00   yforce=   0.0000E+00  zforce=  -6.5800E+01   energy=   8.4736E-04   setid =     636 xmoment=   0.0000E+00 ymoment=   0.0000E+00 zmoment=   0.0000E+00
 nd#     639  xforce=   0.0000E+00   yforce=   0.0000E+00  zforce=  -6.1174E+01   energy=   7.8739E-04   setid =     639 xmoment=   0.0000E+00 ymoment=   0.0000E+00 zmoment=   0.0000E+00
 nd#     640  xforce=   0.0000E+00   yforce=   0.0000E+00  zforce=  -3.4832E+01   energy=   4.4497E-04   setid =     640 xmoment=   0.0000E+00 ymoment=   0.0000E+00 zmoment=   0.0000E+00
 nd#     643  xforce=   0.0000E+00   yforce=   0.0000E+00  zforce=  -3.2920E+01   energy=   4.1943E-04   setid =     643 xmoment=   0.0000E+00 ymoment=   0.0000E+00 zmoment=   0.0000E+00
 nd#     692  xforce=   0.0000E+00   yforce=   0.0000E+00  zforce=  -6.7338E+01   energy=   8.7528E-04   setid =     692 xmoment=   0.0000E+00 ymoment=   0.0000E+00 zmoment=   0.0000E+00
 nd#     694  xforce=   0.0000E+00   yforce=   0.0000E+00  zforce=  -6.8141E+01   energy=   8.8217E-04   setid =     694 xmoment=   0.0000E+00 ymoment=   0.0000E+00 zmoment=   0.0000E+00
 nd#     696  xforce=   0.0000E+00   yforce=   0.0000E+00  zforce=  -6.9755E+01   energy=   8.9909E-04   setid =     696 xmoment=   0.0000E+00 ymoment=   0.0000E+00 zmoment=   0.0000E+00
 nd#     698  xforce=   0.0000E+00   yforce=   0.0000E+00  zforce=  -3.6447E+01   energy=   4.6685E-04   setid =     698 xmoment=   0.0000E+00 ymoment=   0.0000E+00 zmoment=   0.0000E+00
 nd#     900  xforce=   0.0000E+00   yforce=   0.0000E+00  zforce=  -6.9295E+01   energy=   9.0994E-04   setid =     900 xmoment=   0.0000E+00 ymoment=   0.0000E+00 zmoment=   0.0000E+00
 nd#     902  xforce=   0.0000E+00   yforce=   0.0000E+00  zforce=  -6.9495E+01   energy=   9.0629E-04   setid =     902 xmoment=   0.0000E+00 ymoment=   0.0000E+00 zmoment=   0.0000E+00
 nd#     903  xforce=   0.0000E+00   yforce=   0.0000E+00  zforce=  -7.1398E+01   energy=   9.3245E-04   setid =     903 xmoment=   0.0000E+00 ymoment=   0.0000E+00 zmoment=   0.0000E+00
 nd#     905  xforce=   0.0000E+00   yforce=   0.0000E+00  zforce=  -7.0959E+01   energy=   9.2135E-04   setid =     905 xmoment=   0.0000E+00 ymoment=   0.0000E+00 zmoment=   0.0000E+00
 nd#     906  xforce=   0.0000E+00   yforce=   0.0000E+00  zforce=  -7.3710E+01   energy=   9.5713E-04   setid =     906 xmoment=   0.0000E+00 ymoment=   0.0000E+00 zmoment=   0.0000E+00
 nd#     908  xforce=   0.0000E+00   yforce=   0.0000E+00  zforce=  -7.3092E+01   energy=   9.4379E-04   setid =     908 xmoment=   0.0000E+00 ymoment=   0.0000E+00 zmoment=   0.0000E+00
 nd#     909  xforce=   0.0000E+00   yforce=   0.0000E+00  zforce=  -3.7818E+01   energy=   4.8929E-04   setid =     909 xmoment=   0.0000E+00 ymoment=   0.0000E+00 zmoment=   0.0000E+00
 nd#     911  xforce=   0.0000E+00   yforce=   0.0000E+00  zforce=  -3.7834E+01   energy=   4.8610E-04   setid =     911 xmoment=   0.0000E+00 ymoment=   0.0000E+00 zmoment=   0.0000E+00
 nd#    1012  xforce=   0.0000E+00   yforce=   0.0000E+00  zforce=  -5.7275E+01   energy=   7.4093E-04   setid =    1012 xmoment=   0.0000E+00 ymoment=   0.0000E+00 zmoment=   0.0000E+00
 nd#    1013  xforce=   0.0000E+00   yforce=   0.0000E+00  zforce=  -5.5891E+01   energy=   7.1985E-04   setid =    1013 xmoment=   0.0000E+00 ymoment=   0.0000E+00 zmoment=   0.0000E+00
 nd#    1014  xforce=   0.0000E+00   yforce=   0.0000E+00  zforce=  -5.6640E+01   energy=   7.2821E-04   setid =    1014 xmoment=   0.0000E+00 ymoment=   0.0000E+00 zmoment=   0.0000E+00
 nd#    1015  xforce=   0.0000E+00   yforce=   0.0000E+00  zforce=  -3.1093E+01   energy=   3.9478E-04   setid =    1015 xmoment=   0.0000E+00 ymoment=   0.0000E+00 zmoment=   0.0000E+00
 nd#    1060  xforce=   0.0000E+00   yforce=   0.0000E+00  zforce=  -9.4486E+00   energy=   1.4117E-04   setid =    1060 xmoment=   0.0000E+00 ymoment=   0.0000E+00 zmoment=   0.0000E+00
 nd#    1061  xforce=   0.0000E+00   yforce=   0.0000E+00  zforce=  -4.9438E+00   energy=   8.8979E-05   setid =    1061 xmoment=   0.0000E+00 ymoment=   0.0000E+00 zmoment=   0.0000E+00
 nd#    1062  xforce=   0.0000E+00   yforce=   0.0000E+00  zforce=   6.5454E-01   energy=   2.6644E-05   setid =    1062 xmoment=   0.0000E+00 ymoment=   0.0000E+00 zmoment=   0.0000E+00
 nd#    1063  xforce=   0.0000E+00   yforce=   0.0000E+00  zforce=   1.7355E+00   energy=   6.5028E-07   setid =    1063 xmoment=   0.0000E+00 ymoment=   0.0000E+00 zmoment=   0.0000E+00
              xtotal=   0.0000E+00   ytotal=   0.0000E+00  ztotal=  -2.4533E+03   etotal=   3.1685E-02

 n o d a l   f o r c e/e n e r g y    o u t p u t  t=   3.47231E+00

 velocity boundary condition forces/rigid body moments 

 nd#     179  xforce=   0.0000E+00   yforce=   0.0000E+00  zforce=  -7.8624E+01   energy=   1.3923E-03   setid =     179 xmoment=   0.0000E+00 ymoment=   0.0000E+00 zmoment=   0.0000E+00
 nd#     180  xforce=   0.0000E+00   yforce=   0.0000E+00  zforce=  -9.8762E+01   energy=   1.4325E-03   setid =     180 xmoment=   0.0000E+00 ymoment=   0.0000E+00 zmoment=   0.0000E+00
 nd#     181  xforce=   0.0000E+00   yforce=   0.0000E+00  zforce=  -1.0549E+02   energy=   1.6476E-03   setid =     181 xmoment=   0.0000E+00 ymoment=   0.0000E+00 zmoment=   0.0000E+00
 nd#     182  xforce=   0.0000E+00   yforce=   0.0000E+00  zforce=  -7.8890E+01   energy=   1.4454E-03   setid =     182 xmoment=   0.0000E+00 ymoment=   0.0000E+00 zmoment=   0.0000E+00
 nd#     247  xforce=   0.0000E+00   yforce=   0.0000E+00  zforce=  -4.8689E+01   energy=   8.3347E-04   setid =     247 xmoment=   0.0000E+00 ymoment=   0.0000E+00 zmoment=   0.0000E+00
 nd#     248  xforce=   0.0000E+00   yforce=   0.0000E+00  zforce=  -7.6936E+01   energy=   1.2500E-03   setid =     248 xmoment=   0.0000E+00 ymoment=   0.0000E+00 zmoment=   0.0000E+00
 nd#     249  xforce=   0.0000E+00   yforce=   0.0000E+00  zforce=  -5.5635E+01   energy=   9.1995E-04   setid =     249 xmoment=   0.0000E+00 ymoment=   0.0000E+00 zmoment=   0.0000E+00
 nd#     250  xforce=   0.0000E+00   yforce=   0.0000E+00  zforce=  -3.8229E+01   energy=   5.9466E-04   setid =     250 xmoment=   0.0000E+00 ymoment=   0.0000E+00 zmoment=   0.0000E+00
 nd#     283  xforce=   0.0000E+00   yforce=   0.0000E+00  zforce=  -1.0563E+02   energy=   1.1890E-03   setid =     283 xmoment=   0.0000E+00 ymoment=   0.0000E+00 zmoment=   0.0000E+00
 nd#     284  xforce=   0.0000E+00   yforce=   0.0000E+00  zforce=  -1.4585E+02   energy=   1.5563E-03   setid =     284 xmoment=   0.0000E+00 ymoment=   0.0000E+00 zmoment=   0.0000E+00
 nd#     333  xforce=   0.0000E+00   yforce=   0.0000E+00  zforce=  -1.8986E+01   energy=   6.9021E-04   setid =     333 xmoment=   0.0000E+00 ymoment=   0.0000E+00 zmoment=   0.0000E+00
 nd#     334  xforce=   0.0000E+00   yforce=   0.0000E+00  zforce=  -7.5711E+01   energy=   7.9377E-04   setid =     334 xmoment=   0.0000E+00 ymoment=   0.0000E+00 zmoment=   0.0000E+00
 nd#     335  xforce=   0.0000E+00   yforce=   0.0000E+00  zforce=  -1.0437E+02   energy=   1.4964E-03   setid =     335 xmoment=   0.0000E+00 ymoment=   0.0000E+00 zmoment=   0.0000E+00
 nd#     368  xforce=   0.0000E+00   yforce=   0.0000E+00  zforce=  -2.4682E+00   energy=   5.2601E-04   setid =     368 xmoment=   0.0000E+00 ymoment=   0.0000E+00 zmoment=   0.0000E+00
 nd#     369  xforce=   0.0000E+00   yforce=   0.0000E+00  zforce=  -4.4247E+01   energy=   8.5271E-04   setid =     369 xmoment=   0.0000E+00 ymoment=   0.0000E+00 zmoment=   0.0000E+00
 nd#     386  xforce=   0.0000E+00   yforce=   0.0000E+00  zforce=  -6.4660E+01   energy=   1.0295E-03   setid =     386 xmoment=   0.0000E+00 ymoment=   0.0000E+00 zmoment=   0.0000E+00
 nd#     403  xforce=   0.0000E+00   yforce=   0.0000E+00  zforce=  -4.0975E+01   energy=   7.9845E-04   setid =     403 xmoment=   0.0000E+00 ymoment=   0.0000E+00 zmoment=   0.0000E+00
 nd#     436  xforce=   0.0000E+00   yforce=   0.0000E+00  zforce=  -1.0337E+02   energy=   1.5418E-03   setid =     436 xmoment=   0.0000E+00 ymoment=   0.0000E+00 zmoment=   0.0000E+00
 nd#     437  xforce=   0.0000E+00   yforce=   0.0000E+00  zforce=  -4.3288E+01   energy=   8.4235E-04   setid =     437 xmoment=   0.0000E+00 ymoment=   0.0000E+00 zmoment=   0.0000E+00
 nd#     438  xforce=   0.0000E+00   yforce=   0.0000E+00  zforce=  -3.0331E+01   energy=   6.6876E-04   setid =     438 xmoment=   0.0000E+00 ymoment=   0.0000E+00 zmoment=   0.0000E+00
 nd#     439  xforce=   0.0000E+00   yforce=   0.0000E+00  zforce=  -3.0466E+01   energy=   6.9737E-04   setid =     439 xmoment=   0.0000E+00 ymoment=   0.0000E+00 zmoment=   0.0000E+00
 nd#     440  xforce=   0.0000E+00   yforce=   0.0000E+00  zforce=  -2.9890E+01   energy=   7.1699E-04   setid =     440 xmoment=   0.0000E+00 ymoment=   0.0000E+00 zmoment=   0.0000E+00
 nd#     441  xforce=   0.0000E+00   yforce=   0.0000E+00  zforce=  -2.9582E+01   energy=   7.3381E-04   setid =     441 xmoment=   0.0000E+00 ymoment=   0.0000E+00 zmoment=   0.0000E+00
 nd#     442  xforce=   0.0000E+00   yforce=   0.0000E+00  zforce=  -3.1257E+01   energy=   7.5668E-04   setid =     442 xmoment=   0.0000E+00 ymoment=   0.0000E+00 zmoment=   0.0000E+00
 nd#     443  xforce=   0.0000E+00   yforce=   0.0000E+00  zforce=  -2.6889E+01   energy=   7.3343E-04   setid =     443 xmoment=   0.0000E+00 ymoment=   0.0000E+00 zmoment=   0.0000E+00
 nd#     444  xforce=   0.0000E+00   yforce=   0.0000E+00  zforce=   1.1932E+01   energy=   5.6637E-05   setid =     444 xmoment=   0.0000E+00 ymoment=   0.0000E+00 zmoment=   0.0000E+00
 nd#     628  xforce=   0.0000E+00   yforce=   0.0000E+00  zforce=  -6.0876E+01   energy=   1.4174E-03   setid =     628 xmoment=   0.0000E+00 ymoment=   0.0000E+00 zmoment=   0.0000E+00
 nd#     631  xforce=   0.0000E+00   yforce=   0.0000E+00  zforce=  -5.7789E+01   energy=   1.3423E-03   setid =     631 xmoment=   0.0000E+00 ymoment=   0.0000E+00 zmoment=   0.0000E+00
 nd#     632  xforce=   0.0000E+00   yforce=   0.0000E+00  zforce=  -7.6787E+01   energy=   1.4880E-03   setid =     632 xmoment=   0.0000E+00 ymoment=   0.0000E+00 zmoment=   0.0000E+00
 nd#     635  xforce=   0.0000E+00   yforce=   0.0000E+00  zforce=  -6.9632E+01   energy=   1.3802E-03   setid =     635 xmoment=   0.0000E+00 ymoment=   0.0000E+00 zmoment=   0.0000E+00
 nd#     636  xforce=   0.0000E+00   yforce=   0.0000E+00  zforce=  -9.4867E+01   energy=   1.5896E-03   setid =     636 xmoment=   0.0000E+00 ymoment=   0.0000E+00 zmoment=   0.0000E+00
 nd#     639  xforce=   0.0000E+00   yforce=   0.0000E+00  zforce=  -8.8517E+01   energy=   1.4789E-03   setid =     639 xmoment=   0.0000E+00 ymoment=   0.0000E+00 zmoment=   0.0000E+00
 nd#     640  xforce=   0.0000E+00   yforce=   0.0000E+00  zforce=  -4.3187E+01   energy=   8.0539E-04   setid =     640 xmoment=   0.0000E+00 ymoment=   0.0000E+00 zmoment=   0.0000E+00
 nd#     643  xforce=   0.0000E+00   yforce=   0.0000E+00  zforce=  -4.1960E+01   energy=   7.6535E-04   setid =     643 xmoment=   0.0000E+00 ymoment=   0.0000E+00 zmoment=   0.0000E+00
 nd#     692  xforce=   0.0000E+00   yforce=   0.0000E+00  zforce=  -6.2452E+01   energy=   1.4749E-03   setid =     692 xmoment=   0.0000E+00 ymoment=   0.0000E+00 zmoment=   0.0000E+00
 nd#     694  xforce=   0.0000E+00   yforce=   0.0000E+00  zforce=  -8.2440E+01   energy=   1.5778E-03   setid =     694 xmoment=   0.0000E+00 ymoment=   0.0000E+00 zmoment=   0.0000E+00
 nd#     696  xforce=   0.0000E+00   yforce=   0.0000E+00  zforce=  -1.0598E+02   energy=   1.7109E-03   setid =     696 xmoment=   0.0000E+00 ymoment=   0.0000E+00 zmoment=   0.0000E+00
 nd#     698  xforce=   0.0000E+00   yforce=   0.0000E+00  zforce=  -4.3199E+01   energy=   8.3478E-04   setid =     698 xmoment=   0.0000E+00 ymoment=   0.0000E+00 zmoment=   0.0000E+00
 nd#     900  xforce=   0.0000E+00   yforce=   0.0000E+00  zforce=  -4.4983E+01   energy=   1.4379E-03   setid =     900 xmoment=   0.0000E+00 ymoment=   0.0000E+00 zmoment=   0.0000E+00
 nd#     902  xforce=   0.0000E+00   yforce=   0.0000E+00  zforce=  -6.4597E+01   energy=   1.5257E-03   setid =     902 xmoment=   0.0000E+00 ymoment=   0.0000E+00 zmoment=   0.0000E+00
 nd#     903  xforce=   0.0000E+00   yforce=   0.0000E+00  zforce=  -7.4557E+01   energy=   1.6067E-03   setid =     903 xmoment=   0.0000E+00 ymoment=   0.0000E+00 zmoment=   0.0000E+00
 nd#     905  xforce=   0.0000E+00   yforce=   0.0000E+00  zforce=  -8.5293E+01   energy=   1.6432E-03   setid =     905 xmoment=   0.0000E+00 ymoment=   0.0000E+00 zmoment=   0.0000E+00
 nd#     906  xforce=   0.0000E+00   yforce=   0.0000E+00  zforce=  -7.5583E+01   energy=   1.6468E-03   setid =     906 xmoment=   0.0000E+00 ymoment=   0.0000E+00 zmoment=   0.0000E+00
 nd#     908  xforce=   0.0000E+00   yforce=   0.0000E+00  zforce=  -1.1357E+02   energy=   1.8061E-03   setid =     908 xmoment=   0.0000E+00 ymoment=   0.0000E+00 zmoment=   0.0000E+00
 nd#     909  xforce=   0.0000E+00   yforce=   0.0000E+00  zforce=  -1.6724E+01   energy=   7.4125E-04   setid =     909 xmoment=   0.0000E+00 ymoment=   0.0000E+00 zmoment=   0.0000E+00
 nd#     911  xforce=   0.0000E+00   yforce=   0.0000E+00  zforce=  -3.3238E+01   energy=   8.1443E-04   setid =     911 xmoment=   0.0000E+00 ymoment=   0.0000E+00 zmoment=   0.0000E+00
 nd#    1012  xforce=   0.0000E+00   yforce=   0.0000E+00  zforce=  -6.2929E+01   energy=   1.2962E-03   setid =    1012 xmoment=   0.0000E+00 ymoment=   0.0000E+00 zmoment=   0.0000E+00
 nd#    1013  xforce=   0.0000E+00   yforce=   0.0000E+00  zforce=  -7.5140E+01   energy=   1.3252E-03   setid =    1013 xmoment=   0.0000E+00 ymoment=   0.0000E+00 zmoment=   0.0000E+00
 nd#    1014  xforce=   0.0000E+00   yforce=   0.0000E+00  zforce=  -9.2529E+01   energy=   1.4173E-03   setid =    1014 xmoment=   0.0000E+00 ymoment=   0.0000E+00 zmoment=   0.0000E+00
 nd#    1015  xforce=   0.0000E+00   yforce=   0.0000E+00  zforce=  -3.8786E+01   energy=   7.1760E-04   setid =    1015 xmoment=   0.0000E+00 ymoment=   0.0000E+00 zmoment=   0.0000E+00
 nd#    1060  xforce=   0.0000E+00   yforce=   0.0000E+00  zforce=   5.0713E+01   energy=  -4.9456E-05   setid =    1060 xmoment=   0.0000E+00 ymoment=   0.0000E+00 zmoment=   0.0000E+00
 nd#    1061  xforce=   0.0000E+00   yforce=   0.0000E+00  zforce=   6.3094E+01   energy=  -1.7965E-04   setid =    1061 xmoment=   0.0000E+00 ymoment=   0.0000E+00 zmoment=   0.0000E+00
 nd#    1062  xforce=   0.0000E+00   yforce=   0.0000E+00  zforce=   9.7204E+01   energy=  -4.2542E-04   setid =    1062 xmoment=   0.0000E+00 ymoment=   0.0000E+00 zmoment=   0.0000E+00
 nd#    1063  xforce=   0.0000E+00   yforce=   0.0000E+00  zforce=   5.6702E+01   energy=  -2.6931E-04   setid =    1063 xmoment=   0.0000E+00 ymoment=   0.0000E+00 zmoment=   0.0000E+00
              xtotal=   0.0000E+00   ytotal=   0.0000E+00  ztotal=  -2.8352E+03   etotal=   5.6116E-02

 n o d a l   f o r c e/e n e r g y    o u t p u t  t=   4.66927E+00

 velocity boundary condition forces/rigid body moments 

 nd#     179  xforce=   0.0000E+00   yforce=   0.0000E+00  zforce=  -8.1189E+01   energy=   2.3530E-03   setid =     179 xmoment=   0.0000E+00 ymoment=   0.0000E+00 zmoment=   0.0000E+00
 nd#     180  xforce=   0.0000E+00   yforce=   0.0000E+00  zforce=  -8.5156E+01   energy=   2.5986E-03   setid =     180 xmoment=   0.0000E+00 ymoment=   0.0000E+00 zmoment=   0.0000E+00
 nd#     181  xforce=   0.0000E+00   yforce=   0.0000E+00  zforce=  -1.2868E+02   energy=   2.9722E-03   setid =     181 xmoment=   0.0000E+00 ymoment=   0.0000E+00 zmoment=   0.0000E+00
 nd#     182  xforce=   0.0000E+00   yforce=   0.0000E+00  zforce=  -1.1362E+02   energy=   2.4941E-03   setid =     182 xmoment=   0.0000E+00 ymoment=   0.0000E+00 zmoment=   0.0000E+00
 nd#     247  xforce=   0.0000E+00   yforce=   0.0000E+00  zforce=  -2.3315E+01   energy=   1.4321E-03   setid =     247 xmoment=   0.0000E+00 ymoment=   0.0000E+00 zmoment=   0.0000E+00
 nd#     248  xforce=   0.0000E+00   yforce=   0.0000E+00  zforce=  -1.0392E+02   energy=   2.2040E-03   setid =     248 xmoment=   0.0000E+00 ymoment=   0.0000E+00 zmoment=   0.0000E+00
 nd#     249  xforce=   0.0000E+00   yforce=   0.0000E+00  zforce=  -7.2474E+01   energy=   1.6511E-03   setid =     249 xmoment=   0.0000E+00 ymoment=   0.0000E+00 zmoment=   0.0000E+00
 nd#     250  xforce=   0.0000E+00   yforce=   0.0000E+00  zforce=  -2.5720E+01   energy=   1.0432E-03   setid =     250 xmoment=   0.0000E+00 ymoment=   0.0000E+00 zmoment=   0.0000E+00
 nd#     283  xforce=   0.0000E+00   yforce=   0.0000E+00  zforce=  -8.3049E+01   energy=   2.4105E-03   setid =     283 xmoment=   0.0000E+00 ymoment=   0.0000E+00 zmoment=   0.0000E+00
 nd#     284  xforce=   0.0000E+00   yforce=   0.0000E+00  zforce=  -1.5271E+02   energy=   3.1058E-03   setid =     284 xmoment=   0.0000E+00 ymoment=   0.0000E+00 zmoment=   0.0000E+00
 nd#     333  xforce=   0.0000E+00   yforce=   0.0000E+00  zforce=  -2.6561E+01   energy=   9.9513E-04   setid =     333 xmoment=   0.0000E+00 ymoment=   0.0000E+00 zmoment=   0.0000E+00
 nd#     334  xforce=   0.0000E+00   yforce=   0.0000E+00  zforce=  -3.8070E+01   energy=   1.5442E-03   setid =     334 xmoment=   0.0000E+00 ymoment=   0.0000E+00 zmoment=   0.0000E+00
 nd#     335  xforce=   0.0000E+00   yforce=   0.0000E+00  zforce=  -9.0708E+01   energy=   2.6524E-03   setid =     335 xmoment=   0.0000E+00 ymoment=   0.0000E+00 zmoment=   0.0000E+00
 nd#     368  xforce=   0.0000E+00   yforce=   0.0000E+00  zforce=  -2.1963E+01   energy=   7.2154E-04   setid =     368 xmoment=   0.0000E+00 ymoment=   0.0000E+00 zmoment=   0.0000E+00
 nd#     369  xforce=   0.0000E+00   yforce=   0.0000E+00  zforce=  -4.3037E+01   energy=   1.3903E-03   setid =     369 xmoment=   0.0000E+00 ymoment=   0.0000E+00 zmoment=   0.0000E+00
 nd#     386  xforce=   0.0000E+00   yforce=   0.0000E+00  zforce=  -5.3160E+01   energy=   1.8501E-03   setid =     386 xmoment=   0.0000E+00 ymoment=   0.0000E+00 zmoment=   0.0000E+00
 nd#     403  xforce=   0.0000E+00   yforce=   0.0000E+00  zforce=  -3.9361E+01   energy=   1.3150E-03   setid =     403 xmoment=   0.0000E+00 ymoment=   0.0000E+00 zmoment=   0.0000E+00
 nd#     436  xforce=   0.0000E+00   yforce=   0.0000E+00  zforce=  -1.0069E+02   energy=   2.7431E-03   setid =     436 xmoment=   0.0000E+00 ymoment=   0.0000E+00 zmoment=   0.0000E+00
 nd#     437  xforce=   0.0000E+00   yforce=   0.0000E+00  zforce=  -4.3405E+01   energy=   1.3789E-03   setid =     437 xmoment=   0.0000E+00 ymoment=   0.0000E+00 zmoment=   0.0000E+00
 nd#     438  xforce=   0.0000E+00   yforce=   0.0000E+00  zforce=  -3.8879E+01   energy=   1.0919E-03   setid =     438 xmoment=   0.0000E+00 ymoment=   0.0000E+00 zmoment=   0.0000E+00
 nd#     439  xforce=   0.0000E+00   yforce=   0.0000E+00  zforce=  -3.5032E+01   energy=   1.1058E-03   setid =     439 xmoment=   0.0000E+00 ymoment=   0.0000E+00 zmoment=   0.0000E+00
 nd#     440  xforce=   0.0000E+00   yforce=   0.0000E+00  zforce=  -3.6195E+01   energy=   1.1364E-03   setid =     440 xmoment=   0.0000E+00 ymoment=   0.0000E+00 zmoment=   0.0000E+00
 nd#     441  xforce=   0.0000E+00   yforce=   0.0000E+00  zforce=  -3.5438E+01   energy=   1.1499E-03   setid =     441 xmoment=   0.0000E+00 ymoment=   0.0000E+00 zmoment=   0.0000E+00
 nd#     442  xforce=   0.0000E+00   yforce=   0.0000E+00  zforce=  -3.6723E+01   energy=   1.1769E-03   setid =     442 xmoment=   0.0000E+00 ymoment=   0.0000E+00 zmoment=   0.0000E+00
 nd#     443  xforce=   0.0000E+00   yforce=   0.0000E+00  zforce=  -3.1203E+01   energy=   1.0768E-03   setid =     443 xmoment=   0.0000E+00 ymoment=   0.0000E+00 zmoment=   0.0000E+00
 nd#     444  xforce=   0.0000E+00   yforce=   0.0000E+00  zforce=   2.8134E+00   energy=  -6.2033E-05   setid =     444 xmoment=   0.0000E+00 ymoment=   0.0000E+00 zmoment=   0.0000E+00
 nd#     628  xforce=   0.0000E+00   yforce=   0.0000E+00  zforce=  -8.5433E+01   energy=   2.2535E-03   setid =     628 xmoment=   0.0000E+00 ymoment=   0.0000E+00 zmoment=   0.0000E+00
 nd#     631  xforce=   0.0000E+00   yforce=   0.0000E+00  zforce=  -8.6451E+01   energy=   2.1559E-03   setid =     631 xmoment=   0.0000E+00 ymoment=   0.0000E+00 zmoment=   0.0000E+00
 nd#     632  xforce=   0.0000E+00   yforce=   0.0000E+00  zforce=  -8.2575E+01   energy=   2.4418E-03   setid =     632 xmoment=   0.0000E+00 ymoment=   0.0000E+00 zmoment=   0.0000E+00
 nd#     635  xforce=   0.0000E+00   yforce=   0.0000E+00  zforce=  -8.0032E+01   energy=   2.2825E-03   setid =     635 xmoment=   0.0000E+00 ymoment=   0.0000E+00 zmoment=   0.0000E+00
 nd#     636  xforce=   0.0000E+00   yforce=   0.0000E+00  zforce=  -1.0151E+02   energy=   2.7360E-03   setid =     636 xmoment=   0.0000E+00 ymoment=   0.0000E+00 zmoment=   0.0000E+00
 nd#     639  xforce=   0.0000E+00   yforce=   0.0000E+00  zforce=  -9.9917E+01   energy=   2.5706E-03   setid =     639 xmoment=   0.0000E+00 ymoment=   0.0000E+00 zmoment=   0.0000E+00
 nd#     640  xforce=   0.0000E+00   yforce=   0.0000E+00  zforce=  -4.7527E+01   energy=   1.3387E-03   setid =     640 xmoment=   0.0000E+00 ymoment=   0.0000E+00 zmoment=   0.0000E+00
 nd#     643  xforce=   0.0000E+00   yforce=   0.0000E+00  zforce=  -4.2976E+01   energy=   1.2652E-03   setid =     643 xmoment=   0.0000E+00 ymoment=   0.0000E+00 zmoment=   0.0000E+00
 nd#     692  xforce=   0.0000E+00   yforce=   0.0000E+00  zforce=  -8.3886E+01   energy=   2.3354E-03   setid =     692 xmoment=   0.0000E+00 ymoment=   0.0000E+00 zmoment=   0.0000E+00
 nd#     694  xforce=   0.0000E+00   yforce=   0.0000E+00  zforce=  -8.5760E+01   energy=   2.5761E-03   setid =     694 xmoment=   0.0000E+00 ymoment=   0.0000E+00 zmoment=   0.0000E+00
 nd#     696  xforce=   0.0000E+00   yforce=   0.0000E+00  zforce=  -1.0734E+02   energy=   2.9574E-03   setid =     696 xmoment=   0.0000E+00 ymoment=   0.0000E+00 zmoment=   0.0000E+00
 nd#     698  xforce=   0.0000E+00   yforce=   0.0000E+00  zforce=  -4.5859E+01   energy=   1.3648E-03   setid =     698 xmoment=   0.0000E+00 ymoment=   0.0000E+00 zmoment=   0.0000E+00
 nd#     900  xforce=   0.0000E+00   yforce=   0.0000E+00  zforce=  -7.0269E+01   energy=   2.1044E-03   setid =     900 xmoment=   0.0000E+00 ymoment=   0.0000E+00 zmoment=   0.0000E+00
 nd#     902  xforce=   0.0000E+00   yforce=   0.0000E+00  zforce=  -8.2668E+01   energy=   2.4057E-03   setid =     902 xmoment=   0.0000E+00 ymoment=   0.0000E+00 zmoment=   0.0000E+00
 nd#     903  xforce=   0.0000E+00   yforce=   0.0000E+00  zforce=  -7.5761E+01   energy=   2.5027E-03   setid =     903 xmoment=   0.0000E+00 ymoment=   0.0000E+00 zmoment=   0.0000E+00
 nd#     905  xforce=   0.0000E+00   yforce=   0.0000E+00  zforce=  -8.7912E+01   energy=   2.6699E-03   setid =     905 xmoment=   0.0000E+00 ymoment=   0.0000E+00 zmoment=   0.0000E+00
 nd#     906  xforce=   0.0000E+00   yforce=   0.0000E+00  zforce=  -8.4670E+01   energy=   2.6091E-03   setid =     906 xmoment=   0.0000E+00 ymoment=   0.0000E+00 zmoment=   0.0000E+00
 nd#     908  xforce=   0.0000E+00   yforce=   0.0000E+00  zforce=  -1.1037E+02   energy=   3.1438E-03   setid =     908 xmoment=   0.0000E+00 ymoment=   0.0000E+00 zmoment=   0.0000E+00
 nd#     909  xforce=   0.0000E+00   yforce=   0.0000E+00  zforce=  -1.9480E+01   energy=   9.5230E-04   setid =     909 xmoment=   0.0000E+00 ymoment=   0.0000E+00 zmoment=   0.0000E+00
 nd#     911  xforce=   0.0000E+00   yforce=   0.0000E+00  zforce=  -3.8597E+01   energy=   1.2487E-03   setid =     911 xmoment=   0.0000E+00 ymoment=   0.0000E+00 zmoment=   0.0000E+00
 nd#    1012  xforce=   0.0000E+00   yforce=   0.0000E+00  zforce=  -9.6206E+01   energy=   2.1740E-03   setid =    1012 xmoment=   0.0000E+00 ymoment=   0.0000E+00 zmoment=   0.0000E+00
 nd#    1013  xforce=   0.0000E+00   yforce=   0.0000E+00  zforce=  -7.3601E+01   energy=   2.2128E-03   setid =    1013 xmoment=   0.0000E+00 ymoment=   0.0000E+00 zmoment=   0.0000E+00
 nd#    1014  xforce=   0.0000E+00   yforce=   0.0000E+00  zforce=  -1.0124E+02   energy=   2.5323E-03   setid =    1014 xmoment=   0.0000E+00 ymoment=   0.0000E+00 zmoment=   0.0000E+00
 nd#    1015  xforce=   0.0000E+00   yforce=   0.0000E+00  zforce=  -4.0356E+01   energy=   1.1856E-03   setid =    1015 xmoment=   0.0000E+00 ymoment=   0.0000E+00 zmoment=   0.0000E+00
 nd#    1060  xforce=   0.0000E+00   yforce=   0.0000E+00  zforce=   1.8613E+01   energy=  -5.3592E-04   setid =    1060 xmoment=   0.0000E+00 ymoment=   0.0000E+00 zmoment=   0.0000E+00
 nd#    1061  xforce=   0.0000E+00   yforce=   0.0000E+00  zforce=   3.5622E+01   energy=  -8.1823E-04   setid =    1061 xmoment=   0.0000E+00 ymoment=   0.0000E+00 zmoment=   0.0000E+00
 nd#    1062  xforce=   0.0000E+00   yforce=   0.0000E+00  zforce=   5.2912E+01   energy=  -1.4105E-03   setid =    1062 xmoment=   0.0000E+00 ymoment=   0.0000E+00 zmoment=   0.0000E+00
 nd#    1063  xforce=   0.0000E+00   yforce=   0.0000E+00  zforce=   3.2628E+01   energy=  -8.8850E-04   setid =    1063 xmoment=   0.0000E+00 ymoment=   0.0000E+00 zmoment=   0.0000E+00
              xtotal=   0.0000E+00   ytotal=   0.0000E+00  ztotal=  -3.2281E+03   etotal=   9.1897E-02

 n o d a l   f o r c e/e n e r g y    o u t p u t  t=   5.03709E+00

 velocity boundary condition forces/rigid body moments 

 nd#     179  xforce=   0.0000E+00   yforce=   0.0000E+00  zforce=  -8.3931E+01   energy=   2.6567E-03   setid =     179 xmoment=   0.0000E+00 ymoment=   0.0000E+00 zmoment=   0.0000E+00
 nd#     180  xforce=   0.0000E+00   yforce=   0.0000E+00  zforce=  -8.6624E+01   energy=   2.9145E-03   setid =     180 xmoment=   0.0000E+00 ymoment=   0.0000E+00 zmoment=   0.0000E+00
 nd#     181  xforce=   0.0000E+00   yforce=   0.0000E+00  zforce=  -1.1076E+02   energy=   3.4126E-03   setid =     181 xmoment=   0.0000E+00 ymoment=   0.0000E+00 zmoment=   0.0000E+00
 nd#     182  xforce=   0.0000E+00   yforce=   0.0000E+00  zforce=  -9.6441E+01   energy=   2.8805E-03   setid =     182 xmoment=   0.0000E+00 ymoment=   0.0000E+00 zmoment=   0.0000E+00
 nd#     247  xforce=   0.0000E+00   yforce=   0.0000E+00  zforce=  -5.4410E+01   energy=   1.5751E-03   setid =     247 xmoment=   0.0000E+00 ymoment=   0.0000E+00 zmoment=   0.0000E+00
 nd#     248  xforce=   0.0000E+00   yforce=   0.0000E+00  zforce=  -7.6907E+01   energy=   2.5365E-03   setid =     248 xmoment=   0.0000E+00 ymoment=   0.0000E+00 zmoment=   0.0000E+00
 nd#     249  xforce=   0.0000E+00   yforce=   0.0000E+00  zforce=  -6.2120E+01   energy=   1.8986E-03   setid =     249 xmoment=   0.0000E+00 ymoment=   0.0000E+00 zmoment=   0.0000E+00
 nd#     250  xforce=   0.0000E+00   yforce=   0.0000E+00  zforce=  -4.1834E+01   energy=   1.1674E-03   setid =     250 xmoment=   0.0000E+00 ymoment=   0.0000E+00 zmoment=   0.0000E+00
 nd#     283  xforce=   0.0000E+00   yforce=   0.0000E+00  zforce=  -9.2833E+01   energy=   2.7340E-03   setid =     283 xmoment=   0.0000E+00 ymoment=   0.0000E+00 zmoment=   0.0000E+00
 nd#     284  xforce=   0.0000E+00   yforce=   0.0000E+00  zforce=  -1.1555E+02   energy=   3.5992E-03   setid =     284 xmoment=   0.0000E+00 ymoment=   0.0000E+00 zmoment=   0.0000E+00
 nd#     333  xforce=   0.0000E+00   yforce=   0.0000E+00  zforce=  -2.7730E+01   energy=   1.0950E-03   setid =     333 xmoment=   0.0000E+00 ymoment=   0.0000E+00 zmoment=   0.0000E+00
 nd#     334  xforce=   0.0000E+00   yforce=   0.0000E+00  zforce=  -4.1000E+01   energy=   1.6896E-03   setid =     334 xmoment=   0.0000E+00 ymoment=   0.0000E+00 zmoment=   0.0000E+00
 nd#     335  xforce=   0.0000E+00   yforce=   0.0000E+00  zforce=  -8.2895E+01   energy=   2.9716E-03   setid =     335 xmoment=   0.0000E+00 ymoment=   0.0000E+00 zmoment=   0.0000E+00
 nd#     368  xforce=   0.0000E+00   yforce=   0.0000E+00  zforce=  -2.9301E+01   energy=   8.1582E-04   setid =     368 xmoment=   0.0000E+00 ymoment=   0.0000E+00 zmoment=   0.0000E+00
 nd#     369  xforce=   0.0000E+00   yforce=   0.0000E+00  zforce=  -4.4012E+01   energy=   1.5504E-03   setid =     369 xmoment=   0.0000E+00 ymoment=   0.0000E+00 zmoment=   0.0000E+00
 nd#     386  xforce=   0.0000E+00   yforce=   0.0000E+00  zforce=  -6.9155E+01   energy=   2.0751E-03   setid =     386 xmoment=   0.0000E+00 ymoment=   0.0000E+00 zmoment=   0.0000E+00
 nd#     403  xforce=   0.0000E+00   yforce=   0.0000E+00  zforce=  -4.8166E+01   energy=   1.4760E-03   setid =     403 xmoment=   0.0000E+00 ymoment=   0.0000E+00 zmoment=   0.0000E+00
 nd#     436  xforce=   0.0000E+00   yforce=   0.0000E+00  zforce=  -9.6390E+01   energy=   3.1056E-03   setid =     436 xmoment=   0.0000E+00 ymoment=   0.0000E+00 zmoment=   0.0000E+00
 nd#     437  xforce=   0.0000E+00   yforce=   0.0000E+00  zforce=  -4.6457E+01   energy=   1.5442E-03   setid =     437 xmoment=   0.0000E+00 ymoment=   0.0000E+00 zmoment=   0.0000E+00
 nd#     438  xforce=   0.0000E+00   yforce=   0.0000E+00  zforce=  -3.7371E+01   energy=   1.2322E-03   setid =     438 xmoment=   0.0000E+00 ymoment=   0.0000E+00 zmoment=   0.0000E+00
 nd#     439  xforce=   0.0000E+00   yforce=   0.0000E+00  zforce=  -3.8815E+01   energy=   1.2416E-03   setid =     439 xmoment=   0.0000E+00 ymoment=   0.0000E+00 zmoment=   0.0000E+00
 nd#     440  xforce=   0.0000E+00   yforce=   0.0000E+00  zforce=  -3.8375E+01   energy=   1.2736E-03   setid =     440 xmoment=   0.0000E+00 ymoment=   0.0000E+00 zmoment=   0.0000E+00
 nd#     441  xforce=   0.0000E+00   yforce=   0.0000E+00  zforce=  -3.7572E+01   energy=   1.2842E-03   setid =     441 xmoment=   0.0000E+00 ymoment=   0.0000E+00 zmoment=   0.0000E+00
 nd#     442  xforce=   0.0000E+00   yforce=   0.0000E+00  zforce=  -3.6253E+01   energy=   1.3111E-03   setid =     442 xmoment=   0.0000E+00 ymoment=   0.0000E+00 zmoment=   0.0000E+00
 nd#     443  xforce=   0.0000E+00   yforce=   0.0000E+00  zforce=  -2.9165E+01   energy=   1.1878E-03   setid =     443 xmoment=   0.0000E+00 ymoment=   0.0000E+00 zmoment=   0.0000E+00
 nd#     444  xforce=   0.0000E+00   yforce=   0.0000E+00  zforce=   6.6459E+00   energy=  -7.9430E-05   setid =     444 xmoment=   0.0000E+00 ymoment=   0.0000E+00 zmoment=   0.0000E+00
 nd#     628  xforce=   0.0000E+00   yforce=   0.0000E+00  zforce=  -7.6169E+01   energy=   2.5507E-03   setid =     628 xmoment=   0.0000E+00 ymoment=   0.0000E+00 zmoment=   0.0000E+00
 nd#     631  xforce=   0.0000E+00   yforce=   0.0000E+00  zforce=  -7.6522E+01   energy=   2.4557E-03   setid =     631 xmoment=   0.0000E+00 ymoment=   0.0000E+00 zmoment=   0.0000E+00
 nd#     632  xforce=   0.0000E+00   yforce=   0.0000E+00  zforce=  -7.9629E+01   energy=   2.7401E-03   setid =     632 xmoment=   0.0000E+00 ymoment=   0.0000E+00 zmoment=   0.0000E+00
 nd#     635  xforce=   0.0000E+00   yforce=   0.0000E+00  zforce=  -7.8208E+01   energy=   2.5735E-03   setid =     635 xmoment=   0.0000E+00 ymoment=   0.0000E+00 zmoment=   0.0000E+00
 nd#     636  xforce=   0.0000E+00   yforce=   0.0000E+00  zforce=  -9.4216E+01   energy=   3.0959E-03   setid =     636 xmoment=   0.0000E+00 ymoment=   0.0000E+00 zmoment=   0.0000E+00
 nd#     639  xforce=   0.0000E+00   yforce=   0.0000E+00  zforce=  -9.2333E+01   energy=   2.9242E-03   setid =     639 xmoment=   0.0000E+00 ymoment=   0.0000E+00 zmoment=   0.0000E+00
 nd#     640  xforce=   0.0000E+00   yforce=   0.0000E+00  zforce=  -4.6773E+01   energy=   1.5121E-03   setid =     640 xmoment=   0.0000E+00 ymoment=   0.0000E+00 zmoment=   0.0000E+00
 nd#     643  xforce=   0.0000E+00   yforce=   0.0000E+00  zforce=  -4.2723E+01   energy=   1.4228E-03   setid =     643 xmoment=   0.0000E+00 ymoment=   0.0000E+00 zmoment=   0.0000E+00
 nd#     692  xforce=   0.0000E+00   yforce=   0.0000E+00  zforce=  -7.7005E+01   energy=   2.6313E-03   setid =     692 xmoment=   0.0000E+00 ymoment=   0.0000E+00 zmoment=   0.0000E+00
 nd#     694  xforce=   0.0000E+00   yforce=   0.0000E+00  zforce=  -8.2156E+01   energy=   2.8849E-03   setid =     694 xmoment=   0.0000E+00 ymoment=   0.0000E+00 zmoment=   0.0000E+00
 nd#     696  xforce=   0.0000E+00   yforce=   0.0000E+00  zforce=  -9.9526E+01   energy=   3.3378E-03   setid =     696 xmoment=   0.0000E+00 ymoment=   0.0000E+00 zmoment=   0.0000E+00
 nd#     698  xforce=   0.0000E+00   yforce=   0.0000E+00  zforce=  -4.4670E+01   energy=   1.5313E-03   setid =     698 xmoment=   0.0000E+00 ymoment=   0.0000E+00 zmoment=   0.0000E+00
 nd#     900  xforce=   0.0000E+00   yforce=   0.0000E+00  zforce=  -6.1328E+01   energy=   2.3464E-03   setid =     900 xmoment=   0.0000E+00 ymoment=   0.0000E+00 zmoment=   0.0000E+00
 nd#     902  xforce=   0.0000E+00   yforce=   0.0000E+00  zforce=  -7.5207E+01   energy=   2.6961E-03   setid =     902 xmoment=   0.0000E+00 ymoment=   0.0000E+00 zmoment=   0.0000E+00
 nd#     903  xforce=   0.0000E+00   yforce=   0.0000E+00  zforce=  -6.9387E+01   energy=   2.7696E-03   setid =     903 xmoment=   0.0000E+00 ymoment=   0.0000E+00 zmoment=   0.0000E+00
 nd#     905  xforce=   0.0000E+00   yforce=   0.0000E+00  zforce=  -8.4500E+01   energy=   2.9870E-03   setid =     905 xmoment=   0.0000E+00 ymoment=   0.0000E+00 zmoment=   0.0000E+00
 nd#     906  xforce=   0.0000E+00   yforce=   0.0000E+00  zforce=  -7.8351E+01   energy=   2.9089E-03   setid =     906 xmoment=   0.0000E+00 ymoment=   0.0000E+00 zmoment=   0.0000E+00
 nd#     908  xforce=   0.0000E+00   yforce=   0.0000E+00  zforce=  -1.0528E+02   energy=   3.5404E-03   setid =     908 xmoment=   0.0000E+00 ymoment=   0.0000E+00 zmoment=   0.0000E+00
 nd#     909  xforce=   0.0000E+00   yforce=   0.0000E+00  zforce=  -1.8409E+01   energy=   1.0220E-03   setid =     909 xmoment=   0.0000E+00 ymoment=   0.0000E+00 zmoment=   0.0000E+00
 nd#     911  xforce=   0.0000E+00   yforce=   0.0000E+00  zforce=  -3.8008E+01   energy=   1.3895E-03   setid =     911 xmoment=   0.0000E+00 ymoment=   0.0000E+00 zmoment=   0.0000E+00
 nd#    1012  xforce=   0.0000E+00   yforce=   0.0000E+00  zforce=  -7.8996E+01   energy=   2.4962E-03   setid =    1012 xmoment=   0.0000E+00 ymoment=   0.0000E+00 zmoment=   0.0000E+00
 nd#    1013  xforce=   0.0000E+00   yforce=   0.0000E+00  zforce=  -7.4130E+01   energy=   2.4845E-03   setid =    1013 xmoment=   0.0000E+00 ymoment=   0.0000E+00 zmoment=   0.0000E+00
 nd#    1014  xforce=   0.0000E+00   yforce=   0.0000E+00  zforce=  -9.4960E+01   energy=   2.8931E-03   setid =    1014 xmoment=   0.0000E+00 ymoment=   0.0000E+00 zmoment=   0.0000E+00
 nd#    1015  xforce=   0.0000E+00   yforce=   0.0000E+00  zforce=  -4.1199E+01   energy=   1.3356E-03   setid =    1015 xmoment=   0.0000E+00 ymoment=   0.0000E+00 zmoment=   0.0000E+00
 nd#    1060  xforce=   0.0000E+00   yforce=   0.0000E+00  zforce=   2.8657E+01   energy=  -6.2285E-04   setid =    1060 xmoment=   0.0000E+00 ymoment=   0.0000E+00 zmoment=   0.0000E+00
 nd#    1061  xforce=   0.0000E+00   yforce=   0.0000E+00  zforce=   4.2227E+01   energy=  -9.6141E-04   setid =    1061 xmoment=   0.0000E+00 ymoment=   0.0000E+00 zmoment=   0.0000E+00
 nd#    1062  xforce=   0.0000E+00   yforce=   0.0000E+00  zforce=   6.2686E+01   energy=  -1.6231E-03   setid =    1062 xmoment=   0.0000E+00 ymoment=   0.0000E+00 zmoment=   0.0000E+00
 nd#    1063  xforce=   0.0000E+00   yforce=   0.0000E+00  zforce=   3.9516E+01   energy=  -1.0212E-03   setid =    1063 xmoment=   0.0000E+00 ymoment=   0.0000E+00 zmoment=   0.0000E+00
              xtotal=   0.0000E+00   ytotal=   0.0000E+00  ztotal=  -3.0540E+03   etotal=   1.0345E-01

 n o d a l   f o r c e/e n e r g y    o u t p u t  t=   6.20301E+00

 velocity boundary condition forces/rigid body moments 

 nd#     179  xforce=   0.0000E+00   yforce=   0.0000E+00  zforce=  -9.3156E+01   energy=   3.7622E-03   setid =     179 xmoment=   0.0000E+00 ymoment=   0.0000E+00 zmoment=   0.0000E+00
 nd#     180  xforce=   0.0000E+00   yforce=   0.0000E+00  zforce=  -1.6565E+02   energy=   4.6904E-03   setid =     180 xmoment=   0.0000E+00 ymoment=   0.0000E+00 zmoment=   0.0000E+00
 nd#     181  xforce=   0.0000E+00   yforce=   0.0000E+00  zforce=  -1.2580E+01   energy=   3.7885E-03   setid =     181 xmoment=   0.0000E+00 ymoment=   0.0000E+00 zmoment=   0.0000E+00
 nd#     182  xforce=   0.0000E+00   yforce=   0.0000E+00  zforce=  -1.3695E-01   energy=   3.0703E-03   setid =     182 xmoment=   0.0000E+00 ymoment=   0.0000E+00 zmoment=   0.0000E+00
 nd#     247  xforce=   0.0000E+00   yforce=   0.0000E+00  zforce=  -2.2395E+02   energy=   3.7642E-03   setid =     247 xmoment=   0.0000E+00 ymoment=   0.0000E+00 zmoment=   0.0000E+00
 nd#     248  xforce=   0.0000E+00   yforce=   0.0000E+00  zforce=   9.3832E+01   energy=   1.8013E-03   setid =     248 xmoment=   0.0000E+00 ymoment=   0.0000E+00 zmoment=   0.0000E+00
 nd#     249  xforce=   0.0000E+00   yforce=   0.0000E+00  zforce=  -2.0571E+01   energy=   2.1352E-03   setid =     249 xmoment=   0.0000E+00 ymoment=   0.0000E+00 zmoment=   0.0000E+00
 nd#     250  xforce=   0.0000E+00   yforce=   0.0000E+00  zforce=  -1.4960E+02   energy=   2.6185E-03   setid =     250 xmoment=   0.0000E+00 ymoment=   0.0000E+00 zmoment=   0.0000E+00
 nd#     283  xforce=   0.0000E+00   yforce=   0.0000E+00  zforce=  -1.5700E+02   energy=   4.3398E-03   setid =     283 xmoment=   0.0000E+00 ymoment=   0.0000E+00 zmoment=   0.0000E+00
 nd#     284  xforce=   0.0000E+00   yforce=   0.0000E+00  zforce=   2.2776E+02   energy=   1.8598E-03   setid =     284 xmoment=   0.0000E+00 ymoment=   0.0000E+00 zmoment=   0.0000E+00
 nd#     333  xforce=   0.0000E+00   yforce=   0.0000E+00  zforce=  -8.1231E+01   energy=   1.9730E-03   setid =     333 xmoment=   0.0000E+00 ymoment=   0.0000E+00 zmoment=   0.0000E+00
 nd#     334  xforce=   0.0000E+00   yforce=   0.0000E+00  zforce=  -1.0129E+02   energy=   2.7773E-03   setid =     334 xmoment=   0.0000E+00 ymoment=   0.0000E+00 zmoment=   0.0000E+00
 nd#     335  xforce=   0.0000E+00   yforce=   0.0000E+00  zforce=  -3.7220E+01   energy=   3.5383E-03   setid =     335 xmoment=   0.0000E+00 ymoment=   0.0000E+00 zmoment=   0.0000E+00
 nd#     368  xforce=   0.0000E+00   yforce=   0.0000E+00  zforce=  -1.1406E+02   energy=   1.9403E-03   setid =     368 xmoment=   0.0000E+00 ymoment=   0.0000E+00 zmoment=   0.0000E+00
 nd#     369  xforce=   0.0000E+00   yforce=   0.0000E+00  zforce=  -6.7637E+01   energy=   2.2842E-03   setid =     369 xmoment=   0.0000E+00 ymoment=   0.0000E+00 zmoment=   0.0000E+00
 nd#     386  xforce=   0.0000E+00   yforce=   0.0000E+00  zforce=  -1.7009E+02   energy=   3.8354E-03   setid =     386 xmoment=   0.0000E+00 ymoment=   0.0000E+00 zmoment=   0.0000E+00
 nd#     403  xforce=   0.0000E+00   yforce=   0.0000E+00  zforce=  -7.8267E+01   energy=   2.3273E-03   setid =     403 xmoment=   0.0000E+00 ymoment=   0.0000E+00 zmoment=   0.0000E+00
 nd#     436  xforce=   0.0000E+00   yforce=   0.0000E+00  zforce=  -5.4310E+01   energy=   3.8231E-03   setid =     436 xmoment=   0.0000E+00 ymoment=   0.0000E+00 zmoment=   0.0000E+00
 nd#     437  xforce=   0.0000E+00   yforce=   0.0000E+00  zforce=  -5.0957E+01   energy=   2.1278E-03   setid =     437 xmoment=   0.0000E+00 ymoment=   0.0000E+00 zmoment=   0.0000E+00
 nd#     438  xforce=   0.0000E+00   yforce=   0.0000E+00  zforce=  -6.1658E+01   energy=   1.9064E-03   setid =     438 xmoment=   0.0000E+00 ymoment=   0.0000E+00 zmoment=   0.0000E+00
 nd#     439  xforce=   0.0000E+00   yforce=   0.0000E+00  zforce=  -5.6417E+01   energy=   1.8704E-03   setid =     439 xmoment=   0.0000E+00 ymoment=   0.0000E+00 zmoment=   0.0000E+00
 nd#     440  xforce=   0.0000E+00   yforce=   0.0000E+00  zforce=  -5.2476E+01   energy=   1.8580E-03   setid =     440 xmoment=   0.0000E+00 ymoment=   0.0000E+00 zmoment=   0.0000E+00
 nd#     441  xforce=   0.0000E+00   yforce=   0.0000E+00  zforce=  -4.9486E+01   energy=   1.8341E-03   setid =     441 xmoment=   0.0000E+00 ymoment=   0.0000E+00 zmoment=   0.0000E+00
 nd#     442  xforce=   0.0000E+00   yforce=   0.0000E+00  zforce=  -4.5878E+01   energy=   1.8298E-03   setid =     442 xmoment=   0.0000E+00 ymoment=   0.0000E+00 zmoment=   0.0000E+00
 nd#     443  xforce=   0.0000E+00   yforce=   0.0000E+00  zforce=  -3.5444E+01   energy=   1.5951E-03   setid =     443 xmoment=   0.0000E+00 ymoment=   0.0000E+00 zmoment=   0.0000E+00
 nd#     444  xforce=   0.0000E+00   yforce=   0.0000E+00  zforce=   7.8633E+00   energy=  -1.6543E-04   setid =     444 xmoment=   0.0000E+00 ymoment=   0.0000E+00 zmoment=   0.0000E+00
 nd#     628  xforce=   0.0000E+00   yforce=   0.0000E+00  zforce=  -5.6096E+01   energy=   3.2440E-03   setid =     628 xmoment=   0.0000E+00 ymoment=   0.0000E+00 zmoment=   0.0000E+00
 nd#     631  xforce=   0.0000E+00   yforce=   0.0000E+00  zforce=  -5.1522E+01   energy=   3.1040E-03   setid =     631 xmoment=   0.0000E+00 ymoment=   0.0000E+00 zmoment=   0.0000E+00
 nd#     632  xforce=   0.0000E+00   yforce=   0.0000E+00  zforce=  -9.1892E+01   energy=   3.8043E-03   setid =     632 xmoment=   0.0000E+00 ymoment=   0.0000E+00 zmoment=   0.0000E+00
 nd#     635  xforce=   0.0000E+00   yforce=   0.0000E+00  zforce=  -9.6609E+01   energy=   3.6831E-03   setid =     635 xmoment=   0.0000E+00 ymoment=   0.0000E+00 zmoment=   0.0000E+00
 nd#     636  xforce=   0.0000E+00   yforce=   0.0000E+00  zforce=  -8.1829E+01   energy=   4.0787E-03   setid =     636 xmoment=   0.0000E+00 ymoment=   0.0000E+00 zmoment=   0.0000E+00
 nd#     639  xforce=   0.0000E+00   yforce=   0.0000E+00  zforce=  -7.1742E+01   energy=   3.8073E-03   setid =     639 xmoment=   0.0000E+00 ymoment=   0.0000E+00 zmoment=   0.0000E+00
 nd#     640  xforce=   0.0000E+00   yforce=   0.0000E+00  zforce=  -5.3516E+01   energy=   2.1196E-03   setid =     640 xmoment=   0.0000E+00 ymoment=   0.0000E+00 zmoment=   0.0000E+00
 nd#     643  xforce=   0.0000E+00   yforce=   0.0000E+00  zforce=  -5.4530E+01   energy=   2.0313E-03   setid =     643 xmoment=   0.0000E+00 ymoment=   0.0000E+00 zmoment=   0.0000E+00
 nd#     692  xforce=   0.0000E+00   yforce=   0.0000E+00  zforce=  -6.2138E+01   energy=   3.3859E-03   setid =     692 xmoment=   0.0000E+00 ymoment=   0.0000E+00 zmoment=   0.0000E+00
 nd#     694  xforce=   0.0000E+00   yforce=   0.0000E+00  zforce=  -9.0157E+01   energy=   3.9347E-03   setid =     694 xmoment=   0.0000E+00 ymoment=   0.0000E+00 zmoment=   0.0000E+00
 nd#     696  xforce=   0.0000E+00   yforce=   0.0000E+00  zforce=  -9.3035E+01   energy=   4.4374E-03   setid =     696 xmoment=   0.0000E+00 ymoment=   0.0000E+00 zmoment=   0.0000E+00
 nd#     698  xforce=   0.0000E+00   yforce=   0.0000E+00  zforce=  -4.9963E+01   energy=   2.1055E-03   setid =     698 xmoment=   0.0000E+00 ymoment=   0.0000E+00 zmoment=   0.0000E+00
 nd#     900  xforce=   0.0000E+00   yforce=   0.0000E+00  zforce=  -5.0808E+01   energy=   2.9759E-03   setid =     900 xmoment=   0.0000E+00 ymoment=   0.0000E+00 zmoment=   0.0000E+00
 nd#     902  xforce=   0.0000E+00   yforce=   0.0000E+00  zforce=  -6.6154E+01   energy=   3.4937E-03   setid =     902 xmoment=   0.0000E+00 ymoment=   0.0000E+00 zmoment=   0.0000E+00
 nd#     903  xforce=   0.0000E+00   yforce=   0.0000E+00  zforce=  -7.6285E+01   energy=   3.6610E-03   setid =     903 xmoment=   0.0000E+00 ymoment=   0.0000E+00 zmoment=   0.0000E+00
 nd#     905  xforce=   0.0000E+00   yforce=   0.0000E+00  zforce=  -8.9054E+01   energy=   4.0324E-03   setid =     905 xmoment=   0.0000E+00 ymoment=   0.0000E+00 zmoment=   0.0000E+00
 nd#     906  xforce=   0.0000E+00   yforce=   0.0000E+00  zforce=  -8.2165E+01   energy=   3.8591E-03   setid =     906 xmoment=   0.0000E+00 ymoment=   0.0000E+00 zmoment=   0.0000E+00
 nd#     908  xforce=   0.0000E+00   yforce=   0.0000E+00  zforce=  -1.0438E+02   energy=   4.7614E-03   setid =     908 xmoment=   0.0000E+00 ymoment=   0.0000E+00 zmoment=   0.0000E+00
 nd#     909  xforce=   0.0000E+00   yforce=   0.0000E+00  zforce=  -2.6742E+01   energy=   1.3133E-03   setid =     909 xmoment=   0.0000E+00 ymoment=   0.0000E+00 zmoment=   0.0000E+00
 nd#     911  xforce=   0.0000E+00   yforce=   0.0000E+00  zforce=  -4.4124E+01   energy=   1.8873E-03   setid =     911 xmoment=   0.0000E+00 ymoment=   0.0000E+00 zmoment=   0.0000E+00
 nd#    1012  xforce=   0.0000E+00   yforce=   0.0000E+00  zforce=  -4.3994E+01   energy=   3.0591E-03   setid =    1012 xmoment=   0.0000E+00 ymoment=   0.0000E+00 zmoment=   0.0000E+00
 nd#    1013  xforce=   0.0000E+00   yforce=   0.0000E+00  zforce=  -1.0408E+02   energy=   3.6529E-03   setid =    1013 xmoment=   0.0000E+00 ymoment=   0.0000E+00 zmoment=   0.0000E+00
 nd#    1014  xforce=   0.0000E+00   yforce=   0.0000E+00  zforce=  -6.2432E+01   energy=   3.7032E-03   setid =    1014 xmoment=   0.0000E+00 ymoment=   0.0000E+00 zmoment=   0.0000E+00
 nd#    1015  xforce=   0.0000E+00   yforce=   0.0000E+00  zforce=  -5.7841E+01   energy=   1.9642E-03   setid =    1015 xmoment=   0.0000E+00 ymoment=   0.0000E+00 zmoment=   0.0000E+00
 nd#    1060  xforce=   0.0000E+00   yforce=   0.0000E+00  zforce=   4.0952E+01   energy=  -1.0621E-03   setid =    1060 xmoment=   0.0000E+00 ymoment=   0.0000E+00 zmoment=   0.0000E+00
 nd#    1061  xforce=   0.0000E+00   yforce=   0.0000E+00  zforce=   4.2870E+01   energy=  -1.4412E-03   setid =    1061 xmoment=   0.0000E+00 ymoment=   0.0000E+00 zmoment=   0.0000E+00
 nd#    1062  xforce=   0.0000E+00   yforce=   0.0000E+00  zforce=   6.4689E+01   energy=  -2.3346E-03   setid =    1062 xmoment=   0.0000E+00 ymoment=   0.0000E+00 zmoment=   0.0000E+00
 nd#    1063  xforce=   0.0000E+00   yforce=   0.0000E+00  zforce=   4.8226E+01   energy=  -1.5610E-03   setid =    1063 xmoment=   0.0000E+00 ymoment=   0.0000E+00 zmoment=   0.0000E+00
              xtotal=   0.0000E+00   ytotal=   0.0000E+00  ztotal=  -3.0140E+03   etotal=   1.3889E-01

 n o d a l   f o r c e/e n e r g y    o u t p u t  t=   7.12693E+00

 velocity boundary condition forces/rigid body moments 

 nd#     179  xforce=   0.0000E+00   yforce=   0.0000E+00  zforce=  -1.0147E+02   energy=   4.6613E-03   setid =     179 xmoment=   0.0000E+00 ymoment=   0.0000E+00 zmoment=   0.0000E+00
 nd#     180  xforce=   0.0000E+00   yforce=   0.0000E+00  zforce=  -1.6763E+02   energy=   6.2300E-03   setid =     180 xmoment=   0.0000E+00 ymoment=   0.0000E+00 zmoment=   0.0000E+00
 nd#     181  xforce=   0.0000E+00   yforce=   0.0000E+00  zforce=  -1.9669E+01   energy=   3.9375E-03   setid =     181 xmoment=   0.0000E+00 ymoment=   0.0000E+00 zmoment=   0.0000E+00
 nd#     182  xforce=   0.0000E+00   yforce=   0.0000E+00  zforce=  -9.0598E+00   energy=   3.1128E-03   setid =     182 xmoment=   0.0000E+00 ymoment=   0.0000E+00 zmoment=   0.0000E+00
 nd#     247  xforce=   0.0000E+00   yforce=   0.0000E+00  zforce=  -2.3069E+02   energy=   5.8645E-03   setid =     247 xmoment=   0.0000E+00 ymoment=   0.0000E+00 zmoment=   0.0000E+00
 nd#     248  xforce=   0.0000E+00   yforce=   0.0000E+00  zforce=   8.7344E+01   energy=   9.6435E-04   setid =     248 xmoment=   0.0000E+00 ymoment=   0.0000E+00 zmoment=   0.0000E+00
 nd#     249  xforce=   0.0000E+00   yforce=   0.0000E+00  zforce=  -3.4256E+01   energy=   2.3885E-03   setid =     249 xmoment=   0.0000E+00 ymoment=   0.0000E+00 zmoment=   0.0000E+00
 nd#     250  xforce=   0.0000E+00   yforce=   0.0000E+00  zforce=  -1.5774E+02   energy=   4.0383E-03   setid =     250 xmoment=   0.0000E+00 ymoment=   0.0000E+00 zmoment=   0.0000E+00
 nd#     283  xforce=   0.0000E+00   yforce=   0.0000E+00  zforce=  -1.6190E+02   energy=   5.8130E-03   setid =     283 xmoment=   0.0000E+00 ymoment=   0.0000E+00 zmoment=   0.0000E+00
 nd#     284  xforce=   0.0000E+00   yforce=   0.0000E+00  zforce=   2.2090E+02   energy=  -2.1286E-04   setid =     284 xmoment=   0.0000E+00 ymoment=   0.0000E+00 zmoment=   0.0000E+00
 nd#     333  xforce=   0.0000E+00   yforce=   0.0000E+00  zforce=  -7.2185E+01   energy=   2.6817E-03   setid =     333 xmoment=   0.0000E+00 ymoment=   0.0000E+00 zmoment=   0.0000E+00
 nd#     334  xforce=   0.0000E+00   yforce=   0.0000E+00  zforce=  -9.4490E+01   energy=   3.6817E-03   setid =     334 xmoment=   0.0000E+00 ymoment=   0.0000E+00 zmoment=   0.0000E+00
 nd#     335  xforce=   0.0000E+00   yforce=   0.0000E+00  zforce=  -4.2150E+01   energy=   3.9050E-03   setid =     335 xmoment=   0.0000E+00 ymoment=   0.0000E+00 zmoment=   0.0000E+00
 nd#     368  xforce=   0.0000E+00   yforce=   0.0000E+00  zforce=  -1.1658E+02   energy=   3.0058E-03   setid =     368 xmoment=   0.0000E+00 ymoment=   0.0000E+00 zmoment=   0.0000E+00
 nd#     369  xforce=   0.0000E+00   yforce=   0.0000E+00  zforce=  -7.3773E+01   energy=   2.9374E-03   setid =     369 xmoment=   0.0000E+00 ymoment=   0.0000E+00 zmoment=   0.0000E+00
 nd#     386  xforce=   0.0000E+00   yforce=   0.0000E+00  zforce=  -1.7370E+02   energy=   5.4236E-03   setid =     386 xmoment=   0.0000E+00 ymoment=   0.0000E+00 zmoment=   0.0000E+00
 nd#     403  xforce=   0.0000E+00   yforce=   0.0000E+00  zforce=  -8.1275E+01   energy=   3.0643E-03   setid =     403 xmoment=   0.0000E+00 ymoment=   0.0000E+00 zmoment=   0.0000E+00
 nd#     436  xforce=   0.0000E+00   yforce=   0.0000E+00  zforce=  -6.1091E+01   energy=   4.3562E-03   setid =     436 xmoment=   0.0000E+00 ymoment=   0.0000E+00 zmoment=   0.0000E+00
 nd#     437  xforce=   0.0000E+00   yforce=   0.0000E+00  zforce=  -5.5584E+01   energy=   2.6200E-03   setid =     437 xmoment=   0.0000E+00 ymoment=   0.0000E+00 zmoment=   0.0000E+00
 nd#     438  xforce=   0.0000E+00   yforce=   0.0000E+00  zforce=  -6.3717E+01   energy=   2.4856E-03   setid =     438 xmoment=   0.0000E+00 ymoment=   0.0000E+00 zmoment=   0.0000E+00
 nd#     439  xforce=   0.0000E+00   yforce=   0.0000E+00  zforce=  -5.8565E+01   energy=   2.4016E-03   setid =     439 xmoment=   0.0000E+00 ymoment=   0.0000E+00 zmoment=   0.0000E+00
 nd#     440  xforce=   0.0000E+00   yforce=   0.0000E+00  zforce=  -5.4531E+01   energy=   2.3523E-03   setid =     440 xmoment=   0.0000E+00 ymoment=   0.0000E+00 zmoment=   0.0000E+00
 nd#     441  xforce=   0.0000E+00   yforce=   0.0000E+00  zforce=  -5.1311E+01   energy=   2.2997E-03   setid =     441 xmoment=   0.0000E+00 ymoment=   0.0000E+00 zmoment=   0.0000E+00
 nd#     442  xforce=   0.0000E+00   yforce=   0.0000E+00  zforce=  -4.7708E+01   energy=   2.2621E-03   setid =     442 xmoment=   0.0000E+00 ymoment=   0.0000E+00 zmoment=   0.0000E+00
 nd#     443  xforce=   0.0000E+00   yforce=   0.0000E+00  zforce=  -3.6762E+01   energy=   1.9287E-03   setid =     443 xmoment=   0.0000E+00 ymoment=   0.0000E+00 zmoment=   0.0000E+00
 nd#     444  xforce=   0.0000E+00   yforce=   0.0000E+00  zforce=   8.5575E+00   energy=  -2.4129E-04   setid =     444 xmoment=   0.0000E+00 ymoment=   0.0000E+00 zmoment=   0.0000E+00
 nd#     628  xforce=   0.0000E+00   yforce=   0.0000E+00  zforce=  -6.1587E+01   energy=   3.7876E-03   setid =     628 xmoment=   0.0000E+00 ymoment=   0.0000E+00 zmoment=   0.0000E+00
 nd#     631  xforce=   0.0000E+00   yforce=   0.0000E+00  zforce=  -5.7124E+01   energy=   3.6059E-03   setid =     631 xmoment=   0.0000E+00 ymoment=   0.0000E+00 zmoment=   0.0000E+00
 nd#     632  xforce=   0.0000E+00   yforce=   0.0000E+00  zforce=  -9.7005E+01   energy=   4.6769E-03   setid =     632 xmoment=   0.0000E+00 ymoment=   0.0000E+00 zmoment=   0.0000E+00
 nd#     635  xforce=   0.0000E+00   yforce=   0.0000E+00  zforce=  -1.0180E+02   energy=   4.5996E-03   setid =     635 xmoment=   0.0000E+00 ymoment=   0.0000E+00 zmoment=   0.0000E+00
 nd#     636  xforce=   0.0000E+00   yforce=   0.0000E+00  zforce=  -8.8267E+01   energy=   4.8645E-03   setid =     636 xmoment=   0.0000E+00 ymoment=   0.0000E+00 zmoment=   0.0000E+00
 nd#     639  xforce=   0.0000E+00   yforce=   0.0000E+00  zforce=  -7.7858E+01   energy=   4.4983E-03   setid =     639 xmoment=   0.0000E+00 ymoment=   0.0000E+00 zmoment=   0.0000E+00
 nd#     640  xforce=   0.0000E+00   yforce=   0.0000E+00  zforce=  -5.6919E+01   energy=   2.6298E-03   setid =     640 xmoment=   0.0000E+00 ymoment=   0.0000E+00 zmoment=   0.0000E+00
 nd#     643  xforce=   0.0000E+00   yforce=   0.0000E+00  zforce=  -5.7617E+01   energy=   2.5494E-03   setid =     643 xmoment=   0.0000E+00 ymoment=   0.0000E+00 zmoment=   0.0000E+00
 nd#     692  xforce=   0.0000E+00   yforce=   0.0000E+00  zforce=  -6.7091E+01   energy=   3.9829E-03   setid =     692 xmoment=   0.0000E+00 ymoment=   0.0000E+00 zmoment=   0.0000E+00
 nd#     694  xforce=   0.0000E+00   yforce=   0.0000E+00  zforce=  -9.4958E+01   energy=   4.7898E-03   setid =     694 xmoment=   0.0000E+00 ymoment=   0.0000E+00 zmoment=   0.0000E+00
 nd#     696  xforce=   0.0000E+00   yforce=   0.0000E+00  zforce=  -9.9346E+01   energy=   5.3261E-03   setid =     696 xmoment=   0.0000E+00 ymoment=   0.0000E+00 zmoment=   0.0000E+00
 nd#     698  xforce=   0.0000E+00   yforce=   0.0000E+00  zforce=  -5.2753E+01   energy=   2.5800E-03   setid =     698 xmoment=   0.0000E+00 ymoment=   0.0000E+00 zmoment=   0.0000E+00
 nd#     900  xforce=   0.0000E+00   yforce=   0.0000E+00  zforce=  -5.3959E+01   energy=   3.4599E-03   setid =     900 xmoment=   0.0000E+00 ymoment=   0.0000E+00 zmoment=   0.0000E+00
[...]
 nd#     182  xforce=   0.0000E+00   yforce=   0.0000E+00  zforce=  -9.8049E+01   energy=   4.1622E-02   setid =     182 xmoment=   0.0000E+00 ymoment=   0.0000E+00 zmoment=   0.0000E+00
 nd#     247  xforce=   0.0000E+00   yforce=   0.0000E+00  zforce=   1.4468E+02   energy=   1.6590E-01   setid =     247 xmoment=   0.0000E+00 ymoment=   0.0000E+00 zmoment=   0.0000E+00
 nd#     248  xforce=   0.0000E+00   yforce=   0.0000E+00  zforce=  -1.0759E+02   energy=  -3.5369E-02   setid =     248 xmoment=   0.0000E+00 ymoment=   0.0000E+00 zmoment=   0.0000E+00
 nd#     249  xforce=   0.0000E+00   yforce=   0.0000E+00  zforce=  -6.3396E+01   energy=   7.2269E-02   setid =     249 xmoment=   0.0000E+00 ymoment=   0.0000E+00 zmoment=   0.0000E+00
 nd#     250  xforce=   0.0000E+00   yforce=   0.0000E+00  zforce=   7.8862E+01   energy=   1.2705E-01   setid =     250 xmoment=   0.0000E+00 ymoment=   0.0000E+00 zmoment=   0.0000E+00
 nd#     283  xforce=   0.0000E+00   yforce=   0.0000E+00  zforce=   7.9745E+01   energy=   1.1181E-01   setid =     283 xmoment=   0.0000E+00 ymoment=   0.0000E+00 zmoment=   0.0000E+00
 nd#     284  xforce=   0.0000E+00   yforce=   0.0000E+00  zforce=  -2.7283E+02   energy=  -1.4042E-01   setid =     284 xmoment=   0.0000E+00 ymoment=   0.0000E+00 zmoment=   0.0000E+00
 nd#     333  xforce=   0.0000E+00   yforce=   0.0000E+00  zforce=   6.0327E+01   energy=   4.1843E-02   setid =     333 xmoment=   0.0000E+00 ymoment=   0.0000E+00 zmoment=   0.0000E+00
 nd#     334  xforce=   0.0000E+00   yforce=   0.0000E+00  zforce=  -1.5042E+01   energy=   8.4889E-02   setid =     334 xmoment=   0.0000E+00 ymoment=   0.0000E+00 zmoment=   0.0000E+00
 nd#     335  xforce=   0.0000E+00   yforce=   0.0000E+00  zforce=  -3.0077E+01   energy=   5.9254E-02   setid =     335 xmoment=   0.0000E+00 ymoment=   0.0000E+00 zmoment=   0.0000E+00
 nd#     368  xforce=   0.0000E+00   yforce=   0.0000E+00  zforce=   7.7413E+01   energy=   8.6813E-02   setid =     368 xmoment=   0.0000E+00 ymoment=   0.0000E+00 zmoment=   0.0000E+00
 nd#     369  xforce=   0.0000E+00   yforce=   0.0000E+00  zforce=   2.1325E+01   energy=   6.7211E-02   setid =     369 xmoment=   0.0000E+00 ymoment=   0.0000E+00 zmoment=   0.0000E+00
 nd#     386  xforce=   0.0000E+00   yforce=   0.0000E+00  zforce=   8.4867E+01   energy=   1.3338E-01   setid =     386 xmoment=   0.0000E+00 ymoment=   0.0000E+00 zmoment=   0.0000E+00
 nd#     403  xforce=   0.0000E+00   yforce=   0.0000E+00  zforce=   3.4334E+01   energy=   6.7948E-02   setid =     403 xmoment=   0.0000E+00 ymoment=   0.0000E+00 zmoment=   0.0000E+00
 nd#     436  xforce=   0.0000E+00   yforce=   0.0000E+00  zforce=  -5.0623E+01   energy=   7.6483E-02   setid =     436 xmoment=   0.0000E+00 ymoment=   0.0000E+00 zmoment=   0.0000E+00
 nd#     437  xforce=   0.0000E+00   yforce=   0.0000E+00  zforce=  -1.3093E+01   energy=   5.9478E-02   setid =     437 xmoment=   0.0000E+00 ymoment=   0.0000E+00 zmoment=   0.0000E+00
 nd#     438  xforce=   0.0000E+00   yforce=   0.0000E+00  zforce=   1.5536E+01   energy=   5.2731E-02   setid =     438 xmoment=   0.0000E+00 ymoment=   0.0000E+00 zmoment=   0.0000E+00
 nd#     439  xforce=   0.0000E+00   yforce=   0.0000E+00  zforce=   8.3241E+00   energy=   4.9872E-02   setid =     439 xmoment=   0.0000E+00 ymoment=   0.0000E+00 zmoment=   0.0000E+00
 nd#     440  xforce=   0.0000E+00   yforce=   0.0000E+00  zforce=   5.1377E+00   energy=   4.7823E-02   setid =     440 xmoment=   0.0000E+00 ymoment=   0.0000E+00 zmoment=   0.0000E+00
 nd#     441  xforce=   0.0000E+00   yforce=   0.0000E+00  zforce=   1.0275E+00   energy=   4.6548E-02   setid =     441 xmoment=   0.0000E+00 ymoment=   0.0000E+00 zmoment=   0.0000E+00
 nd#     442  xforce=   0.0000E+00   yforce=   0.0000E+00  zforce=  -4.8775E+00   energy=   4.3647E-02   setid =     442 xmoment=   0.0000E+00 ymoment=   0.0000E+00 zmoment=   0.0000E+00
 nd#     443  xforce=   0.0000E+00   yforce=   0.0000E+00  zforce=  -4.4214E+00   energy=   3.2245E-02   setid =     443 xmoment=   0.0000E+00 ymoment=   0.0000E+00 zmoment=   0.0000E+00
 nd#     444  xforce=   0.0000E+00   yforce=   0.0000E+00  zforce=  -3.2446E+00   energy=  -1.0535E-02   setid =     444 xmoment=   0.0000E+00 ymoment=   0.0000E+00 zmoment=   0.0000E+00
 nd#     628  xforce=   0.0000E+00   yforce=   0.0000E+00  zforce=  -6.6540E+01   energy=   7.7958E-02   setid =     628 xmoment=   0.0000E+00 ymoment=   0.0000E+00 zmoment=   0.0000E+00
 nd#     631  xforce=   0.0000E+00   yforce=   0.0000E+00  zforce=  -7.4124E+01   energy=   7.0857E-02   setid =     631 xmoment=   0.0000E+00 ymoment=   0.0000E+00 zmoment=   0.0000E+00
 nd#     632  xforce=   0.0000E+00   yforce=   0.0000E+00  zforce=  -4.2007E+01   energy=   1.0688E-01   setid =     632 xmoment=   0.0000E+00 ymoment=   0.0000E+00 zmoment=   0.0000E+00
 nd#     635  xforce=   0.0000E+00   yforce=   0.0000E+00  zforce=  -4.0684E+01   energy=   1.0806E-01   setid =     635 xmoment=   0.0000E+00 ymoment=   0.0000E+00 zmoment=   0.0000E+00
 nd#     636  xforce=   0.0000E+00   yforce=   0.0000E+00  zforce=  -3.7421E+01   energy=   9.8844E-02   setid =     636 xmoment=   0.0000E+00 ymoment=   0.0000E+00 zmoment=   0.0000E+00
 nd#     639  xforce=   0.0000E+00   yforce=   0.0000E+00  zforce=  -4.0720E+01   energy=   8.8155E-02   setid =     639 xmoment=   0.0000E+00 ymoment=   0.0000E+00 zmoment=   0.0000E+00
 nd#     640  xforce=   0.0000E+00   yforce=   0.0000E+00  zforce=  -1.0413E+01   energy=   5.4002E-02   setid =     640 xmoment=   0.0000E+00 ymoment=   0.0000E+00 zmoment=   0.0000E+00
 nd#     643  xforce=   0.0000E+00   yforce=   0.0000E+00  zforce=  -8.1378E+00   energy=   5.4217E-02   setid =     643 xmoment=   0.0000E+00 ymoment=   0.0000E+00 zmoment=   0.0000E+00
 nd#     692  xforce=   0.0000E+00   yforce=   0.0000E+00  zforce=  -6.3514E+01   energy=   8.4706E-02   setid =     692 xmoment=   0.0000E+00 ymoment=   0.0000E+00 zmoment=   0.0000E+00
 nd#     694  xforce=   0.0000E+00   yforce=   0.0000E+00  zforce=  -4.5141E+01   energy=   1.0827E-01   setid =     694 xmoment=   0.0000E+00 ymoment=   0.0000E+00 zmoment=   0.0000E+00
 nd#     696  xforce=   0.0000E+00   yforce=   0.0000E+00  zforce=  -3.6597E+01   energy=   1.1014E-01   setid =     696 xmoment=   0.0000E+00 ymoment=   0.0000E+00 zmoment=   0.0000E+00
 nd#     698  xforce=   0.0000E+00   yforce=   0.0000E+00  zforce=  -6.0555E+00   energy=   5.2419E-02   setid =     698 xmoment=   0.0000E+00 ymoment=   0.0000E+00 zmoment=   0.0000E+00
 nd#     900  xforce=   0.0000E+00   yforce=   0.0000E+00  zforce=  -5.1878E+01   energy=   6.7052E-02   setid =     900 xmoment=   0.0000E+00 ymoment=   0.0000E+00 zmoment=   0.0000E+00
 nd#     902  xforce=   0.0000E+00   yforce=   0.0000E+00  zforce=  -5.9980E+01   energy=   8.7648E-02   setid =     902 xmoment=   0.0000E+00 ymoment=   0.0000E+00 zmoment=   0.0000E+00
 nd#     903  xforce=   0.0000E+00   yforce=   0.0000E+00  zforce=  -3.4777E+01   energy=   8.9941E-02   setid =     903 xmoment=   0.0000E+00 ymoment=   0.0000E+00 zmoment=   0.0000E+00
 nd#     905  xforce=   0.0000E+00   yforce=   0.0000E+00  zforce=  -5.1548E+01   energy=   1.0804E-01   setid =     905 xmoment=   0.0000E+00 ymoment=   0.0000E+00 zmoment=   0.0000E+00
 nd#     906  xforce=   0.0000E+00   yforce=   0.0000E+00  zforce=  -1.8359E+01   energy=   9.9873E-02   setid =     906 xmoment=   0.0000E+00 ymoment=   0.0000E+00 zmoment=   0.0000E+00
 nd#     908  xforce=   0.0000E+00   yforce=   0.0000E+00  zforce=  -4.0601E+01   energy=   1.1829E-01   setid =     908 xmoment=   0.0000E+00 ymoment=   0.0000E+00 zmoment=   0.0000E+00
 nd#     909  xforce=   0.0000E+00   yforce=   0.0000E+00  zforce=  -3.6443E+00   energy=   1.7221E-02   setid =     909 xmoment=   0.0000E+00 ymoment=   0.0000E+00 zmoment=   0.0000E+00
 nd#     911  xforce=   0.0000E+00   yforce=   0.0000E+00  zforce=  -3.5884E+00   energy=   4.4549E-02   setid =     911 xmoment=   0.0000E+00 ymoment=   0.0000E+00 zmoment=   0.0000E+00
 nd#    1012  xforce=   0.0000E+00   yforce=   0.0000E+00  zforce=  -8.3453E+01   energy=   6.2769E-02   setid =    1012 xmoment=   0.0000E+00 ymoment=   0.0000E+00 zmoment=   0.0000E+00
 nd#    1013  xforce=   0.0000E+00   yforce=   0.0000E+00  zforce=  -4.3176E+01   energy=   1.1338E-01   setid =    1013 xmoment=   0.0000E+00 ymoment=   0.0000E+00 zmoment=   0.0000E+00
 nd#    1014  xforce=   0.0000E+00   yforce=   0.0000E+00  zforce=  -3.9649E+01   energy=   8.0977E-02   setid =    1014 xmoment=   0.0000E+00 ymoment=   0.0000E+00 zmoment=   0.0000E+00
 nd#    1015  xforce=   0.0000E+00   yforce=   0.0000E+00  zforce=  -1.0492E+00   energy=   5.6181E-02   setid =    1015 xmoment=   0.0000E+00 ymoment=   0.0000E+00 zmoment=   0.0000E+00
 nd#    1060  xforce=   0.0000E+00   yforce=   0.0000E+00  zforce=  -1.9178E+01   energy=  -3.9282E-02   setid =    1060 xmoment=   0.0000E+00 ymoment=   0.0000E+00 zmoment=   0.0000E+00
 nd#    1061  xforce=   0.0000E+00   yforce=   0.0000E+00  zforce=  -1.5289E+01   energy=  -4.4225E-02   setid =    1061 xmoment=   0.0000E+00 ymoment=   0.0000E+00 zmoment=   0.0000E+00
 nd#    1062  xforce=   0.0000E+00   yforce=   0.0000E+00  zforce=   2.5426E+01   energy=  -7.8114E-02   setid =    1062 xmoment=   0.0000E+00 ymoment=   0.0000E+00 zmoment=   0.0000E+00
 nd#    1063  xforce=   0.0000E+00   yforce=   0.0000E+00  zforce=  -4.4343E+01   energy=  -4.7547E-02   setid =    1063 xmoment=   0.0000E+00 ymoment=   0.0000E+00 zmoment=   0.0000E+00
              xtotal=   0.0000E+00   ytotal=   0.0000E+00  ztotal=  -1.2223E+03   etotal=   3.3889E+00

 n o d a l   f o r c e/e n e r g y    o u t p u t  t=   9.97101E+01

 velocity boundary condition forces/rigid body moments 

 nd#     179  xforce=   0.0000E+00   yforce=   0.0000E+00  zforce=  -4.3663E+01   energy=   1.2035E-01   setid =     179 xmoment=   0.0000E+00 ymoment=   0.0000E+00 zmoment=   0.0000E+00
 nd#     180  xforce=   0.0000E+00   yforce=   0.0000E+00  zforce=   8.4286E+00   energy=   1.7859E-01   setid =     180 xmoment=   0.0000E+00 ymoment=   0.0000E+00 zmoment=   0.0000E+00
 nd#     181  xforce=   0.0000E+00   yforce=   0.0000E+00  zforce=  -1.2496E+02   energy=   6.0525E-02   setid =     181 xmoment=   0.0000E+00 ymoment=   0.0000E+00 zmoment=   0.0000E+00
 nd#     182  xforce=   0.0000E+00   yforce=   0.0000E+00  zforce=  -1.1409E+02   energy=   4.4083E-02   setid =     182 xmoment=   0.0000E+00 ymoment=   0.0000E+00 zmoment=   0.0000E+00
 nd#     247  xforce=   0.0000E+00   yforce=   0.0000E+00  zforce=   1.6606E+02   energy=   1.6230E-01   setid =     247 xmoment=   0.0000E+00 ymoment=   0.0000E+00 zmoment=   0.0000E+00
 nd#     248  xforce=   0.0000E+00   yforce=   0.0000E+00  zforce=  -1.6570E+02   energy=  -3.2197E-02   setid =     248 xmoment=   0.0000E+00 ymoment=   0.0000E+00 zmoment=   0.0000E+00
 nd#     249  xforce=   0.0000E+00   yforce=   0.0000E+00  zforce=  -8.0963E+01   energy=   7.3944E-02   setid =     249 xmoment=   0.0000E+00 ymoment=   0.0000E+00 zmoment=   0.0000E+00
 nd#     250  xforce=   0.0000E+00   yforce=   0.0000E+00  zforce=   8.3353E+01   energy=   1.2517E-01   setid =     250 xmoment=   0.0000E+00 ymoment=   0.0000E+00 zmoment=   0.0000E+00
 nd#     283  xforce=   0.0000E+00   yforce=   0.0000E+00  zforce=   6.3401E+01   energy=   1.1015E-01   setid =     283 xmoment=   0.0000E+00 ymoment=   0.0000E+00 zmoment=   0.0000E+00
 nd#     284  xforce=   0.0000E+00   yforce=   0.0000E+00  zforce=  -3.5235E+02   energy=  -1.3317E-01   setid =     284 xmoment=   0.0000E+00 ymoment=   0.0000E+00 zmoment=   0.0000E+00
 nd#     333  xforce=   0.0000E+00   yforce=   0.0000E+00  zforce=   1.2621E+02   energy=   3.9678E-02   setid =     333 xmoment=   0.0000E+00 ymoment=   0.0000E+00 zmoment=   0.0000E+00
 nd#     334  xforce=   0.0000E+00   yforce=   0.0000E+00  zforce=   3.9118E+01   energy=   8.4609E-02   setid =     334 xmoment=   0.0000E+00 ymoment=   0.0000E+00 zmoment=   0.0000E+00
 nd#     335  xforce=   0.0000E+00   yforce=   0.0000E+00  zforce=  -5.8136E+01   energy=   6.0277E-02   setid =     335 xmoment=   0.0000E+00 ymoment=   0.0000E+00 zmoment=   0.0000E+00
 nd#     368  xforce=   0.0000E+00   yforce=   0.0000E+00  zforce=   1.1200E+02   energy=   8.4616E-02   setid =     368 xmoment=   0.0000E+00 ymoment=   0.0000E+00 zmoment=   0.0000E+00
 nd#     369  xforce=   0.0000E+00   yforce=   0.0000E+00  zforce=   1.6910E+01   energy=   6.6767E-02   setid =     369 xmoment=   0.0000E+00 ymoment=   0.0000E+00 zmoment=   0.0000E+00
 nd#     386  xforce=   0.0000E+00   yforce=   0.0000E+00  zforce=   9.8355E+01   energy=   1.3126E-01   setid =     386 xmoment=   0.0000E+00 ymoment=   0.0000E+00 zmoment=   0.0000E+00
 nd#     403  xforce=   0.0000E+00   yforce=   0.0000E+00  zforce=   3.0864E+01   energy=   6.7192E-02   setid =     403 xmoment=   0.0000E+00 ymoment=   0.0000E+00 zmoment=   0.0000E+00
 nd#     436  xforce=   0.0000E+00   yforce=   0.0000E+00  zforce=  -6.2233E+01   energy=   7.7793E-02   setid =     436 xmoment=   0.0000E+00 ymoment=   0.0000E+00 zmoment=   0.0000E+00
 nd#     437  xforce=   0.0000E+00   yforce=   0.0000E+00  zforce=  -5.6101E+00   energy=   5.9695E-02   setid =     437 xmoment=   0.0000E+00 ymoment=   0.0000E+00 zmoment=   0.0000E+00
 nd#     438  xforce=   0.0000E+00   yforce=   0.0000E+00  zforce=   2.2210E+01   energy=   5.2293E-02   setid =     438 xmoment=   0.0000E+00 ymoment=   0.0000E+00 zmoment=   0.0000E+00
 nd#     439  xforce=   0.0000E+00   yforce=   0.0000E+00  zforce=   1.3480E+01   energy=   4.9619E-02   setid =     439 xmoment=   0.0000E+00 ymoment=   0.0000E+00 zmoment=   0.0000E+00
 nd#     440  xforce=   0.0000E+00   yforce=   0.0000E+00  zforce=   9.6223E+00   energy=   4.7652E-02   setid =     440 xmoment=   0.0000E+00 ymoment=   0.0000E+00 zmoment=   0.0000E+00
 nd#     441  xforce=   0.0000E+00   yforce=   0.0000E+00  zforce=   6.8907E+00   energy=   4.6457E-02   setid =     441 xmoment=   0.0000E+00 ymoment=   0.0000E+00 zmoment=   0.0000E+00
 nd#     442  xforce=   0.0000E+00   yforce=   0.0000E+00  zforce=   6.3118E+00   energy=   4.3630E-02   setid =     442 xmoment=   0.0000E+00 ymoment=   0.0000E+00 zmoment=   0.0000E+00
 nd#     443  xforce=   0.0000E+00   yforce=   0.0000E+00  zforce=   9.8483E+00   energy=   3.2182E-02   setid =     443 xmoment=   0.0000E+00 ymoment=   0.0000E+00 zmoment=   0.0000E+00
 nd#     444  xforce=   0.0000E+00   yforce=   0.0000E+00  zforce=   6.2794E+00   energy=  -1.0570E-02   setid =     444 xmoment=   0.0000E+00 ymoment=   0.0000E+00 zmoment=   0.0000E+00
 nd#     628  xforce=   0.0000E+00   yforce=   0.0000E+00  zforce=  -5.0521E+01   energy=   7.9317E-02   setid =     628 xmoment=   0.0000E+00 ymoment=   0.0000E+00 zmoment=   0.0000E+00
 nd#     631  xforce=   0.0000E+00   yforce=   0.0000E+00  zforce=  -5.5680E+01   energy=   7.2363E-02   setid =     631 xmoment=   0.0000E+00 ymoment=   0.0000E+00 zmoment=   0.0000E+00
 nd#     632  xforce=   0.0000E+00   yforce=   0.0000E+00  zforce=  -2.6815E+01   energy=   1.0768E-01   setid =     632 xmoment=   0.0000E+00 ymoment=   0.0000E+00 zmoment=   0.0000E+00
 nd#     635  xforce=   0.0000E+00   yforce=   0.0000E+00  zforce=  -2.3578E+01   energy=   1.0881E-01   setid =     635 xmoment=   0.0000E+00 ymoment=   0.0000E+00 zmoment=   0.0000E+00
 nd#     636  xforce=   0.0000E+00   yforce=   0.0000E+00  zforce=  -3.5820E+01   energy=   9.9694E-02   setid =     636 xmoment=   0.0000E+00 ymoment=   0.0000E+00 zmoment=   0.0000E+00
 nd#     639  xforce=   0.0000E+00   yforce=   0.0000E+00  zforce=  -4.0577E+01   energy=   8.9098E-02   setid =     639 xmoment=   0.0000E+00 ymoment=   0.0000E+00 zmoment=   0.0000E+00
 nd#     640  xforce=   0.0000E+00   yforce=   0.0000E+00  zforce=  -5.8273E+00   energy=   5.4190E-02   setid =     640 xmoment=   0.0000E+00 ymoment=   0.0000E+00 zmoment=   0.0000E+00
 nd#     643  xforce=   0.0000E+00   yforce=   0.0000E+00  zforce=  -2.0336E+00   energy=   5.4335E-02   setid =     643 xmoment=   0.0000E+00 ymoment=   0.0000E+00 zmoment=   0.0000E+00
 nd#     692  xforce=   0.0000E+00   yforce=   0.0000E+00  zforce=  -4.4202E+01   energy=   8.5956E-02   setid =     692 xmoment=   0.0000E+00 ymoment=   0.0000E+00 zmoment=   0.0000E+00
 nd#     694  xforce=   0.0000E+00   yforce=   0.0000E+00  zforce=  -3.0208E+01   energy=   1.0914E-01   setid =     694 xmoment=   0.0000E+00 ymoment=   0.0000E+00 zmoment=   0.0000E+00
 nd#     696  xforce=   0.0000E+00   yforce=   0.0000E+00  zforce=  -3.5866E+01   energy=   1.1098E-01   setid =     696 xmoment=   0.0000E+00 ymoment=   0.0000E+00 zmoment=   0.0000E+00
 nd#     698  xforce=   0.0000E+00   yforce=   0.0000E+00  zforce=  -2.9054E+00   energy=   5.2523E-02   setid =     698 xmoment=   0.0000E+00 ymoment=   0.0000E+00 zmoment=   0.0000E+00
 nd#     900  xforce=   0.0000E+00   yforce=   0.0000E+00  zforce=  -1.9194E+01   energy=   6.7876E-02   setid =     900 xmoment=   0.0000E+00 ymoment=   0.0000E+00 zmoment=   0.0000E+00
 nd#     902  xforce=   0.0000E+00   yforce=   0.0000E+00  zforce=  -3.3700E+01   energy=   8.8735E-02   setid =     902 xmoment=   0.0000E+00 ymoment=   0.0000E+00 zmoment=   0.0000E+00
 nd#     903  xforce=   0.0000E+00   yforce=   0.0000E+00  zforce=  -1.0047E+01   energy=   9.0462E-02   setid =     903 xmoment=   0.0000E+00 ymoment=   0.0000E+00 zmoment=   0.0000E+00
 nd#     905  xforce=   0.0000E+00   yforce=   0.0000E+00  zforce=  -3.0670E+01   energy=   1.0899E-01   setid =     905 xmoment=   0.0000E+00 ymoment=   0.0000E+00 zmoment=   0.0000E+00
 nd#     906  xforce=   0.0000E+00   yforce=   0.0000E+00  zforce=  -3.1084E+00   energy=   1.0012E-01   setid =     906 xmoment=   0.0000E+00 ymoment=   0.0000E+00 zmoment=   0.0000E+00
 nd#     908  xforce=   0.0000E+00   yforce=   0.0000E+00  zforce=  -3.2711E+01   energy=   1.1914E-01   setid =     908 xmoment=   0.0000E+00 ymoment=   0.0000E+00 zmoment=   0.0000E+00
 nd#     909  xforce=   0.0000E+00   yforce=   0.0000E+00  zforce=   4.7598E+00   energy=   1.7208E-02   setid =     909 xmoment=   0.0000E+00 ymoment=   0.0000E+00 zmoment=   0.0000E+00
 nd#     911  xforce=   0.0000E+00   yforce=   0.0000E+00  zforce=   5.4571E-01   energy=   4.4584E-02   setid =     911 xmoment=   0.0000E+00 ymoment=   0.0000E+00 zmoment=   0.0000E+00
 nd#    1012  xforce=   0.0000E+00   yforce=   0.0000E+00  zforce=  -6.3513E+01   energy=   6.4474E-02   setid =    1012 xmoment=   0.0000E+00 ymoment=   0.0000E+00 zmoment=   0.0000E+00
 nd#    1013  xforce=   0.0000E+00   yforce=   0.0000E+00  zforce=  -2.2529E+01   energy=   1.1414E-01   setid =    1013 xmoment=   0.0000E+00 ymoment=   0.0000E+00 zmoment=   0.0000E+00
 nd#    1014  xforce=   0.0000E+00   yforce=   0.0000E+00  zforce=  -4.9763E+01   energy=   8.2015E-02   setid =    1014 xmoment=   0.0000E+00 ymoment=   0.0000E+00 zmoment=   0.0000E+00
 nd#    1015  xforce=   0.0000E+00   yforce=   0.0000E+00  zforce=   3.9087E+00   energy=   5.6148E-02   setid =    1015 xmoment=   0.0000E+00 ymoment=   0.0000E+00 zmoment=   0.0000E+00
 nd#    1060  xforce=   0.0000E+00   yforce=   0.0000E+00  zforce=   7.9956E+00   energy=  -3.9152E-02   setid =    1060 xmoment=   0.0000E+00 ymoment=   0.0000E+00 zmoment=   0.0000E+00
 nd#    1061  xforce=   0.0000E+00   yforce=   0.0000E+00  zforce=   1.4319E+01   energy=  -4.4213E-02   setid =    1061 xmoment=   0.0000E+00 ymoment=   0.0000E+00 zmoment=   0.0000E+00
 nd#    1062  xforce=   0.0000E+00   yforce=   0.0000E+00  zforce=   6.1530E+01   energy=  -7.9123E-02   setid =    1062 xmoment=   0.0000E+00 ymoment=   0.0000E+00 zmoment=   0.0000E+00
 nd#    1063  xforce=   0.0000E+00   yforce=   0.0000E+00  zforce=  -1.3439E+01   energy=  -4.6877E-02   setid =    1063 xmoment=   0.0000E+00 ymoment=   0.0000E+00 zmoment=   0.0000E+00
              xtotal=   0.0000E+00   ytotal=   0.0000E+00  ztotal=  -7.2802E+02   etotal=   3.4115E+00
