 LS-DYNA keyword deck by LS-PrePost                                      
                    ls-dyna smp d R14 R14.1.1s_1_ef50e1 date 06/16/2024



 n o d a l  s t r e s s  c a l c u l a t i o n s   f o r   t i m e  s t e p        1   ( at time 0.00000E+00 )

 node (global)
          stress       sig-xx      sig-yy      sig-zz      sig-xy      sig-yz      sig-zx       plastic
                                                                                                 strain 
       4-
 mid.  surface     4.3884E-06  4.3884E-06  4.3884E-06  0.0000E+00  0.0000E+00  0.0000E+00  0.0000E+00
       5-
 mid.  surface    -2.2719E-05 -2.2719E-05 -2.2719E-05  0.0000E+00  0.0000E+00  0.0000E+00  0.0000E+00
       6-
 mid.  surface    -1.0466E-04 -1.0466E-04 -1.0466E-04  0.0000E+00  0.0000E+00  0.0000E+00  0.0000E+00
       7-
 mid.  surface    -9.3825E-05 -9.3825E-05 -9.3825E-05  0.0000E+00  0.0000E+00  0.0000E+00  0.0000E+00
       8-
 mid.  surface    -6.4921E-05 -6.4921E-05 -6.4921E-05  0.0000E+00  0.0000E+00  0.0000E+00  0.0000E+00
       9-
 mid.  surface    -5.9035E-05 -5.9035E-05 -5.9035E-05  0.0000E+00  0.0000E+00  0.0000E+00  0.0000E+00
      10-
 mid.  surface    -2.1669E-05 -2.1669E-05 -2.1669E-05  0.0000E+00  0.0000E+00  0.0000E+00  0.0000E+00
      15-
 mid.  surface     2.9827E-05  2.9827E-05  2.9827E-05  0.0000E+00  0.0000E+00  0.0000E+00  0.0000E+00
      16-
 mid.  surface    -3.2415E-05 -3.2415E-05 -3.2415E-05  0.0000E+00  0.0000E+00  0.0000E+00  0.0000E+00
      18-
 mid.  surface     2.3031E-05  2.3031E-05  2.3031E-05  0.0000E+00  0.0000E+00  0.0000E+00  0.0000E+00
      40-
 mid.  surface     7.9568E-05  7.9568E-05  7.9568E-05  0.0000E+00  0.0000E+00  0.0000E+00  0.0000E+00
      41-
 mid.  surface     2.0005E-05  2.0005E-05  2.0005E-05  0.0000E+00  0.0000E+00  0.0000E+00  0.0000E+00
      50-
 mid.  surface     2.6276E-05  2.6276E-05  2.6276E-05  0.0000E+00  0.0000E+00  0.0000E+00  0.0000E+00
      51-
 mid.  surface     1.4888E-04  1.4888E-04  1.4888E-04  0.0000E+00  0.0000E+00  0.0000E+00  0.0000E+00
      52-
 mid.  surface     1.4888E-04  1.4888E-04  1.4888E-04  0.0000E+00  0.0000E+00  0.0000E+00  0.0000E+00
      53-
 mid.  surface    -3.2415E-05 -3.2415E-05 -3.2415E-05  0.0000E+00  0.0000E+00  0.0000E+00  0.0000E+00
      72-
 mid.  surface     8.3389E-05  8.3389E-05  8.3389E-05  0.0000E+00  0.0000E+00  0.0000E+00  0.0000E+00
      95-
 mid.  surface    -4.2418E-05 -4.2418E-05 -4.2418E-05  0.0000E+00  0.0000E+00  0.0000E+00  0.0000E+00
     100-
 mid.  surface     2.3031E-05  2.3031E-05  2.3031E-05  0.0000E+00  0.0000E+00  0.0000E+00  0.0000E+00
     110-
 mid.  surface    -2.1669E-05 -2.1669E-05 -2.1669E-05  0.0000E+00  0.0000E+00  0.0000E+00  0.0000E+00



 n o d a l  s t r a i n  c a l c u l a t i o n s   f o r   t i m e  s t e p        1   ( at time 0.00000E+00 )

 node (global)
          strain       eps-xx      eps-yy      eps-zz      eps-xy      eps-yz      eps-zx       
       4-
 mid.  surface     0.0000E+00  0.0000E+00  0.0000E+00  0.0000E+00  0.0000E+00  0.0000E+00
       5-
 mid.  surface     0.0000E+00  0.0000E+00  0.0000E+00  0.0000E+00  0.0000E+00  0.0000E+00
       6-
 mid.  surface     0.0000E+00  0.0000E+00  0.0000E+00  0.0000E+00  0.0000E+00  0.0000E+00
       7-
 mid.  surface     0.0000E+00  0.0000E+00  0.0000E+00  0.0000E+00  0.0000E+00  0.0000E+00
       8-
 mid.  surface     0.0000E+00  0.0000E+00  0.0000E+00  0.0000E+00  0.0000E+00  0.0000E+00
       9-
 mid.  surface     0.0000E+00  0.0000E+00  0.0000E+00  0.0000E+00  0.0000E+00  0.0000E+00
      10-
 mid.  surface     0.0000E+00  0.0000E+00  0.0000E+00  0.0000E+00  0.0000E+00  0.0000E+00
      15-
 mid.  surface     0.0000E+00  0.0000E+00  0.0000E+00  0.0000E+00  0.0000E+00  0.0000E+00
      16-
 mid.  surface     0.0000E+00  0.0000E+00  0.0000E+00  0.0000E+00  0.0000E+00  0.0000E+00
      18-
 mid.  surface     0.0000E+00  0.0000E+00  0.0000E+00  0.0000E+00  0.0000E+00  0.0000E+00
      40-
 mid.  surface     0.0000E+00  0.0000E+00  0.0000E+00  0.0000E+00  0.0000E+00  0.0000E+00
      41-
 mid.  surface     0.0000E+00  0.0000E+00  0.0000E+00  0.0000E+00  0.0000E+00  0.0000E+00
      50-
 mid.  surface     0.0000E+00  0.0000E+00  0.0000E+00  0.0000E+00  0.0000E+00  0.0000E+00
      51-
 mid.  surface     0.0000E+00  0.0000E+00  0.0000E+00  0.0000E+00  0.0000E+00  0.0000E+00
      52-
 mid.  surface     0.0000E+00  0.0000E+00  0.0000E+00  0.0000E+00  0.0000E+00  0.0000E+00
      53-
 mid.  surface     0.0000E+00  0.0000E+00  0.0000E+00  0.0000E+00  0.0000E+00  0.0000E+00
      72-
 mid.  surface     0.0000E+00  0.0000E+00  0.0000E+00  0.0000E+00  0.0000E+00  0.0000E+00
      95-
 mid.  surface     0.0000E+00  0.0000E+00  0.0000E+00  0.0000E+00  0.0000E+00  0.0000E+00
     100-
 mid.  surface     0.0000E+00  0.0000E+00  0.0000E+00  0.0000E+00  0.0000E+00  0.0000E+00
     110-
 mid.  surface     0.0000E+00  0.0000E+00  0.0000E+00  0.0000E+00  0.0000E+00  0.0000E+00



 n o d a l  s t r e s s  c a l c u l a t i o n s   f o r   t i m e  s t e p       10   ( at time 1.29245E+00 )

 node (global)
          stress       sig-xx      sig-yy      sig-zz      sig-xy      sig-yz      sig-zx       plastic
                                                                                                 strain 
       4-
 mid.  surface    -3.9730E+07 -3.0768E+07 -2.6580E+08  2.7913E+07 -7.1266E+06 -1.0436E+07  0.0000E+00
       5-
 mid.  surface     8.3150E+06 -2.8587E+07 -1.2104E+08  4.9471E+07 -1.3693E+07 -7.8433E+07  0.0000E+00
       6-
 mid.  surface    -8.3725E+06 -2.0875E+07 -1.3349E+08  2.1210E+07 -7.8733E+07 -5.5048E+07  0.0000E+00
       7-
 mid.  surface    -1.6461E+07 -1.2972E+07 -1.9863E+08  2.2951E+07 -9.8305E+07 -1.5439E+07  0.0000E+00
       8-
 mid.  surface    -2.9477E+07  4.3574E+06 -2.3164E+08  9.4085E+06 -6.5272E+07  1.1254E+07  0.0000E+00
       9-
 mid.  surface    -6.2866E+07 -4.0096E+07 -2.9363E+08 -2.4223E+07 -2.0886E+07  1.3065E+07  0.0000E+00
      10-
 mid.  surface    -2.8335E+07  2.9993E+07 -9.2395E+07 -1.3952E+07  4.3386E+06  8.3775E+06  0.0000E+00
      15-
 mid.  surface     1.6945E+07 -1.0275E+07 -1.5539E+08  1.9493E+07 -2.4480E+07 -3.2968E+07  0.0000E+00
      16-
 mid.  surface    -1.5249E+07 -2.3226E+07 -2.1449E+08 -3.6201E+06 -1.0482E+07 -1.7583E+07  0.0000E+00
      18-
 mid.  surface     7.1226E+06  4.5107E+07 -7.5390E+07  2.4866E+07 -2.1168E+07 -1.7971E+07  0.0000E+00
      40-
 mid.  surface    -5.3361E+07 -1.5703E+07 -1.3390E+08  1.7600E+07 -7.6199E+05  8.6773E+06  0.0000E+00
      41-
 mid.  surface    -6.4363E+07 -1.7413E+07 -1.1253E+08  1.0279E+06 -3.4358E+07  8.5443E+06  0.0000E+00
      50-
 mid.  surface    -9.1845E+07 -7.5957E+07 -2.9211E+08 -1.7355E+07  1.1927E+07  3.3232E+07  0.0000E+00
      51-
 mid.  surface    -1.2861E+08 -8.1872E+07 -3.4702E+08  7.6741E+06  1.1267E+07  2.9069E+07  0.0000E+00
      52-
 mid.  surface    -9.1797E+07 -1.1421E+08 -2.1682E+08  2.2733E+07  5.4744E+07 -4.1504E+07  0.0000E+00
      53-
 mid.  surface    -9.2454E+07 -1.1498E+08 -2.3723E+08  3.2235E+06  1.6879E+07 -3.6212E+07  0.0000E+00
      72-
 mid.  surface    -5.7196E+07 -7.8186E+07 -2.3693E+08  7.2952E+06  1.6397E+07  2.4582E+07  0.0000E+00
      95-
 mid.  surface    -7.0795E+07 -1.0638E+08 -2.8505E+08  1.4715E+07  1.8639E+07 -3.9184E+07  0.0000E+00
     100-
 mid.  surface    -6.4473E+07 -5.3008E+07 -2.7707E+08  1.4048E+07 -1.8028E+07 -3.2758E+07  0.0000E+00
     110-
 mid.  surface    -8.4015E+07 -7.4225E+07 -3.0376E+08  2.8905E+06 -5.6880E+07 -3.0366E+07  0.0000E+00



 n o d a l  s t r a i n  c a l c u l a t i o n s   f o r   t i m e  s t e p       10   ( at time 1.29245E+00 )

 node (global)
          strain       eps-xx      eps-yy      eps-zz      eps-xy      eps-yz      eps-zx       
       4-
 mid.  surface     8.5034E-04  1.0213E-03 -3.4641E-03  5.3262E-04 -1.3587E-04 -1.9888E-04
       5-
 mid.  surface     8.3459E-04  1.3043E-04 -1.6339E-03  9.4411E-04 -2.6133E-04 -1.4970E-03
       6-
 mid.  surface     6.1788E-04  3.7951E-04 -1.7698E-03  4.0466E-04 -1.5026E-03 -1.0507E-03
       7-
 mid.  surface     7.7493E-04  8.4208E-04 -2.7024E-03  4.3811E-04 -1.8756E-03 -2.9410E-04
       8-
 mid.  surface     6.6351E-04  1.3096E-03 -3.1946E-03  1.7941E-04 -1.2457E-03  2.1469E-04
       9-
 mid.  surface     6.9552E-04  1.1299E-03 -3.7080E-03 -4.6250E-04 -3.9898E-04  2.4905E-04
      10-
 mid.  surface    -1.0581E-04  1.0072E-03 -1.3284E-03 -2.6621E-04  8.3179E-05  1.6004E-04
      15-
 mid.  surface     1.0350E-03  5.1501E-04 -2.2544E-03  3.7225E-04 -4.6653E-04 -6.2841E-04
      16-
 mid.  surface     9.1903E-04  7.6635E-04 -2.8836E-03 -6.9141E-05 -1.9972E-04 -3.3510E-04
      18-
 mid.  surface     2.4750E-04  9.7216E-04 -1.3275E-03  4.7469E-04 -4.0345E-04 -3.4257E-04
      40-
 mid.  surface    -4.7870E-05  6.7035E-04 -1.5843E-03  3.3588E-04 -1.4647E-05  1.6547E-04
      41-
 mid.  surface    -2.9877E-04  5.9667E-04 -1.2172E-03  1.9523E-05 -6.5604E-04  1.6274E-04
      50-
 mid.  surface     4.4549E-04  7.4821E-04 -3.3757E-03 -3.3128E-04  2.2739E-04  6.3390E-04
      51-
 mid.  surface     2.1050E-04  1.1022E-03 -3.9570E-03  1.4641E-04  2.1493E-04  5.5447E-04
      52-
 mid.  surface     2.6906E-04 -1.5873E-04 -2.1163E-03  4.3375E-04  1.0445E-03 -7.9258E-04
      53-
 mid.  surface     3.6066E-04 -6.9051E-05 -2.4016E-03  6.1367E-05  3.2151E-04 -6.9189E-04
      72-
 mid.  surface     6.8844E-04  2.8719E-04 -2.7417E-03  1.3943E-04  3.1325E-04  4.6954E-04
      95-
 mid.  surface     8.5768E-04  1.7914E-04 -3.2310E-03  2.8074E-04  3.5521E-04 -7.4822E-04
     100-
 mid.  surface     6.5468E-04  8.7374E-04 -3.4019E-03  2.6779E-04 -3.4486E-04 -6.2584E-04
     110-
 mid.  surface     6.0444E-04  7.9101E-04 -3.5884E-03  5.4937E-05 -1.0864E-03 -5.8023E-04



 n o d a l  s t r e s s  c a l c u l a t i o n s   f o r   t i m e  s t e p       14   ( at time 2.54839E+00 )

 node (global)
          stress       sig-xx      sig-yy      sig-zz      sig-xy      sig-yz      sig-zx       plastic
                                                                                                 strain 
       4-
 mid.  surface    -1.3266E+08 -1.3507E+08 -3.7709E+08  4.0243E+07 -4.1832E+06  3.4817E+07  1.2589E-03
       5-
 mid.  surface     1.7094E+07 -2.3479E+07 -2.4092E+08  8.2278E+07 -2.9400E+07 -1.1652E+08  1.3166E-04
       6-
 mid.  surface    -2.6055E+07 -1.5527E+07 -2.0694E+08  3.9329E+07 -1.5022E+08 -7.2938E+07  4.8766E-04
       7-
 mid.  surface    -8.6371E+07 -4.1366E+07 -2.4528E+08  3.3782E+07 -1.6871E+08  8.4693E+06  1.0591E-03
       8-
 mid.  surface    -1.1645E+08 -5.1875E+07 -2.7758E+08  1.1605E+07 -1.0275E+08  4.2337E+07  1.2853E-03
       9-
 mid.  surface    -1.9045E+08 -1.5677E+08 -3.9910E+08 -3.4544E+07 -2.0980E+07  2.9802E+07  1.2569E-03
      10-
 mid.  surface    -2.7566E+07  8.1651E+07 -1.9931E+08 -3.3575E+07  2.2156E+07  1.8873E+07  3.2843E-05
      15-
 mid.  surface     2.3996E+07 -2.8819E+07 -1.9767E+08  3.8733E+07 -7.4009E+07 -2.4133E+07  8.0052E-04
      16-
 mid.  surface    -6.0519E+07 -9.8243E+07 -2.7646E+08 -4.2259E+06 -5.2594E+07  4.8642E+06  1.1704E-03
      18-
 mid.  surface     4.8464E+07  1.1542E+08 -1.3590E+08  4.3755E+07 -5.4562E+07 -1.1204E+07  1.4366E-04
      40-
 mid.  surface    -6.4771E+07 -2.0574E+07 -3.0281E+08  3.4597E+07  3.7298E+07 -6.5925E+06  2.2445E-05
      41-
 mid.  surface    -8.5592E+07 -1.4823E+07 -2.7636E+08 -2.0393E+06 -3.7360E+07 -1.1554E+07 -1.0869E-04
      50-
 mid.  surface    -2.0363E+08 -2.3055E+08 -4.7241E+08 -3.5262E+07  7.3064E+07  4.3254E+07  9.5965E-04
      51-
 mid.  surface    -3.0622E+08 -2.6006E+08 -5.5074E+08 -5.7397E+06  9.2504E+07  3.3488E+07  1.0816E-03
      52-
 mid.  surface    -1.9201E+08 -2.1643E+08 -4.3723E+08  3.8773E+07  1.2004E+08 -9.2194E+07  1.5706E-04
      53-
 mid.  surface    -2.0086E+08 -2.2478E+08 -4.5730E+08  9.1698E+06  4.0215E+07 -7.8872E+07  2.3754E-04
      72-
 mid.  surface    -1.0928E+08 -1.8435E+08 -4.2530E+08  2.1172E+07  8.2524E+07  1.5752E+07  5.3731E-04
      95-
 mid.  surface    -1.9460E+08 -2.2452E+08 -4.9967E+08  2.9222E+07  3.0542E+07 -7.1897E+07  4.6680E-04
     100-
 mid.  surface    -1.9105E+08 -1.6245E+08 -4.4052E+08  2.6630E+07 -2.6050E+07 -5.4351E+07  8.6357E-04
     110-
 mid.  surface    -2.4182E+08 -2.2878E+08 -4.4093E+08  3.6037E+06 -7.1730E+07 -5.5654E+07  1.2734E-03



 n o d a l  s t r a i n  c a l c u l a t i o n s   f o r   t i m e  s t e p       14   ( at time 2.54839E+00 )

 node (global)
          strain       eps-xx      eps-yy      eps-zz      eps-xy      eps-yz      eps-zx       
       4-
 mid.  surface     2.1086E-03  2.0083E-03 -7.1655E-03  1.0746E-03 -2.5999E-04 -2.3157E-04
       5-
 mid.  surface     2.1022E-03  5.2481E-04 -3.7953E-03  1.8253E-03 -4.9516E-04 -2.8285E-03
       6-
 mid.  surface     1.7149E-03  1.0291E-03 -3.9258E-03  8.9135E-04 -3.1757E-03 -2.2084E-03
       7-
 mid.  surface     1.9391E-03  2.0101E-03 -5.7307E-03  1.0688E-03 -3.9854E-03 -7.8261E-04
       8-
 mid.  surface     1.5303E-03  2.9495E-03 -6.6059E-03  5.2905E-04 -2.7398E-03  2.6060E-04
       9-
 mid.  surface     1.5160E-03  2.5138E-03 -7.5717E-03 -7.3304E-04 -8.2541E-04  4.4237E-04
      10-
 mid.  surface    -9.5804E-05  2.3783E-03 -2.9631E-03 -4.5169E-04  1.7404E-04  2.8554E-04
      15-
 mid.  surface     2.2801E-03  1.3792E-03 -4.6178E-03  1.0070E-03 -1.2939E-03 -1.3402E-03
      16-
 mid.  surface     2.2239E-03  1.5864E-03 -5.8698E-03  6.9435E-05 -6.3234E-04 -7.4925E-04
      18-
 mid.  surface     5.9210E-04  2.4121E-03 -2.8683E-03  1.0347E-03 -1.1212E-03 -7.0347E-04
      40-
 mid.  surface    -2.8717E-05  1.6331E-03 -3.4448E-03  6.8430E-04 -1.6183E-07  2.8404E-04
      41-
 mid.  surface    -4.5591E-04  1.3377E-03 -2.6630E-03  8.9081E-05 -1.5189E-03  2.0288E-04
      50-
 mid.  surface     1.1606E-03  1.4399E-03 -6.9033E-03 -4.9861E-04  5.3881E-04  1.1314E-03
      51-
 mid.  surface     6.7298E-04  2.0778E-03 -8.0486E-03  2.5751E-04  5.7877E-04  7.0961E-04
      52-
 mid.  surface     8.1425E-04 -1.9762E-04 -4.6294E-03  7.9300E-04  2.1838E-03 -1.9809E-03
      53-
 mid.  surface     1.0634E-03 -3.0775E-06 -5.2520E-03  1.8796E-04  6.1371E-04 -1.4767E-03
      72-
 mid.  surface     1.4702E-03  7.9267E-04 -5.6743E-03  4.7611E-04  7.2010E-04  8.3744E-04
      95-
 mid.  surface     1.9212E-03  5.9409E-04 -6.8793E-03  6.8759E-04  6.8872E-04 -1.4710E-03
     100-
 mid.  surface     1.4027E-03  1.9222E-03 -7.0969E-03  5.9902E-04 -7.0336E-04 -1.2136E-03
     110-
 mid.  surface     1.2855E-03  1.6061E-03 -7.2181E-03  2.3683E-04 -2.4382E-03 -1.1353E-03



 n o d a l  s t r e s s  c a l c u l a t i o n s   f o r   t i m e  s t e p      216   ( at time 3.47231E+00 )

 node (global)
          stress       sig-xx      sig-yy      sig-zz      sig-xy      sig-yz      sig-zx       plastic
                                                                                                 strain 
       4-
 mid.  surface    -1.6526E+08 -1.3994E+08 -3.6127E+08  4.8649E+07 -4.9834E+06 -9.9225E+07  8.6372E-03
       5-
 mid.  surface     3.4834E+08  2.3879E+08  1.0215E+08  6.0920E+07 -2.1439E+07 -2.3403E+08  2.7232E-03
       6-
 mid.  surface    -1.1556E+07 -1.3619E+07 -2.5402E+08  1.7137E+07 -1.3432E+08 -3.3344E+07  2.5949E-03
       7-
 mid.  surface    -7.9417E+07 -5.4659E+07 -3.1241E+08  1.9649E+07 -1.1633E+08  7.1859E+07  5.7563E-03
       8-
 mid.  surface     1.4618E+07  1.1590E+08 -1.8761E+08  1.6383E+07 -1.5917E+08  4.2530E+07  5.9662E-03
       9-
 mid.  surface    -1.3007E+08 -1.0395E+08 -3.0070E+08 -5.3115E+07 -1.0902E+08  2.9849E+07  7.3337E-03
      10-
 mid.  surface     1.3964E+08  2.6164E+08 -1.2110E+07 -4.2868E+07 -8.9777E+07  1.3322E+07  2.3416E-03
      15-
 mid.  surface    -5.1360E+06 -8.7861E+07 -2.1994E+08  4.2339E+07 -1.0287E+07  4.4237E+07  6.3382E-03
      16-
 mid.  surface    -2.5177E+08 -2.4482E+08 -4.6463E+08 -5.9944E+06 -2.1682E+07  5.3053E+07  6.6863E-03
      18-
 mid.  surface     2.3564E+08  3.2605E+08  6.3220E+07  6.2930E+07 -1.3621E+08 -1.3363E+07  2.9622E-03
      40-
 mid.  surface    -6.7250E+07  1.8997E+07 -2.5456E+08  5.0694E+07  6.1854E+07 -2.2381E+07  4.1262E-03
      41-
 mid.  surface    -1.1508E+08 -2.7378E+07 -2.4803E+08  6.4463E+06  5.3213E+07 -1.5498E+07  4.6970E-03
      50-
 mid.  surface    -3.7836E+08 -3.9072E+08 -6.0207E+08 -2.8476E+07  2.4149E+07  2.0032E+07  6.9936E-03
      51-
 mid.  surface    -4.5558E+08 -4.6716E+08 -8.1118E+08 -2.3426E+06  9.5281E+07  1.5105E+08  7.5235E-03
      52-
 mid.  surface    -4.4043E+07 -2.0333E+08 -4.3056E+08  1.3035E+07  1.4566E+08  1.3688E+07  2.5220E-03
      53-
 mid.  surface    -2.0748E+08 -2.6562E+08 -4.7084E+08 -5.3155E+06  7.6237E+06 -1.0336E+08  3.2341E-03
      72-
 mid.  surface    -2.2262E+08 -3.0104E+08 -4.0221E+08  2.1695E+07  4.6918E+07 -4.0658E+07  7.0460E-03
      95-
 mid.  surface    -2.4675E+08 -2.8393E+08 -4.8032E+08  6.4483E+06  1.6090E+07 -1.1951E+08  6.2408E-03
     100-
 mid.  surface    -2.1138E+08 -1.4803E+08 -4.7864E+08  2.3854E+07  2.2969E+07 -4.3551E+07  6.1468E-03
     110-
 mid.  surface    -3.5276E+08 -3.5418E+08 -5.4368E+08  8.7888E+06  1.5719E+07 -4.8421E+07  8.7985E-03



 n o d a l  s t r a i n  c a l c u l a t i o n s   f o r   t i m e  s t e p      216   ( at time 3.47231E+00 )

 node (global)
          strain       eps-xx      eps-yy      eps-zz      eps-xy      eps-yz      eps-zx       
       4-
 mid.  surface     5.4512E-03  5.0678E-03 -1.3678E-02  2.3330E-03 -2.8304E-04 -5.0191E-03
       5-
 mid.  surface     6.0188E-03  1.0022E-03 -3.7598E-03  2.7902E-03 -7.3155E-04 -9.3335E-03
       6-
 mid.  surface     2.9436E-03  2.2707E-03 -6.5303E-03  5.8736E-04 -5.3959E-03 -1.4804E-03
       7-
 mid.  surface     4.4146E-03  4.2709E-03 -1.0830E-02  1.3627E-03 -5.4191E-03  1.7699E-03
       8-
 mid.  surface     3.3267E-03  7.6821E-03 -1.1324E-02  1.0091E-03 -6.8579E-03  1.1409E-03
       9-
 mid.  surface     3.2929E-03  5.2718E-03 -1.1121E-02 -1.9037E-03 -4.7913E-03  1.0932E-03
      10-
 mid.  surface     4.6416E-04  5.4287E-03 -4.0233E-03 -1.4679E-03 -4.8178E-03  7.5080E-04
      15-
 mid.  surface     5.1555E-03  2.0061E-03 -8.6586E-03  2.1178E-03 -3.9579E-04  2.5774E-04
      16-
 mid.  surface     3.5915E-03  3.5571E-03 -1.1692E-02 -2.2666E-04 -7.6198E-05  1.0044E-03
      18-
 mid.  surface     1.8156E-03  6.1257E-03 -4.9865E-03  2.5460E-03 -5.8786E-03 -1.0697E-03
      40-
 mid.  surface     3.0090E-04  5.1072E-03 -6.8561E-03  1.8107E-03  8.5835E-04 -2.7096E-04
      41-
 mid.  surface    -1.3903E-04  3.5721E-03 -5.2700E-03  8.9292E-04 -5.1446E-04 -9.8133E-05
      50-
 mid.  surface     2.8755E-03  2.9832E-03 -1.2375E-02 -8.3883E-04 -3.4713E-04  5.2857E-04
      51-
 mid.  surface     5.2160E-03  4.3073E-03 -1.7796E-02  5.7148E-04  1.8716E-03  5.1874E-03
      52-
 mid.  surface     5.9299E-03 -8.4707E-04 -8.3441E-03  7.6719E-04  5.4661E-03  5.7516E-04
      53-
 mid.  surface     2.8828E-03  1.0110E-04 -7.4712E-03 -1.8938E-04 -7.1477E-05 -4.3807E-03
      72-
 mid.  surface     2.9546E-03  1.2806E-03 -8.6367E-03  1.1168E-03 -3.5758E-04 -1.1155E-03
      95-
 mid.  surface     4.0246E-03  1.7943E-03 -1.0632E-02  6.1434E-04 -3.9463E-05 -5.3025E-03
     100-
 mid.  surface     3.2540E-03  5.9315E-03 -1.3196E-02  1.0924E-03  1.2429E-03 -2.1039E-03
     110-
 mid.  surface     3.2561E-03  3.5004E-03 -1.2704E-02  1.4088E-03 -4.4128E-04 -2.2785E-03



 n o d a l  s t r e s s  c a l c u l a t i o n s   f o r   t i m e  s t e p      349   ( at time 4.66927E+00 )

 node (global)
          stress       sig-xx      sig-yy      sig-zz      sig-xy      sig-yz      sig-zx       plastic
                                                                                                 strain 
       4-
 mid.  surface    -2.4821E+08 -1.8838E+08 -4.5702E+08  2.3725E+07  5.1154E+06 -1.2011E+08  1.8792E-02
       5-
 mid.  surface     5.0944E+08  4.9082E+08  2.4772E+08  1.9640E+07 -7.2928E+05 -1.5676E+08  8.0769E-03
       6-
 mid.  surface    -6.9983E+06  1.0801E+07 -2.2016E+08 -8.0554E+06 -8.6972E+07 -2.3289E+07  1.1338E-02
       7-
 mid.  surface     7.4698E+06 -7.3944E+06 -2.3323E+08  4.8721E+06 -9.2649E+07  2.6081E+07  1.5705E-02
       8-
 mid.  surface     1.7529E+08  2.0964E+08 -1.0926E+08  1.9487E+07 -1.1481E+08  1.8144E+07  1.3324E-02
       9-
 mid.  surface    -1.5993E+08 -1.5313E+08 -3.8937E+08 -3.0189E+07 -3.9243E+07  1.1750E+07  1.7416E-02
      10-
 mid.  surface     2.7737E+08  3.5001E+08  1.0400E+08 -2.2931E+07 -7.7062E+07  1.6226E+06  1.0118E-02
      15-
 mid.  surface    -1.8402E+07 -4.4986E+07 -2.3617E+08  1.7683E+07 -3.9435E+07 -1.7941E+06  1.6661E-02
      16-
 mid.  surface    -4.3616E+08 -3.8794E+08 -6.2209E+08 -7.8510E+06 -2.7942E+07 -4.7359E+05  1.8285E-02
      18-
 mid.  surface     4.5283E+08  5.0708E+08  2.2056E+08  3.9085E+07 -1.3075E+08 -2.7190E+07  9.2372E-03
      40-
 mid.  surface    -4.7515E+06  5.7354E+07 -2.5101E+08  2.6147E+07  2.0709E+07 -7.2577E+06  1.0622E-02
      41-
 mid.  surface    -7.7603E+07 -3.4955E+07 -2.1815E+08  9.2626E+06 -7.7600E+06 -7.7643E+06  1.4101E-02
      50-
 mid.  surface    -5.7141E+08 -5.9927E+08 -8.3066E+08 -8.0693E+06  5.9077E+05 -6.6202E+06  1.7591E-02
      51-
 mid.  surface    -5.8777E+08 -6.6891E+08 -1.0029E+09 -4.4948E+06  5.9493E+07  7.1133E+07  1.6080E-02
      52-
 mid.  surface     3.2964E+07 -1.1678E+08 -4.0908E+08  4.5433E+06  9.3899E+07  3.6129E+07  7.4452E-03
      53-
 mid.  surface    -2.6625E+08 -3.0818E+08 -5.4626E+08  5.7349E+06 -3.2484E+06 -5.2390E+07  1.0881E-02
      72-
 mid.  surface    -3.5364E+08 -3.8505E+08 -5.8318E+08  1.4243E+07  2.5941E+07 -2.1947E+07  1.6623E-02
      95-
 mid.  surface    -3.0673E+08 -3.1397E+08 -5.6731E+08  2.3557E+06  2.5320E+07 -6.1542E+07  1.4830E-02
     100-
 mid.  surface    -1.9328E+08 -1.6657E+08 -4.9869E+08  5.0073E+06  4.6736E+07 -1.3063E+07  1.4534E-02
     110-
 mid.  surface    -4.4452E+08 -4.8154E+08 -6.4872E+08  9.1390E+06  2.9919E+07 -3.3767E+07  2.1379E-02



 n o d a l  s t r a i n  c a l c u l a t i o n s   f o r   t i m e  s t e p      349   ( at time 4.66927E+00 )

 node (global)
          strain       eps-xx      eps-yy      eps-zz      eps-xy      eps-yz      eps-zx       
       4-
 mid.  surface     8.5398E-03  1.0542E-02 -2.3327E-02  3.0231E-03  1.5600E-04 -9.8244E-03
       5-
 mid.  surface     9.4030E-03  5.1792E-03 -8.6679E-03  3.0439E-03 -2.5158E-04 -1.3890E-02
       6-
 mid.  surface     6.2405E-03  6.2353E-03 -1.3501E-02  3.2359E-05 -8.5158E-03 -2.6576E-03
       7-
 mid.  surface     9.4729E-03  8.1776E-03 -1.8819E-02  1.7625E-03 -9.4661E-03  1.8251E-03
       8-
 mid.  surface     7.7815E-03  1.2828E-02 -1.9386E-02  1.8466E-03 -1.0987E-02  1.5202E-03
       9-
 mid.  surface     7.4103E-03  9.6370E-03 -2.0432E-02 -2.9601E-03 -5.8542E-03  1.3880E-03
      10-
 mid.  surface     2.8550E-03  1.0270E-02 -9.6552E-03 -2.3843E-03 -7.3177E-03  9.4016E-04
      15-
 mid.  surface     9.5957E-03  5.9828E-03 -1.7043E-02  2.8270E-03 -2.6467E-03 -9.3284E-04
      16-
 mid.  surface     6.6469E-03  8.3504E-03 -2.1851E-02 -5.0345E-04 -1.4847E-03 -2.7309E-04
      18-
 mid.  surface     5.0926E-03  1.1187E-02 -1.0720E-02  3.7832E-03 -1.0625E-02 -2.3678E-03
      40-
 mid.  surface     2.9817E-03  1.0115E-02 -1.4087E-02  2.5364E-03  1.6800E-03 -2.7471E-04
      41-
 mid.  surface     2.1842E-03  7.3771E-03 -1.1131E-02  1.4714E-03 -2.1035E-03 -2.5819E-04
      50-
 mid.  surface     7.6228E-03  6.0147E-03 -2.3194E-02 -8.6340E-04 -1.0209E-03 -4.7194E-04
      51-
 mid.  surface     1.2056E-02  7.0360E-03 -2.9937E-02  3.2904E-04  3.6480E-03  6.5602E-03
      52-
 mid.  surface     1.2892E-02  8.4546E-04 -1.6184E-02  7.7436E-04  8.8904E-03  2.0796E-03
      53-
 mid.  surface     7.1107E-03  2.8643E-03 -1.5337E-02  2.9369E-04 -4.1888E-04 -6.1714E-03
      72-
 mid.  surface     6.9412E-03  4.5979E-03 -1.7859E-02  1.7428E-03  1.5177E-04 -1.5590E-03
      95-
 mid.  surface     7.9409E-03  5.8481E-03 -1.9483E-02  8.5134E-04  8.4910E-04 -7.0113E-03
     100-
 mid.  surface     7.6956E-03  1.1062E-02 -2.2913E-02  1.1051E-03  3.2481E-03 -2.4853E-03
     110-
 mid.  surface     8.1172E-03  6.7800E-03 -2.2417E-02  2.0987E-03 -5.9516E-04 -3.7822E-03



 n o d a l  s t r e s s  c a l c u l a t i o n s   f o r   t i m e  s t e p      353   ( at time 5.03709E+00 )

 node (global)
          stress       sig-xx      sig-yy      sig-zz      sig-xy      sig-yz      sig-zx       plastic
                                                                                                 strain 
       4-
 mid.  surface    -3.5948E+08 -2.9109E+08 -5.5459E+08  1.8512E+07  9.0893E+05 -4.2516E+07  2.0388E-02
       5-
 mid.  surface     4.0356E+08  4.3340E+08  1.7769E+08  2.6106E+07 -5.7608E+06 -7.4699E+07  9.5634E-03
       6-
 mid.  surface     3.9135E+07  4.7536E+07 -1.7530E+08  1.5517E+06 -1.0341E+08 -5.5128E+07  1.2724E-02
       7-
 mid.  surface     2.3894E+07  1.2034E+07 -2.0773E+08  1.0890E+07 -1.3283E+08 -8.7579E+06  1.7094E-02
       8-
 mid.  surface     1.4123E+08  1.5037E+08 -1.1799E+08  1.6973E+07 -9.5447E+07  1.8884E+07  1.5178E-02
       9-
 mid.  surface    -1.8156E+08 -1.6544E+08 -4.2524E+08 -2.6944E+07 -3.3524E+07  6.3354E+06  1.8988E-02
      10-
 mid.  surface     2.9265E+08  3.6778E+08  9.5617E+07 -2.2274E+07 -5.8572E+07  3.8108E+05  1.1187E-02
      15-
 mid.  surface    -9.6845E+06 -1.1525E+07 -2.1997E+08  1.7148E+07 -9.4827E+07 -3.0874E+07  1.8174E-02
      16-
 mid.  surface    -4.1619E+08 -3.9006E+08 -6.1270E+08 -2.6366E+06 -6.1165E+07 -3.4827E+07  1.9962E-02
      18-
 mid.  surface     4.4827E+08  4.9047E+08  2.2755E+08  2.5824E+07 -1.0211E+08 -2.1700E+07  1.0735E-02
      40-
 mid.  surface    -2.3107E+07  2.1837E+07 -2.5343E+08  1.5287E+07  1.8884E+07 -9.9840E+05  1.2205E-02
      41-
 mid.  surface    -6.3341E+07 -2.6134E+07 -2.4596E+08  1.2739E+07 -2.0843E+07 -8.6167E+06  1.5009E-02
      50-
 mid.  surface    -5.8681E+08 -6.2829E+08 -8.9969E+08  6.3059E+06  4.5314E+07  2.4063E+07  1.8892E-02
      51-
 mid.  surface    -6.8186E+08 -7.3822E+08 -1.0036E+09 -1.5562E+07  8.2160E+07  1.8360E+07  1.8273E-02
      52-
 mid.  surface    -4.0537E+07 -1.2726E+08 -3.7433E+08  2.6799E+06  1.0447E+08 -1.4243E+07  9.4162E-03
      53-
 mid.  surface    -2.6759E+08 -3.1380E+08 -5.9298E+08  1.8816E+07  3.8564E+07 -1.3732E+07  1.2055E-02
      72-
 mid.  surface    -3.7294E+08 -3.8763E+08 -6.5680E+08  2.0522E+07  5.0510E+07  5.8771E+06  1.7648E-02
      95-
 mid.  surface    -3.2623E+08 -3.3743E+08 -6.3696E+08  1.3178E+07  4.6330E+07 -2.4470E+07  1.5763E-02
     100-
 mid.  surface    -2.3271E+08 -2.3049E+08 -5.1117E+08  2.3752E+06  3.1992E+07 -1.2899E+07  1.6348E-02
     110-
 mid.  surface    -4.6215E+08 -4.9494E+08 -6.9721E+08  9.3032E+06  2.1213E+06 -3.7920E+07  2.2789E-02



 n o d a l  s t r a i n  c a l c u l a t i o n s   f o r   t i m e  s t e p      353   ( at time 5.03709E+00 )

 node (global)
          strain       eps-xx      eps-yy      eps-zz      eps-xy      eps-yz      eps-zx       
       4-
 mid.  surface     8.3877E-03  1.0965E-02 -2.5059E-02  3.0691E-03  1.8214E-04 -8.5668E-03
       5-
 mid.  surface     9.1745E-03  5.8819E-03 -1.0236E-02  3.3839E-03 -2.6884E-04 -1.2897E-02
       6-
 mid.  surface     7.1026E-03  6.8955E-03 -1.4419E-02  2.7633E-04 -9.4393E-03 -3.5540E-03
       7-
 mid.  surface     1.0180E-02  8.7727E-03 -1.9831E-02  2.0011E-03 -1.0921E-02  1.1004E-03
       8-
 mid.  surface     8.4363E-03  1.3097E-02 -2.0791E-02  1.9448E-03 -1.1331E-02  1.5673E-03
       9-
 mid.  surface     7.9942E-03  1.0524E-02 -2.2233E-02 -3.0952E-03 -5.9172E-03  1.3520E-03
      10-
 mid.  surface     3.2108E-03  1.1210E-02 -1.0836E-02 -2.5048E-03 -7.3065E-03  9.1402E-04
      15-
 mid.  surface     1.0103E-02  6.9355E-03 -1.8222E-02  2.9247E-03 -3.9996E-03 -1.6949E-03
      16-
 mid.  surface     7.4733E-03  8.9521E-03 -2.3145E-02 -3.8971E-04 -2.3449E-03 -1.0034E-03
      18-
 mid.  surface     5.5468E-03  1.1757E-02 -1.1811E-02  3.7191E-03 -1.0755E-02 -2.4591E-03
      40-
 mid.  surface     3.4351E-03  1.0553E-02 -1.5247E-02  2.4609E-03  1.6118E-03 -2.3423E-04
      41-
 mid.  surface     2.6297E-03  8.0058E-03 -1.2230E-02  1.5898E-03 -2.5114E-03 -2.8924E-04
      50-
 mid.  surface     8.5468E-03  6.5681E-03 -2.5216E-02 -6.1561E-04 -2.7075E-04  2.4504E-04
      51-
 mid.  surface     1.2299E-02  7.4105E-03 -3.1328E-02  6.6281E-05  4.1759E-03  5.4258E-03
      52-
 mid.  surface     1.3073E-02  1.4982E-03 -1.7252E-02  7.4912E-04  9.4156E-03  6.7910E-04
      53-
 mid.  surface     8.0837E-03  3.4675E-03 -1.7176E-02  6.3913E-04  2.5259E-04 -5.6689E-03
      72-
 mid.  surface     7.5892E-03  5.4572E-03 -1.9825E-02  1.9565E-03  1.0396E-03 -9.4247E-04
      95-
 mid.  surface     8.7337E-03  6.4104E-03 -2.1378E-02  1.1571E-03  1.6307E-03 -6.5268E-03
     100-
 mid.  surface     8.3710E-03  1.1270E-02 -2.4346E-02  1.1082E-03  3.0237E-03 -2.6596E-03
     110-
 mid.  surface     8.8390E-03  7.3724E-03 -2.4108E-02  2.1409E-03 -1.1117E-03 -4.0766E-03



 n o d a l  s t r e s s  c a l c u l a t i o n s   f o r   t i m e  s t e p      448   ( at time 6.20301E+00 )

 node (global)
          stress       sig-xx      sig-yy      sig-zz      sig-xy      sig-yz      sig-zx       plastic
                                                                                                 strain 
       4-
 mid.  surface    -1.6615E+09 -1.5529E+09 -1.8772E+09  7.7677E+07 -1.3006E+08  3.6196E+08  2.2723E-02
       5-
 mid.  surface    -7.1316E+08 -4.4946E+08 -8.0756E+08  6.0441E+07 -5.2103E+07  4.0310E+08  1.8536E-02
       6-
 mid.  surface     7.0850E+08  7.2847E+08  6.2423E+08 -3.1076E+06 -1.8494E+08  7.9618E+07  3.4549E-02
       7-
 mid.  surface     3.4151E+08  2.4713E+08  1.2425E+07  2.1826E+07 -1.9579E+08 -2.7117E+07  2.1106E-02
       8-
 mid.  surface     4.3717E+07 -9.2077E+06 -2.8924E+06  1.6568E+07 -4.4585E+07 -4.5983E+06  4.6625E-02
       9-
 mid.  surface    -4.8803E+08 -4.5657E+08 -8.6413E+08 -5.4584E+06  1.2645E+08 -1.5912E+07  2.5865E-02
      10-
 mid.  surface     2.9350E+08  3.9290E+08 -2.7100E+07 -2.0005E+07  1.5492E+08 -7.8465E+06  1.3684E-02
      15-
 mid.  surface     2.0196E+08  3.1898E+08  2.7339E+07  2.3530E+07 -3.7037E+08 -1.9170E+08  2.9712E-02
      16-
 mid.  surface    -3.1058E+08 -2.2244E+08 -3.4788E+08  3.0419E+07 -3.4555E+08 -1.1118E+08  4.6049E-02
      18-
 mid.  surface     6.0014E+08  6.6498E+08  6.3756E+08 -1.7398E+07 -7.7955E+07 -5.8242E+07  4.0316E-02
      40-
 mid.  surface    -6.6369E+07 -5.3594E+07 -8.1529E+07 -1.7162E+07  7.5627E+06  3.8816E+07  4.2513E-02
      41-
 mid.  surface     9.3846E+06 -2.9343E+07 -3.3960E+08  1.4076E+07 -1.7929E+08 -3.6938E+07  1.0002E-02
      50-
 mid.  surface    -5.4898E+08 -6.5582E+08 -8.0587E+08  5.5245E+07  1.2044E+08 -1.0479E+08  4.9068E-02
      51-
 mid.  surface    -1.6115E+09 -1.6716E+09 -1.7122E+09 -7.2576E+07  4.0354E+08 -3.4589E+08  3.6322E-02
      52-
 mid.  surface    -4.8242E+08 -3.7248E+08 -4.3776E+08 -4.4524E+07  4.6990E+08 -2.8198E+08  3.3940E-02
      53-
 mid.  surface     6.9887E+07 -5.5098E+07 -1.4910E+08  2.8248E+07  2.8358E+08  7.1437E+07  4.6393E-02
      72-
 mid.  surface    -3.8206E+08 -3.0219E+08 -7.4025E+08  5.0609E+07 -4.4740E+06  2.0936E+07  2.7521E-02
      95-
 mid.  surface    -3.1110E+08 -4.0327E+08 -7.6501E+08  3.2619E+07  1.8753E+08  1.5850E+08  2.6115E-02
     100-
 mid.  surface    -5.2773E+08 -6.0573E+08 -6.0640E+08  2.4845E+05  6.1878E+07  2.3844E+07  4.8636E-02
     110-
 mid.  surface    -6.0964E+08 -7.1842E+08 -9.7718E+08  2.5010E+07 -2.0155E+08 -7.6895E+07  2.3543E-02



 n o d a l  s t r a i n  c a l c u l a t i o n s   f o r   t i m e  s t e p      448   ( at time 6.20301E+00 )

 node (global)
          strain       eps-xx      eps-yy      eps-zz      eps-xy      eps-yz      eps-zx       
       4-
 mid.  surface     3.5396E-03  1.4018E-02 -4.1101E-02  4.4973E-03  5.8215E-04  1.5869E-02
       5-
 mid.  surface     3.9985E-03  1.4415E-02 -2.7289E-02  5.7453E-03 -2.6542E-04  8.4432E-03
       6-
 mid.  surface     1.2556E-02  1.1879E-02 -1.4659E-02  2.2985E-03 -2.2653E-02 -1.3081E-02
       7-
 mid.  surface     1.5000E-02  9.5552E-03 -2.1791E-02  3.0640E-03 -2.4851E-02 -6.2282E-03
       8-
 mid.  surface     1.4315E-02  1.5389E-02 -2.9599E-02  3.8194E-03 -1.3380E-02  8.2171E-04
       9-
 mid.  surface     1.3706E-02  1.7461E-02 -3.9853E-02 -3.0685E-03  3.5731E-03 -1.0964E-04
      10-
 mid.  surface     5.6482E-03  1.8925E-02 -2.1464E-02 -3.0870E-03  3.9856E-03 -1.6516E-04
      15-
 mid.  surface     1.2273E-02  1.4010E-02 -2.3818E-02  2.6339E-03 -2.0870E-02 -1.1657E-02
      16-
 mid.  surface     1.1248E-02  1.4189E-02 -2.9601E-02  1.6864E-03 -1.7642E-02 -1.3197E-02
      18-
 mid.  surface     8.2655E-03  1.7894E-02 -1.7158E-02  3.4077E-03 -1.1655E-02 -4.4433E-03
      40-
 mid.  surface     7.2959E-03  1.2385E-02 -2.0716E-02  1.3707E-03  1.5626E-03  1.3942E-03
      41-
 mid.  surface     6.1032E-03  8.0658E-03 -1.5887E-02  1.7445E-03 -1.4238E-02 -2.1419E-03
      50-
 mid.  surface     2.0440E-02  1.1390E-02 -4.1702E-02  4.7289E-03  8.9214E-03  9.3801E-03
      51-
 mid.  surface     8.3976E-03  6.6585E-03 -3.8779E-02 -5.9462E-03  1.2797E-02 -1.5675E-02
      52-
 mid.  surface     9.2664E-03  7.3575E-03 -2.2791E-02 -7.6783E-04  1.7371E-02 -2.2622E-02
      53-
 mid.  surface     2.0255E-02  9.6679E-03 -3.0928E-02  6.8662E-03  1.0472E-02  6.0206E-03
      72-
 mid.  surface     1.3733E-02  1.3616E-02 -3.4366E-02  4.3284E-03  1.1810E-02  6.2409E-03
      95-
 mid.  surface     1.6520E-02  1.0350E-02 -3.4111E-02  3.5070E-03  1.4440E-02  2.7161E-03
     100-
 mid.  surface     1.4644E-02  1.0261E-02 -3.3246E-02  1.1589E-03  2.7318E-03 -3.2637E-03
     110-
 mid.  surface     1.5301E-02  6.9436E-03 -3.3260E-02  2.6290E-03 -1.4503E-02 -8.3446E-03



 n o d a l  s t r e s s  c a l c u l a t i o n s   f o r   t i m e  s t e p      454   ( at time 7.12693E+00 )

 node (global)
          stress       sig-xx      sig-yy      sig-zz      sig-xy      sig-yz      sig-zx       plastic
                                                                                                 strain 
       4-
 mid.  surface    -3.9733E+09 -3.8563E+09 -3.0267E+09 -3.7693E+07  1.8922E+08  2.7557E+08  6.8850E-03
       5-
 mid.  surface    -2.9098E+09 -2.6772E+09 -1.8739E+09 -6.2894E+07  2.3336E+08  2.3633E+08  2.0301E-03
       6-
 mid.  surface    -1.1608E+09 -1.0404E+09 -2.5481E+08 -7.3904E+07  2.1826E+08  1.6796E+08  1.6259E-02
       7-
 mid.  surface    -5.3083E+08 -5.9955E+08 -3.8367E+08 -2.5537E+07  7.1447E+07  1.0639E+08  1.4890E-02
       8-
 mid.  surface     5.9965E+07  3.9009E+07 -1.2030E+08  1.6376E+07 -5.7810E+07  1.0916E+06  5.1952E-02
       9-
 mid.  surface    -6.0132E+08 -5.8024E+08 -9.0230E+08 -2.4584E+06  6.4318E+07 -9.9148E+06  3.2979E-02
      10-
 mid.  surface     3.1618E+08  4.0594E+08  5.7491E+07 -1.8793E+07  9.2225E+07 -5.6421E+06  1.8511E-02
      15-
 mid.  surface    -6.2528E+08 -5.8122E+08 -4.2669E+08 -2.3491E+07  1.2457E+07  3.0579E+07  2.3706E-02
      16-
 mid.  surface    -2.2957E+09 -2.1484E+09 -1.4047E+09 -4.2840E+07  1.7408E+08  1.1177E+08  2.8307E-02
      18-
 mid.  surface     7.3011E+08  7.8969E+08  5.9351E+08 -3.4025E+06 -8.6474E+07 -4.6022E+07  4.4264E-02
      40-
 mid.  surface     3.3052E+06  4.3558E+07 -1.5411E+08  9.1536E+06  1.3863E+07  3.1812E+07  4.7323E-02
      41-
 mid.  surface    -4.4100E+07 -5.3111E+07 -3.1642E+08  2.0649E+06 -1.1827E+08 -1.9307E+07  1.4211E-02
      50-
 mid.  surface     1.7196E+09  1.5336E+09  2.5026E+08  1.2498E+08 -3.0828E+08 -2.2236E+08  8.0173E-02
      51-
 mid.  surface     7.6861E+08  5.9120E+08 -7.9201E+08  7.3740E+07 -6.6750E+07 -2.5553E+08  6.8252E-02
      52-
 mid.  surface     2.0234E+09  1.9686E+09  6.0238E+08  1.0790E+08 -3.2188E+07 -2.5518E+08  6.7095E-02
      53-
 mid.  surface     2.3872E+09  2.2091E+09  9.5306E+08  1.1888E+08 -2.6550E+08 -1.9430E+08  7.6064E-02
      72-
 mid.  surface     5.4221E+08  5.6338E+08 -2.5676E+08  8.7029E+07 -2.1951E+08 -1.3176E+08  4.5896E-02
      95-
 mid.  surface     6.0240E+08  5.1604E+08 -2.4524E+08  7.4978E+07 -1.5342E+08 -9.5916E+07  4.3895E-02
     100-
 mid.  surface    -5.4788E+08 -5.8374E+08 -7.4353E+08  1.9580E+07  5.2679E+07  2.2123E+07  5.4984E-02
     110-
 mid.  surface    -7.7399E+08 -8.5235E+08 -1.0718E+09  1.6197E+07 -1.3097E+08 -5.0530E+07  3.0143E-02



 n o d a l  s t r a i n  c a l c u l a t i o n s   f o r   t i m e  s t e p      454   ( at time 7.12693E+00 )

 node (global)
          strain       eps-xx      eps-yy      eps-zz      eps-xy      eps-yz      eps-zx       
       4-
 mid.  surface     8.7809E-03  1.6894E-02 -4.8525E-02  5.2294E-03  4.1164E-04  1.6955E-02
       5-
 mid.  surface     9.2534E-03  1.7718E-02 -3.3881E-02  5.2403E-03 -3.3116E-04  8.0040E-03
       6-
 mid.  surface     1.5487E-02  1.5334E-02 -1.7655E-02  3.3702E-03 -2.6302E-02 -1.5412E-02
       7-
 mid.  surface     1.8547E-02  1.0733E-02 -2.5744E-02  3.8599E-03 -2.7829E-02 -7.9945E-03
       8-
 mid.  surface     1.6688E-02  1.8065E-02 -3.4917E-02  4.2158E-03 -1.4966E-02  9.1260E-04
       9-
 mid.  surface     1.6184E-02  2.0655E-02 -4.6841E-02 -3.2157E-03  3.8217E-03 -2.2674E-04
      10-
 mid.  surface     6.9323E-03  2.2392E-02 -2.5654E-02 -3.3226E-03  4.8747E-03 -1.9054E-04
      15-
 mid.  surface     1.5762E-02  1.5802E-02 -2.8620E-02  3.4610E-03 -2.3021E-02 -1.3566E-02
      16-
 mid.  surface     1.3734E-02  1.7830E-02 -3.4453E-02  3.5823E-03 -1.9943E-02 -1.4629E-02
      18-
 mid.  surface     1.0011E-02  2.0949E-02 -2.0968E-02  3.7818E-03 -1.3452E-02 -5.1666E-03
      40-
 mid.  surface     9.0918E-03  1.5496E-02 -2.5195E-02  2.3033E-03  1.5899E-03  1.8493E-03
      41-
 mid.  surface     7.5352E-03  9.8160E-03 -1.9326E-02  1.6834E-03 -1.6036E-02 -2.2566E-03
      50-
 mid.  surface     2.3753E-02  1.3366E-02 -4.7878E-02  4.9410E-03  1.0027E-02  1.0933E-02
      51-
 mid.  surface     9.8309E-03  8.1687E-03 -4.5812E-02 -5.5356E-03  1.4469E-02 -1.8188E-02
      52-
 mid.  surface     1.1105E-02  9.1793E-03 -2.9009E-02  4.1206E-04  1.9671E-02 -2.6486E-02
      53-
 mid.  surface     2.3295E-02  1.1240E-02 -3.5629E-02  7.2628E-03  1.0714E-02  6.0465E-03
      72-
 mid.  surface     1.5897E-02  1.6581E-02 -4.0509E-02  4.9862E-03  1.3281E-02  7.4067E-03
      95-
 mid.  surface     1.9041E-02  1.2585E-02 -3.9518E-02  3.9320E-03  1.5535E-02  3.0114E-03
     100-
 mid.  surface     1.7376E-02  1.2972E-02 -3.9349E-02  2.0332E-03  3.1558E-03 -3.0309E-03
     110-
 mid.  surface     1.7979E-02  8.4792E-03 -3.9342E-02  2.7271E-03 -1.6984E-02 -9.2101E-03



 n o d a l  s t r e s s  c a l c u l a t i o n s   f o r   t i m e  s t e p      462   ( at time 8.59126E+00 )

 node (global)
          stress       sig-xx      sig-yy      sig-zz      sig-xy      sig-yz      sig-zx       plastic
                                                                                                 strain 
       4-
 mid.  surface    -4.8728E+09 -4.8082E+09 -3.8382E+09  2.4797E+07  1.6199E+08  2.2553E+08 -1.8179E-02
       5-
 mid.  surface    -3.5449E+09 -3.4651E+09 -2.4796E+09 -8.7528E+06  1.9665E+08  2.0249E+08 -2.4214E-02
       6-
 mid.  surface    -1.3654E+09 -1.3179E+09 -4.9091E+08 -1.8391E+07  2.1450E+08  1.7515E+08 -1.7558E-02
       7-
 mid.  surface    -6.8430E+08 -7.5004E+08 -4.8985E+08 -1.9246E+07  9.1167E+07  1.1377E+08  2.5949E-03
       8-
 mid.  surface     8.7656E+07  6.2938E+07 -1.7547E+08  1.0716E+07 -5.9131E+07  8.9897E+06  6.1551E-02
       9-
 mid.  surface    -7.1013E+08 -6.8862E+08 -9.5333E+08 -1.4584E+07  1.0903E+07 -9.5682E+06  4.7095E-02
      10-
 mid.  surface     4.1813E+08  4.9423E+08  2.0871E+08 -1.9426E+07  1.5444E+07 -8.4223E+06  2.9068E-02
      15-
 mid.  surface    -8.6594E+08 -8.4559E+08 -5.9338E+08 -1.7976E+07  3.3935E+07  4.6576E+07  1.4711E-02
      16-
 mid.  surface    -2.8526E+09 -2.7453E+09 -1.9262E+09  1.0885E+07  1.7683E+08  1.3362E+08 -1.2295E-03
      18-
 mid.  surface     8.6020E+08  8.8680E+08  6.4277E+08 -2.1254E+05 -1.0551E+08 -3.7864E+07  5.3204E-02
      40-
 mid.  surface     6.0787E+07  8.8546E+07 -1.7040E+08  1.4659E+07  1.1921E+07  2.4108E+07  5.7396E-02
      41-
 mid.  surface    -9.4451E+07 -1.0632E+08 -3.2375E+08 -6.0234E+04 -6.4087E+07 -8.9738E+06  2.3973E-02
      50-
 mid.  surface     2.1559E+09  2.0711E+09  5.9782E+08  4.5609E+07 -2.9359E+08 -2.2671E+08  1.3513E-01
      51-
 mid.  surface     9.2799E+08  9.0110E+08 -6.1095E+08 -8.7149E+06 -9.5067E+07 -2.7194E+08  1.2800E-01
      52-
 mid.  surface     2.6121E+09  2.6279E+09  1.1255E+09  6.9173E+06 -6.2350E+07 -2.7959E+08  1.2611E-01
      53-
 mid.  surface     3.0594E+09  2.9523E+09  1.4987E+09  3.6465E+07 -2.4313E+08 -1.9549E+08  1.2954E-01
      72-
 mid.  surface     6.4629E+08  6.6138E+08 -1.7994E+08  4.2602E+07 -2.1328E+08 -1.4357E+08  7.9128E-02
      95-
 mid.  surface     7.8671E+08  7.2463E+08 -8.4160E+07  3.0495E+07 -1.3671E+08 -1.0762E+08  7.6462E-02
     100-
 mid.  surface    -5.6686E+08 -5.9180E+08 -8.3063E+08  1.5379E+07  7.1087E+07  2.6323E+07  6.6873E-02
     110-
 mid.  surface    -9.8888E+08 -1.0606E+09 -1.2569E+09  4.5121E+06 -6.3862E+07 -3.6198E+07  4.3312E-02



 n o d a l  s t r a i n  c a l c u l a t i o n s   f o r   t i m e  s t e p      462   ( at time 8.59126E+00 )

 node (global)
          strain       eps-xx      eps-yy      eps-zz      eps-xy      eps-yz      eps-zx       
       4-
 mid.  surface     1.3888E-02  2.3039E-02 -6.2678E-02  5.7694E-03  3.7883E-04  1.8180E-02
       5-
 mid.  surface     1.4505E-02  2.3355E-02 -4.4694E-02  4.2959E-03 -3.4082E-04  7.9054E-03
       6-
 mid.  surface     1.9159E-02  2.0339E-02 -2.2857E-02  2.9602E-03 -3.1193E-02 -1.8507E-02
       7-
 mid.  surface     2.3518E-02  1.2582E-02 -3.2529E-02  3.5395E-03 -3.2526E-02 -1.0047E-02
       8-
 mid.  surface     2.1772E-02  2.1944E-02 -4.3954E-02  4.7272E-03 -1.7862E-02  1.3116E-03
       9-
 mid.  surface     2.0976E-02  2.7015E-02 -5.9355E-02 -4.1273E-03  3.2762E-03 -5.8571E-04
      10-
 mid.  surface     9.8666E-03  2.9323E-02 -3.3954E-02 -4.1832E-03  4.8625E-03 -3.5009E-04
      15-
 mid.  surface     2.0392E-02  1.9401E-02 -3.8045E-02  3.1472E-03 -2.7884E-02 -1.7069E-02
      16-
 mid.  surface     1.6586E-02  2.3987E-02 -4.4514E-02  4.3142E-03 -2.4877E-02 -1.8416E-02
      18-
 mid.  surface     1.4107E-02  2.5957E-02 -2.8799E-02  4.1269E-03 -1.7085E-02 -6.2318E-03
      40-
 mid.  surface     1.3262E-02  2.0823E-02 -3.4350E-02  3.3184E-03  2.4223E-03  2.7354E-03
      41-
 mid.  surface     1.1191E-02  1.3312E-02 -2.7030E-02  1.6737E-03 -1.8128E-02 -2.4354E-03
      50-
 mid.  surface     3.0445E-02  1.8106E-02 -6.0658E-02  6.2622E-03  1.1854E-02  1.3454E-02
      51-
 mid.  surface     1.2869E-02  1.1541E-02 -5.9758E-02 -5.7917E-03  1.8238E-02 -2.3100E-02
      52-
 mid.  surface     1.4666E-02  1.3911E-02 -3.9536E-02  1.0789E-03  2.3889E-02 -3.2374E-02
      53-
 mid.  surface     2.9930E-02  1.5540E-02 -4.4889E-02  8.4921E-03  1.2869E-02  8.4747E-03
      72-
 mid.  surface     2.0981E-02  2.2357E-02 -5.2375E-02  6.3051E-03  1.6055E-02  8.8656E-03
      95-
 mid.  surface     2.4767E-02  1.6890E-02 -4.9262E-02  4.6668E-03  1.8969E-02  4.4345E-03
     100-
 mid.  surface     2.3043E-02  1.7419E-02 -5.0087E-02  2.7520E-03  4.9471E-03 -2.4907E-03
     110-
 mid.  surface     2.3897E-02  1.1458E-02 -5.1192E-02  2.7200E-03 -1.9625E-02 -1.0901E-02



 n o d a l  s t r e s s  c a l c u l a t i o n s   f o r   t i m e  s t e p      470   ( at time 1.00556E+01 )

 node (global)
          stress       sig-xx      sig-yy      sig-zz      sig-xy      sig-yz      sig-zx       plastic
                                                                                                 strain 
       4-
 mid.  surface    -6.5317E+09 -6.5803E+09 -5.1459E+09  6.2109E+07  2.5147E+08  2.8100E+08 -5.5566E-02
       5-
 mid.  surface    -3.5615E+09 -3.6012E+09 -2.9015E+09 -5.2492E+07  7.7673E+07  1.5481E+08 -3.8770E-02
       6-
 mid.  surface    -1.3123E+09 -1.2930E+09 -6.7497E+08 -5.1250E+07  1.1826E+08  1.4507E+08 -4.3311E-02
       7-
 mid.  surface    -8.8374E+08 -9.6579E+08 -6.5928E+08 -5.7486E+06  8.8965E+07  8.6644E+07 -7.3207E-03
       8-
 mid.  surface     9.6305E+07  6.3603E+07 -2.0868E+08  5.0254E+06 -5.5160E+07  1.8988E+07  7.1373E-02
       9-
 mid.  surface    -7.6237E+08 -7.3231E+08 -9.9861E+08 -2.4008E+07 -2.7301E+07 -8.8177E+06  6.0797E-02
      10-
 mid.  surface     5.9872E+08  6.7292E+08  3.9528E+08 -2.2344E+07 -4.1974E+07 -8.7824E+06  3.9270E-02
      15-
 mid.  surface    -1.1438E+09 -1.1296E+09 -8.3517E+08 -1.0139E+07  4.1069E+07  2.7510E+07  8.1471E-03
      16-
 mid.  surface    -3.3249E+09 -3.2193E+09 -2.5350E+09 -8.3228E+06  1.3982E+08  1.2812E+08 -2.5321E-02
      18-
 mid.  surface     1.0108E+09  1.0286E+09  7.6457E+08  1.3356E+06 -1.0950E+08 -2.7769E+07  6.1974E-02
      40-
 mid.  surface     1.2480E+08  1.4532E+08 -1.2610E+08  9.9724E+06  1.2734E+07  1.8314E+07  6.7506E-02
      41-
 mid.  surface    -1.0500E+08 -1.2179E+08 -3.2160E+08  3.2435E+06 -3.1750E+07 -4.6642E+06  3.4696E-02
      50-
 mid.  surface     2.3998E+09  2.4019E+09  1.0170E+09  5.0387E+07 -2.2612E+08 -1.9280E+08  1.8329E-01
      51-
 mid.  surface    -4.6565E+08 -4.6372E+08 -1.0258E+09  8.5973E+07  1.8784E+08 -1.4475E+08  1.5452E-01
      52-
 mid.  surface     2.7831E+09  2.8101E+09  1.5837E+09  3.8047E+07  4.8267E+07 -2.5075E+08  1.7312E-01
      53-
 mid.  surface     4.2351E+09  4.2262E+09  2.4863E+09  1.4318E+07 -2.9512E+08 -2.3957E+08  1.8777E-01
      72-
 mid.  surface     7.6926E+08  7.8010E+08 -1.1025E+08  2.1739E+07 -2.1231E+08 -1.0639E+08  1.1239E-01
      95-
 mid.  surface     1.0318E+09  9.7680E+08  1.1633E+08  1.1427E+07 -1.2403E+08 -9.1148E+07  1.0919E-01
     100-
 mid.  surface    -6.2982E+08 -6.5606E+08 -9.1782E+08  2.3445E+06  8.4494E+07  1.7524E+07  7.9424E-02
     110-
 mid.  surface    -1.2068E+09 -1.2755E+09 -1.4632E+09  1.1323E+06 -1.4873E+07 -3.4187E+07  5.7811E-02



 n o d a l  s t r a i n  c a l c u l a t i o n s   f o r   t i m e  s t e p      470   ( at time 1.00556E+01 )

 node (global)
          strain       eps-xx      eps-yy      eps-zz      eps-xy      eps-yz      eps-zx       
       4-
 mid.  surface     1.9879E-02  3.1220E-02 -8.0138E-02  8.6632E-03 -5.2788E-04  1.5422E-02
       5-
 mid.  surface     2.1063E-02  3.0306E-02 -5.6216E-02  3.5858E-03 -9.3423E-04  4.6272E-03
       6-
 mid.  surface     1.9744E-02  2.5297E-02 -2.5551E-02  1.4272E-03 -3.6670E-02 -2.0732E-02
       7-
 mid.  surface     2.9830E-02  1.4456E-02 -4.0843E-02  4.1430E-03 -3.6704E-02 -1.1477E-02
       8-
 mid.  surface     2.7372E-02  2.5805E-02 -5.3601E-02  4.8726E-03 -2.0587E-02  2.2767E-03
       9-
 mid.  surface     2.5711E-02  3.3927E-02 -7.1771E-02 -5.4272E-03  1.6557E-03 -8.4997E-04
      10-
 mid.  surface     1.2900E-02  3.6890E-02 -4.2027E-02 -5.3676E-03  3.3650E-03 -4.2092E-04
      15-
 mid.  surface     2.6189E-02  2.3831E-02 -4.9421E-02  3.4956E-03 -3.2065E-02 -2.0090E-02
      16-
 mid.  surface     1.6669E-02  3.1193E-02 -5.4042E-02  4.7249E-03 -2.8686E-02 -2.1041E-02
      18-
 mid.  surface     1.8209E-02  3.1282E-02 -3.6305E-02  4.3732E-03 -2.0650E-02 -6.8381E-03
      40-
 mid.  surface     1.7406E-02  2.6178E-02 -4.3127E-02  3.8325E-03  3.3899E-03  3.2597E-03
      41-
 mid.  surface     1.5393E-02  1.7349E-02 -3.5415E-02  1.9380E-03 -1.9083E-02 -2.4985E-03
      50-
 mid.  surface     3.6407E-02  2.3266E-02 -7.2752E-02  7.2284E-03  1.3370E-02  1.6313E-02
      51-
 mid.  surface     2.0619E-02  1.5741E-02 -7.9124E-02 -5.0699E-03  2.2953E-02 -2.5509E-02
      52-
 mid.  surface     2.3212E-02  1.7545E-02 -5.3192E-02  1.6178E-03  3.0422E-02 -3.4510E-02
      53-
 mid.  surface     3.5169E-02  1.9959E-02 -5.1160E-02  9.1705E-03  1.3564E-02  9.6701E-03
      72-
 mid.  surface     2.7160E-02  2.8226E-02 -6.6032E-02  7.2418E-03  1.7920E-02  1.0443E-02
      95-
 mid.  surface     3.1538E-02  2.1475E-02 -6.0422E-02  4.9172E-03  2.2149E-02  5.3156E-03
     100-
 mid.  surface     2.9004E-02  2.1701E-02 -6.1434E-02  2.6614E-03  6.9854E-03 -2.6772E-03
     110-
 mid.  surface     3.0278E-02  1.4823E-02 -6.4044E-02  2.7676E-03 -2.0778E-02 -1.2838E-02



 n o d a l  s t r e s s  c a l c u l a t i o n s   f o r   t i m e  s t e p      477   ( at time 1.15199E+01 )

 node (global)
          stress       sig-xx      sig-yy      sig-zz      sig-xy      sig-yz      sig-zx       plastic
                                                                                                 strain 
       4-
 mid.  surface    -5.6441E+09 -5.6079E+09 -5.1382E+09  1.3692E+08  1.1453E+08  7.8060E+07 -6.4216E-02
       5-
 mid.  surface    -3.6959E+09 -3.8043E+09 -3.1074E+09 -2.4403E+07  1.5120E+08  1.6862E+08 -5.6890E-02
       6-
 mid.  surface    -1.8775E+09 -1.8038E+09 -1.1587E+09 -5.3123E+07  8.1774E+07  1.6064E+08 -6.8903E-02
       7-
 mid.  surface    -1.0109E+09 -1.0653E+09 -7.1839E+08 -4.8588E+06  7.1055E+07  7.4694E+07 -1.7224E-02
       8-
 mid.  surface     8.2916E+07  5.3254E+07 -2.2638E+08  5.3070E+06 -5.9937E+07  1.4318E+07  8.0555E-02
       9-
 mid.  surface    -8.2364E+08 -7.9953E+08 -1.0630E+09 -1.6683E+07 -4.3457E+07 -9.0383E+06  7.2827E-02
      10-
 mid.  surface     7.1661E+08  7.8421E+08  5.0458E+08 -1.8279E+07 -5.6400E+07 -7.5102E+06  4.8544E-02
      15-
 mid.  surface    -1.3491E+09 -1.3310E+09 -1.0042E+09  2.1518E+03  4.3805E+07  3.8156E+07 -3.3592E-04
      16-
 mid.  surface    -3.2076E+09 -3.0630E+09 -2.8164E+09  2.4651E+07  6.3791E+07  5.4308E+07 -3.2840E-02
      18-
 mid.  surface     1.0891E+09  1.1041E+09  8.2377E+08  9.3966E+05 -1.0402E+08 -2.5886E+07  7.0245E-02
      40-
 mid.  surface     1.6415E+08  1.9174E+08 -1.1984E+08  1.6123E+07  2.6715E+07  2.0869E+07  7.6386E-02
      41-
 mid.  surface    -9.9226E+07 -1.0112E+08 -3.3839E+08 -1.4615E+06 -1.1315E+07  7.7929E+05  4.3867E-02
      50-
 mid.  surface     2.6185E+09  2.6109E+09  1.2152E+09  1.6201E+07 -2.4685E+08 -2.2894E+08  2.3031E-01
      51-
 mid.  surface     1.1133E+08  6.1401E+06 -4.9789E+08  9.7027E+07  1.8566E+08 -1.4545E+08  1.8007E-01
      52-
 mid.  surface     1.3099E+09  1.1566E+09  1.4200E+09 -2.3486E+07  2.3691E+08  4.7809E+07  1.6722E-01
      53-
 mid.  surface     3.4970E+09  3.4481E+09  2.4078E+09 -5.5514E+07 -2.0338E+08 -1.2533E+08  2.1977E-01
      72-
 mid.  surface     8.5360E+08  8.3770E+08 -9.9344E+07  1.5466E+07 -1.6899E+08 -1.1149E+08  1.4312E-01
      95-
 mid.  surface     1.1775E+09  1.1260E+09  2.0823E+08  3.6303E+06 -1.1244E+08 -1.1101E+08  1.3958E-01
     100-
 mid.  surface    -6.6572E+08 -6.7765E+08 -9.7333E+08  6.1717E+06  7.8827E+07  2.3268E+07  9.0353E-02
     110-
 mid.  surface    -1.3560E+09 -1.4103E+09 -1.6274E+09 -5.8361E+06 -9.2576E+04 -2.5154E+07  7.0127E-02



 n o d a l  s t r a i n  c a l c u l a t i o n s   f o r   t i m e  s t e p      477   ( at time 1.15199E+01 )

 node (global)
          strain       eps-xx      eps-yy      eps-zz      eps-xy      eps-yz      eps-zx       
       4-
 mid.  surface     2.6667E-02  3.8320E-02 -9.3050E-02  9.6625E-03 -3.2779E-04  1.1550E-02
       5-
 mid.  surface     2.8291E-02  3.5507E-02 -6.6446E-02  1.5787E-03 -4.1910E-04  5.9248E-04
       6-
 mid.  surface     2.3257E-02  2.9789E-02 -3.2060E-02  1.0685E-05 -3.9808E-02 -2.2180E-02
       7-
 mid.  surface     3.5787E-02  1.6972E-02 -4.8637E-02  4.3843E-03 -3.9842E-02 -1.3155E-02
       8-
 mid.  surface     3.2286E-02  2.9358E-02 -6.2325E-02  5.2273E-03 -2.2942E-02  2.6493E-03
       9-
 mid.  surface     2.9958E-02  3.9751E-02 -8.2824E-02 -5.8675E-03 -1.1669E-04 -1.0784E-03
      10-
 mid.  surface     1.5821E-02  4.3382E-02 -4.9876E-02 -5.9568E-03  2.1834E-03 -4.2241E-04
      15-
 mid.  surface     3.1166E-02  2.7961E-02 -5.9208E-02  4.2074E-03 -3.4733E-02 -2.2343E-02
      16-
 mid.  surface     1.8752E-02  3.7610E-02 -6.4271E-02  5.4877E-03 -3.1771E-02 -2.3305E-02
      18-
 mid.  surface     2.2065E-02  3.6054E-02 -4.3957E-02  4.6287E-03 -2.3319E-02 -7.4458E-03
      40-
 mid.  surface     2.1356E-02  3.1442E-02 -5.1973E-02  4.6922E-03  4.2933E-03  3.7844E-03
      41-
 mid.  surface     1.9169E-02  2.1899E-02 -4.3733E-02  1.8520E-03 -1.9652E-02 -2.2433E-03
      50-
 mid.  surface     4.1658E-02  2.7579E-02 -8.3928E-02  7.8414E-03  1.3103E-02  1.6896E-02
      51-
 mid.  surface     2.6970E-02  1.8958E-02 -9.3205E-02 -4.2596E-03  2.5725E-02 -2.8234E-02
      52-
 mid.  surface     3.0237E-02  2.0950E-02 -6.4875E-02  2.8773E-03  3.4575E-02 -3.6948E-02
      53-
 mid.  surface     4.0057E-02  2.3948E-02 -5.9598E-02  9.6325E-03  1.3815E-02  1.0141E-02
      72-
 mid.  surface     3.1696E-02  3.3228E-02 -7.7213E-02  7.8073E-03  1.9593E-02  1.1269E-02
      95-
 mid.  surface     3.6419E-02  2.5594E-02 -6.9967E-02  4.8067E-03  2.3798E-02  5.1521E-03
     100-
 mid.  surface     3.4272E-02  2.6268E-02 -7.1890E-02  3.0075E-03  8.1018E-03 -2.4251E-03
     110-
 mid.  surface     3.5871E-02  1.8679E-02 -7.5683E-02  2.4737E-03 -2.2082E-02 -1.3957E-02



 n o d a l  s t r e s s  c a l c u l a t i o n s   f o r   t i m e  s t e p      486   ( at time 1.38407E+01 )

 node (global)
          stress       sig-xx      sig-yy      sig-zz      sig-xy      sig-yz      sig-zx       plastic
                                                                                                 strain 
       4-
 mid.  surface    -6.3581E+09 -6.3216E+09 -5.8410E+09  1.0483E+08  8.8689E+07  4.7059E+07 -7.4496E-02
       5-
 mid.  surface    -4.2658E+09 -4.3939E+09 -3.6863E+09 -1.1488E+07  1.3878E+08  1.6545E+08 -8.7731E-02
       6-
 mid.  surface    -2.3225E+09 -2.2786E+09 -1.6104E+09 -2.2610E+07  7.8310E+07  1.8052E+08 -1.1241E-01
       7-
 mid.  surface    -1.2410E+09 -1.2912E+09 -9.2703E+08 -2.3216E+06  8.1422E+07  8.4541E+07 -3.3271E-02
       8-
 mid.  surface    -9.6985E+06 -7.4344E+07 -3.4631E+08 -8.2258E+06 -4.8076E+07  2.4680E+07  9.5026E-02
       9-
 mid.  surface    -8.5856E+08 -8.3167E+08 -1.1101E+09 -1.6509E+07 -4.9351E+07 -1.1234E+07  9.2517E-02
      10-
 mid.  surface     9.1564E+08  9.7703E+08  6.9235E+08 -1.6409E+07 -7.5372E+07 -8.9141E+06  6.4623E-02
      15-
 mid.  surface    -1.8585E+09 -1.8506E+09 -1.4790E+09 -3.4646E+06  3.2082E+07  4.3436E+07 -1.1178E-02
      16-
 mid.  surface    -3.8242E+09 -3.6928E+09 -3.4237E+09  3.0406E+07  5.1162E+07  5.9028E+07 -4.4575E-02
      18-
 mid.  surface     1.0704E+09  1.0485E+09  7.9556E+08 -1.7487E+07 -1.2712E+08 -2.4545E+07  8.5088E-02
      40-
 mid.  surface     2.6209E+08  2.9157E+08 -3.7830E+07  1.8945E+07  2.7810E+06  2.1852E+07  9.1881E-02
      41-
 mid.  surface    -1.4442E+08 -1.6996E+08 -3.9945E+08 -6.2223E+06  1.0453E+06  2.9572E+06  6.0898E-02
      50-
 mid.  surface     3.0861E+09  3.0968E+09  1.6609E+09 -1.9135E+07 -2.2670E+08 -2.3849E+08  3.0907E-01
      51-
 mid.  surface     3.1433E+08  2.7375E+08 -2.5245E+08  7.0016E+07  1.5805E+08 -1.5591E+08  2.2323E-01
      52-
 mid.  surface     1.5429E+09  1.3983E+09  1.6546E+09 -6.4361E+05  2.2125E+08  1.0918E+08  1.5394E-01
      53-
 mid.  surface     4.0538E+09  4.0010E+09  2.9283E+09 -6.3532E+07 -1.7171E+08 -1.2477E+08  2.7184E-01
      72-
 mid.  surface     8.9403E+08  8.8998E+08 -7.8176E+07 -2.7981E+06 -1.6491E+08 -1.3853E+08  1.9728E-01
      95-
 mid.  surface     1.4885E+09  1.4479E+09  4.9330E+08 -7.1010E+06 -7.5626E+07 -1.2742E+08  1.9254E-01
     100-
 mid.  surface    -6.3729E+08 -6.4151E+08 -9.5781E+08  1.2331E+07  9.6378E+07  3.8871E+07  1.0930E-01
     110-
 mid.  surface    -1.6228E+09 -1.6899E+09 -1.9027E+09 -1.2426E+07  2.9172E+07 -2.1820E+07  9.2084E-02



 n o d a l  s t r a i n  c a l c u l a t i o n s   f o r   t i m e  s t e p      486   ( at time 1.38407E+01 )

 node (global)
          strain       eps-xx      eps-yy      eps-zz      eps-xy      eps-yz      eps-zx       
       4-
 mid.  surface     3.7411E-02  5.0797E-02 -1.1767E-01  1.1855E-02 -1.2539E-03  3.5950E-03
       5-
 mid.  surface     3.9157E-02  4.4209E-02 -8.3553E-02 -6.7829E-04 -5.2075E-04 -6.7846E-03
       6-
 mid.  surface     2.7798E-02  3.7340E-02 -4.0235E-02 -2.2359E-03 -4.4608E-02 -2.6196E-02
       7-
 mid.  surface     4.6074E-02  2.1011E-02 -6.2858E-02  3.8771E-03 -4.3066E-02 -1.5965E-02
       8-
 mid.  surface     4.1358E-02  3.2806E-02 -7.6617E-02  4.4623E-03 -2.5867E-02  4.1731E-03
       9-
 mid.  surface     3.7317E-02  4.9709E-02 -1.0091E-01 -6.7437E-03 -3.4103E-03 -1.7402E-03
      10-
 mid.  surface     2.1021E-02  5.4713E-02 -6.3833E-02 -7.0407E-03  6.8480E-06 -5.1807E-04
      15-
 mid.  surface     4.0465E-02  3.4108E-02 -7.8575E-02  3.8601E-03 -3.8536E-02 -2.6968E-02
      16-
 mid.  surface     2.2526E-02  4.7868E-02 -8.0515E-02  6.2732E-03 -3.6325E-02 -2.7414E-02
      18-
 mid.  surface     2.9403E-02  4.1717E-02 -5.7576E-02  3.5561E-03 -2.8742E-02 -7.9024E-03
      40-
 mid.  surface     2.8258E-02  4.0923E-02 -6.7225E-02  6.1776E-03  4.5699E-03  4.7315E-03
      41-
 mid.  surface     2.6702E-02  2.8625E-02 -5.8975E-02  1.3550E-03 -1.9773E-02 -1.7224E-03
      50-
 mid.  surface     4.9323E-02  3.5387E-02 -1.0248E-01  7.8408E-03  1.3289E-02  2.0572E-02
      51-
 mid.  surface     3.8333E-02  2.6001E-02 -1.2105E-01 -2.3528E-03  3.0699E-02 -3.1288E-02
      52-
 mid.  surface     4.1795E-02  2.8453E-02 -8.5766E-02  4.6255E-03  4.2063E-02 -3.7993E-02
      53-
 mid.  surface     4.6737E-02  3.1389E-02 -7.2235E-02  9.0999E-03  1.4460E-02  1.1120E-02
      72-
 mid.  surface     3.9548E-02  4.3167E-02 -9.8416E-02  9.2477E-03  2.1325E-02  1.2067E-02
      95-
 mid.  surface     4.5526E-02  3.3974E-02 -8.7057E-02  5.2135E-03  2.7312E-02  5.2345E-03
     100-
 mid.  surface     4.3646E-02  3.4426E-02 -8.9282E-02  3.6869E-03  1.0769E-02 -1.4379E-03
     110-
 mid.  surface     4.6272E-02  2.4064E-02 -9.5583E-02  1.5539E-03 -2.3276E-02 -1.6009E-02



 n o d a l  s t r e s s  c a l c u l a t i o n s   f o r   t i m e  s t e p      494   ( at time 1.61615E+01 )

 node (global)
          stress       sig-xx      sig-yy      sig-zz      sig-xy      sig-yz      sig-zx       plastic
                                                                                                 strain 
       4-
 mid.  surface    -3.9038E+09 -3.9983E+09 -4.9212E+09  8.1395E+07  4.5324E+07 -1.2762E+08 -8.3620E-03
       5-
 mid.  surface    -7.3131E+09 -7.3546E+09 -5.3084E+09 -2.6836E+07  8.9657E+07  2.6435E+08 -1.9546E-01
       6-
 mid.  surface    -4.1093E+09 -4.0369E+09 -2.8648E+09 -1.3245E+07  3.8199E+07  2.6730E+08 -1.8470E-01
       7-
 mid.  surface    -9.9274E+08 -1.0895E+09 -9.3608E+08 -1.6371E+06 -3.2124E+07  3.3040E+07 -3.4493E-02
       8-
 mid.  surface    -8.9286E+07 -1.5667E+08 -4.4054E+08 -6.0394E+06 -5.7832E+07  1.8880E+07  1.0910E-01
       9-
 mid.  surface    -9.0623E+08 -8.9180E+08 -1.1630E+09 -7.9600E+06 -5.5906E+07 -1.2317E+07  1.1233E-01
      10-
 mid.  surface     1.0752E+09  1.1198E+09  8.5066E+08 -1.7453E+07 -9.2031E+07 -7.7389E+06  8.2243E-02
      15-
 mid.  surface    -2.0542E+09 -2.0712E+09 -1.8499E+09 -1.1546E+07 -3.9382E+07  1.1724E+07 -1.4431E-02
      16-
 mid.  surface    -3.7496E+09 -3.6595E+09 -3.9009E+09  4.1015E+07  1.1708E+08  3.3165E+07 -3.0554E-02
      18-
 mid.  surface     1.0212E+09  1.0174E+09  7.4742E+08 -2.7886E+07 -1.3658E+08 -2.8901E+07  1.0047E-01
      40-
 mid.  surface     3.6616E+08  3.9065E+08  4.8532E+07  2.2019E+07  1.1358E+07  2.1158E+07  1.0835E-01
      41-
 mid.  surface    -1.9731E+08 -2.1901E+08 -4.6743E+08 -7.3828E+06  4.8483E+06  8.6228E+06  7.8601E-02
      50-
 mid.  surface     4.1590E+09  4.2075E+09  2.4883E+09  1.8884E+07 -3.3587E+07 -2.4010E+08  4.0253E-01
      51-
 mid.  surface     3.7038E+09  3.5303E+09  1.5986E+09  4.5549E+07  1.2164E+08 -3.6697E+08  3.4866E-01
      52-
 mid.  surface    -7.1481E+08 -7.6631E+08  8.1962E+08 -2.3603E+07  1.7690E+08  2.2027E+08  6.8188E-02
      53-
 mid.  surface     3.1072E+09  3.1498E+09  2.8527E+09 -3.5867E+07 -7.7144E+07 -3.3300E+06  2.8185E-01
      72-
 mid.  surface     7.8263E+08  8.3820E+08  6.9046E+06 -5.7509E+06 -9.4261E+07 -1.0634E+08  2.4352E-01
      95-
 mid.  surface     2.4369E+09  2.3976E+09  1.2269E+09 -1.8252E+07 -1.3579E+08 -1.4801E+08  2.5958E-01
     100-
 mid.  surface    -6.1169E+08 -6.1929E+08 -9.4520E+08  1.6502E+07  1.0375E+08  4.0632E+07  1.2887E-01
     110-
 mid.  surface    -1.8481E+09 -1.9096E+09 -2.1390E+09 -1.2489E+07  4.6701E+07 -2.0344E+07  1.1428E-01



 n o d a l  s t r a i n  c a l c u l a t i o n s   f o r   t i m e  s t e p      494   ( at time 1.61615E+01 )

 node (global)
          strain       eps-xx      eps-yy      eps-zz      eps-xy      eps-yz      eps-zx       
       4-
 mid.  surface     5.2752E-02  6.0396E-02 -1.4151E-01  1.3592E-02 -3.2330E-03 -4.5464E-03
       5-
 mid.  surface     5.3873E-02  5.3137E-02 -1.0262E-01 -2.6550E-03 -1.9104E-03 -1.5197E-02
       6-
 mid.  surface     3.2226E-02  4.6889E-02 -5.1259E-02 -4.0047E-03 -4.7475E-02 -2.8064E-02
       7-
 mid.  surface     5.6711E-02  2.6848E-02 -7.7196E-02  4.0136E-03 -4.7558E-02 -1.8679E-02
       8-
 mid.  surface     5.0274E-02  3.6606E-02 -9.0687E-02  4.0908E-03 -2.9165E-02  5.2863E-03
       9-
 mid.  surface     4.5030E-02  5.8941E-02 -1.1881E-01 -6.8263E-03 -7.5964E-03 -2.5148E-03
      10-
 mid.  surface     2.7159E-02  6.5971E-02 -7.9194E-02 -8.0704E-03 -2.7389E-03 -4.5123E-04
      15-
 mid.  surface     4.9282E-02  4.2942E-02 -9.7711E-02  3.2228E-03 -4.2796E-02 -3.0804E-02
      16-
 mid.  surface     2.6538E-02  5.8239E-02 -9.8034E-02  6.6123E-03 -3.9598E-02 -3.0176E-02
      18-
 mid.  surface     3.6061E-02  4.9070E-02 -7.2293E-02  1.9642E-03 -3.3949E-02 -8.5740E-03
      40-
 mid.  surface     3.6205E-02  5.0655E-02 -8.3754E-02  7.9174E-03  5.1032E-03  5.4034E-03
      41-
 mid.  surface     3.4614E-02  3.6567E-02 -7.5796E-02  9.7016E-04 -2.0202E-02 -8.6890E-04
      50-
 mid.  surface     5.7195E-02  4.4240E-02 -1.2098E-01  9.4455E-03  1.3640E-02  2.1627E-02
      51-
 mid.  surface     5.0637E-02  3.3537E-02 -1.4803E-01 -8.7860E-04  3.4663E-02 -3.4505E-02
      52-
 mid.  surface     5.3845E-02  3.8543E-02 -1.0882E-01  4.3254E-03  4.8560E-02 -3.8336E-02
      53-
 mid.  surface     5.4701E-02  4.0009E-02 -8.6472E-02  9.6171E-03  1.5709E-02  1.0840E-02
      72-
 mid.  surface     4.7195E-02  5.3257E-02 -1.1953E-01  1.0349E-02  2.2821E-02  1.2815E-02
      95-
 mid.  surface     5.5166E-02  4.1567E-02 -1.0385E-01  5.8017E-03  2.8803E-02  4.8706E-03
     100-
 mid.  surface     5.3423E-02  4.2586E-02 -1.0721E-01  4.5815E-03  1.2696E-02 -6.6855E-04
     110-
 mid.  surface     5.7008E-02  3.0046E-02 -1.1577E-01  6.2115E-04 -2.5280E-02 -1.8456E-02



 n o d a l  s t r e s s  c a l c u l a t i o n s   f o r   t i m e  s t e p      504   ( at time 1.84823E+01 )

 node (global)
          stress       sig-xx      sig-yy      sig-zz      sig-xy      sig-yz      sig-zx       plastic
                                                                                                 strain 
       4-
 mid.  surface    -3.9585E+09 -4.0558E+09 -3.9007E+09  7.9347E+07  1.2502E+07 -1.0216E+08  2.5615E-02
       5-
 mid.  surface    -3.1335E+09 -3.3901E+09 -3.2056E+09 -2.0419E+07 -1.7421E+07 -5.1134E+07 -1.7055E-01
       6-
 mid.  surface    -4.5527E+09 -4.3411E+09 -4.0242E+09  2.2920E+07  4.9279E+07  2.3607E+08 -2.2682E-01
       7-
 mid.  surface    -2.1013E+08 -2.1432E+08 -4.8123E+08  4.3613E+07 -1.4677E+08  3.4751E+06 -1.1013E-02
       8-
 mid.  surface    -7.7137E+08 -8.9436E+08 -9.7465E+08 -9.4739E+06  8.4331E+06  7.7046E+07  1.0948E-01
       9-
 mid.  surface    -9.5847E+08 -9.4059E+08 -1.2236E+09 -9.0253E+06 -6.0812E+07 -2.1892E+07  1.3212E-01
      10-
 mid.  surface     1.2288E+09  1.3083E+09  1.0225E+09 -2.2902E+07 -8.5739E+07 -9.9057E+06  9.8292E-02
      15-
 mid.  surface    -8.4881E+08 -9.7879E+08 -1.2356E+09 -4.1825E+07 -1.9207E+08 -1.2368E+08  1.6950E-02
      16-
 mid.  surface    -6.2889E+09 -6.2819E+09 -5.8078E+09 -3.4193E+07  1.1389E+08  1.2116E+08 -6.6252E-02
      18-
 mid.  surface     1.2722E+09  1.2650E+09  8.0676E+08 -5.3489E+07 -1.8637E+08 -5.3167E+07  1.2439E-01
      40-
 mid.  surface     1.2052E+08  1.4758E+08 -1.1831E+06  4.0331E+07  3.2989E+07  6.9574E+07  1.1077E-01
      41-
 mid.  surface    -2.1525E+08 -2.5430E+08 -4.9999E+08 -1.3142E+07 -1.6834E+06  4.9246E+06  9.3770E-02
      50-
 mid.  surface     1.1519E+09  1.2090E+09  8.7693E+08 -3.1745E+07  1.0783E+08 -1.6263E+07  4.0091E-01
      51-
 mid.  surface     2.6281E+09  2.4337E+09  2.3282E+09  8.8933E+07  1.2283E+08 -1.2997E+08  3.9194E-01
      52-
 mid.  surface     3.5284E+09  3.2109E+09  3.1432E+09  3.2264E+07  1.3638E+08 -1.5399E+08  1.0732E-01
      53-
 mid.  surface     1.9989E+09  2.1852E+09  1.7436E+09 -5.5737E+06  5.4969E+07  1.0810E+08  2.7515E-01
      72-
 mid.  surface     1.9031E+09  1.9245E+09  7.8726E+08 -3.7396E+07 -1.9692E+08 -2.3578E+08  3.1256E-01
      95-
 mid.  surface     2.1131E+09  2.2637E+09  1.3878E+09  4.8829E+07 -6.3764E+07 -7.5459E+07  3.0398E-01
     100-
 mid.  surface    -1.7177E+09 -1.7641E+09 -1.5480E+09  4.7207E+07  2.4044E+08  1.5232E+08  1.1450E-01
     110-
 mid.  surface    -2.1796E+09 -2.2691E+09 -2.4969E+09 -2.2818E+07  2.9417E+07 -3.4933E+07  1.3493E-01



 n o d a l  s t r a i n  c a l c u l a t i o n s   f o r   t i m e  s t e p      504   ( at time 1.84823E+01 )

 node (global)
          strain       eps-xx      eps-yy      eps-zz      eps-xy      eps-yz      eps-zx       
       4-
 mid.  surface     9.5075E-02  6.7347E-02 -1.7223E-01  1.9020E-02 -7.3818E-03 -8.0150E-03
       5-
 mid.  surface     8.8598E-02  6.2954E-02 -1.2175E-01  1.3529E-03 -8.3356E-03 -3.8608E-02
       6-
 mid.  surface     3.6477E-02  5.8938E-02 -5.9985E-02 -3.7048E-03 -5.1739E-02 -3.1757E-02
       7-
 mid.  surface     6.4029E-02  3.6417E-02 -9.3898E-02  5.6319E-03 -5.0940E-02 -1.8848E-02
       8-
 mid.  surface     5.9528E-02  3.7732E-02 -1.0478E-01  2.6875E-03 -2.9911E-02  7.9990E-03
       9-
 mid.  surface     5.2839E-02  6.8506E-02 -1.3716E-01 -6.9872E-03 -1.1087E-02 -3.5997E-03
      10-
 mid.  surface     3.1114E-02  7.8050E-02 -9.2917E-02 -9.5377E-03 -3.9851E-03 -7.1175E-04
      15-
 mid.  surface     5.9313E-02  4.8506E-02 -1.1440E-01 -6.7280E-04 -4.6847E-02 -3.5971E-02
      16-
 mid.  surface     3.5709E-02  6.2405E-02 -1.1512E-01  2.9338E-03 -3.8556E-02 -3.3252E-02
      18-
 mid.  surface     4.2062E-02  5.3319E-02 -8.5107E-02 -1.3108E-03 -3.8792E-02 -7.6292E-03
      40-
 mid.  surface     4.2482E-02  6.1122E-02 -9.7532E-02  1.0920E-02  2.7966E-03  6.6658E-03
      41-
 mid.  surface     4.2224E-02  4.2575E-02 -8.9944E-02  1.2730E-05 -2.1871E-02 -4.6629E-04
      50-
 mid.  surface     6.3568E-02  5.3069E-02 -1.3972E-01  8.2683E-03  1.6906E-02  2.4670E-02
      51-
 mid.  surface     5.2549E-02  4.6817E-02 -1.8136E-01 -1.5506E-03  3.6606E-02 -2.8209E-02
      52-
 mid.  surface     5.1612E-02  5.1473E-02 -1.3180E-01  4.5502E-03  5.4505E-02 -4.6640E-02
      53-
 mid.  surface     5.8801E-02  4.9610E-02 -9.8679E-02  1.1027E-02  1.6206E-02  9.6058E-03
      72-
 mid.  surface     5.5374E-02  6.3925E-02 -1.3832E-01  1.3525E-02  1.9621E-02  1.0212E-02
      95-
 mid.  surface     6.8254E-02  5.2089E-02 -1.2227E-01  1.0606E-02  2.8797E-02  3.7990E-03
     100-
 mid.  surface     6.2814E-02  5.2095E-02 -1.2452E-01  7.0831E-03  1.4308E-02  1.7129E-04
     110-
 mid.  surface     6.7771E-02  3.3842E-02 -1.3552E-01 -1.0531E-03 -2.9039E-02 -2.1649E-02



 n o d a l  s t r e s s  c a l c u l a t i o n s   f o r   t i m e  s t e p      513   ( at time 2.08031E+01 )

 node (global)
          stress       sig-xx      sig-yy      sig-zz      sig-xy      sig-yz      sig-zx       plastic
                                                                                                 strain 
       4-
 mid.  surface    -4.2660E+09 -4.2627E+09 -4.2171E+09  4.4542E+07  1.3745E+07 -7.6451E+07  4.5052E-02
       5-
 mid.  surface    -3.1683E+09 -3.3076E+09 -3.2078E+09 -3.7527E+07 -1.1320E+07 -8.4382E+07 -1.5875E-01
       6-
 mid.  surface    -5.2320E+09 -5.0742E+09 -4.6812E+09  2.7761E+07  6.0799E+07  2.0850E+08 -2.5909E-01
       7-
 mid.  surface    -1.8940E+08 -1.9438E+08 -4.6820E+08  2.0439E+07 -1.4932E+08 -9.5663E+06  9.4351E-03
       8-
 mid.  surface    -1.0006E+09 -1.0834E+09 -1.1718E+09 -4.4691E+06  2.9655E+06  6.3217E+07  1.1197E-01
       9-
 mid.  surface    -1.0322E+09 -1.0173E+09 -1.3026E+09 -1.5921E+07 -5.9558E+07 -1.3610E+07  1.5216E-01
      10-
 mid.  surface     1.3861E+09  1.4567E+09  1.1620E+09 -2.1032E+07 -9.6834E+07 -6.4892E+06  1.1435E-01
      15-
 mid.  surface    -9.3026E+08 -1.0658E+09 -1.3327E+09 -4.8085E+07 -2.0760E+08 -1.2251E+08  4.5888E-02
      16-
 mid.  surface    -7.3187E+09 -7.3309E+09 -6.8186E+09 -1.9530E+07  9.9877E+07  1.3322E+08 -9.2769E-02
      18-
 mid.  surface     1.3146E+09  1.2901E+09  8.2694E+08 -3.0940E+07 -1.8860E+08 -5.6869E+07  1.4874E-01
      40-
 mid.  surface     1.4095E+08  1.7861E+08  2.2254E+07  3.6931E+07  5.2496E+07  6.6070E+07  1.1449E-01
      41-
 mid.  surface    -2.2127E+08 -2.2781E+08 -4.9708E+08 -7.0351E+06 -9.4752E+05  9.9126E+06  1.1007E-01
      50-
 mid.  surface     1.1021E+09  1.1015E+09  8.1214E+08 -1.3306E+06  1.0937E+08  2.1324E+07  4.0748E-01
      51-
 mid.  surface     2.9574E+09  2.8504E+09  2.6652E+09  5.8622E+07  1.1480E+08 -1.2423E+08  4.1882E-01
      52-
 mid.  surface     4.0861E+09  3.8730E+09  3.7299E+09  1.1137E+07  1.2706E+08 -1.5007E+08  1.3001E-01
      53-
 mid.  surface     2.1011E+09  2.2172E+09  1.8365E+09  2.1692E+07  7.3106E+07  9.7014E+07  2.7742E-01
      72-
 mid.  surface     2.4605E+09  2.4473E+09  1.2641E+09 -2.2074E+07 -1.8620E+08 -2.0473E+08  3.7867E-01
      95-
 mid.  surface     2.6173E+09  2.7537E+09  1.8409E+09  4.5749E+07 -3.4351E+07 -5.1683E+07  3.4649E-01
     100-
 mid.  surface    -1.9787E+09 -1.9813E+09 -1.7733E+09  3.9867E+07  2.4583E+08  1.4520E+08  1.0252E-01
     110-
 mid.  surface    -2.4829E+09 -2.5401E+09 -2.7853E+09 -1.5834E+07  3.6904E+07 -2.3558E+07  1.5692E-01



 n o d a l  s t r a i n  c a l c u l a t i o n s   f o r   t i m e  s t e p      513   ( at time 2.08031E+01 )

 node (global)
          strain       eps-xx      eps-yy      eps-zz      eps-xy      eps-yz      eps-zx       
       4-
 mid.  surface     1.2052E-01  7.2393E-02 -1.9704E-01  2.1609E-02 -1.0427E-02 -1.0728E-02
       5-
 mid.  surface     1.0921E-01  7.1021E-02 -1.4042E-01  5.4133E-03 -1.2592E-02 -5.1354E-02
       6-
 mid.  surface     4.1581E-02  6.9368E-02 -7.0298E-02 -1.7914E-03 -5.4755E-02 -3.4246E-02
       7-
 mid.  surface     7.1213E-02  4.4752E-02 -1.0910E-01  6.2652E-03 -5.3875E-02 -1.9490E-02
       8-
 mid.  surface     6.8196E-02  4.1235E-02 -1.1867E-01  2.2851E-03 -3.1535E-02  9.1628E-03
       9-
 mid.  surface     6.0571E-02  7.8314E-02 -1.5600E-01 -7.6293E-03 -1.4255E-02 -3.9613E-03
      10-
 mid.  surface     3.5939E-02  8.9938E-02 -1.0763E-01 -1.0644E-02 -5.6931E-03 -5.3029E-04
      15-
 mid.  surface     6.8558E-02  5.4701E-02 -1.3230E-01 -3.2137E-03 -5.0584E-02 -3.9933E-02
      16-
 mid.  surface     4.5282E-02  6.7710E-02 -1.3218E-01  1.5468E-03 -3.8303E-02 -3.4522E-02
      18-
 mid.  surface     4.9000E-02  5.9324E-02 -9.8928E-02 -2.2644E-03 -4.2604E-02 -7.4600E-03
      40-
 mid.  surface     4.9187E-02  7.1111E-02 -1.1269E-01  1.3199E-02  2.2168E-03  7.5481E-03
      41-
 mid.  surface     4.9132E-02  5.1039E-02 -1.0534E-01 -1.3016E-04 -2.4212E-02  6.2497E-04
      50-
 mid.  surface     7.0648E-02  6.1221E-02 -1.5893E-01  7.5155E-03  1.9387E-02  2.7125E-02
      51-
 mid.  surface     5.8689E-02  5.7738E-02 -2.0921E-01 -2.4120E-03  3.9244E-02 -2.6911E-02
      52-
 mid.  surface     5.4315E-02  6.3335E-02 -1.5385E-01  3.7064E-03  6.0235E-02 -5.0992E-02
      53-
 mid.  surface     6.4179E-02  5.8997E-02 -1.1300E-01  1.1759E-02  1.6657E-02  8.0161E-03
      72-
 mid.  surface     6.4279E-02  7.4217E-02 -1.5828E-01  1.5986E-02  1.8861E-02  9.5722E-03
      95-
 mid.  surface     7.9717E-02  6.1931E-02 -1.3975E-01  1.3901E-02  2.9223E-02  3.6353E-03
     100-
 mid.  surface     7.1780E-02  6.1060E-02 -1.4240E-01  8.9301E-03  1.4979E-02  5.3462E-04
     110-
 mid.  surface     7.7530E-02  4.0492E-02 -1.5627E-01 -1.6733E-03 -3.2894E-02 -2.3683E-02



 n o d a l  s t r e s s  c a l c u l a t i o n s   f o r   t i m e  s t e p      523   ( at time 2.31239E+01 )

 node (global)
          stress       sig-xx      sig-yy      sig-zz      sig-xy      sig-yz      sig-zx       plastic
                                                                                                 strain 
       4-
 mid.  surface    -4.3281E+09 -4.3035E+09 -4.2232E+09  6.7417E+07 -1.3465E+07 -6.6337E+07  7.0957E-02
       5-
 mid.  surface    -3.6019E+09 -3.7356E+09 -3.6082E+09 -1.5487E+07 -1.7199E+07 -5.1207E+07 -1.3831E-01
       6-
 mid.  surface    -5.8442E+09 -5.7540E+09 -5.3537E+09  2.4263E+07  8.8317E+07  2.3009E+08 -2.9526E-01
       7-
 mid.  surface    -1.3540E+09 -1.2652E+09 -9.5042E+08  7.4521E+07  2.1974E+07  8.6401E+07 -7.6453E-04
       8-
 mid.  surface    -2.5538E+09 -2.6291E+09 -2.0697E+09  2.9480E+07  1.5729E+08  1.3813E+08  7.5974E-02
       9-
 mid.  surface    -1.1102E+09 -1.0720E+09 -1.3869E+09 -1.6029E+07 -4.7545E+07 -1.7037E+07  1.7547E-01
      10-
 mid.  surface     1.6460E+09  1.7277E+09  1.4166E+09 -1.0513E+07 -6.9101E+07 -1.3978E+07  1.3320E-01
      15-
 mid.  surface    -2.1801E+09 -2.1480E+09 -1.8579E+09 -1.9266E+07 -3.1098E+07 -5.3086E+07  4.5566E-02
      16-
 mid.  surface    -8.1068E+09 -8.1416E+09 -7.6321E+09 -5.1209E+07  9.3167E+07  9.6480E+07 -1.2248E-01
      18-
 mid.  surface     2.8518E+08  3.4953E+08  4.8383E+08 -5.5825E+06  2.2101E+07  2.9594E+07  1.3711E-01
      40-
 mid.  surface     1.4437E+09  1.3722E+09  5.7444E+08 -1.6150E+05 -1.5584E+08 -3.7458E+07  1.5686E-01
      41-
 mid.  surface    -3.0183E+08 -3.0587E+08 -5.8194E+08 -1.0766E+07 -2.7771E+06  1.3915E+07  1.2772E-01
      50-
 mid.  surface     1.2273E+09  1.2025E+09  9.0553E+08 -3.2629E+07  1.2216E+08  1.9099E+07  4.0723E-01
      51-
 mid.  surface     3.4508E+09  3.3742E+09  3.1953E+09  8.9730E+07  1.0330E+08 -1.4421E+08  4.5107E-01
      52-
 mid.  surface     4.4331E+09  4.2398E+09  4.0976E+09  4.2179E+07  1.4223E+08 -1.4628E+08  1.5941E-01
      53-
 mid.  surface     2.3361E+09  2.4036E+09  2.0207E+09  1.6287E+07  1.1082E+08  1.4405E+08  2.7245E-01
      72-
 mid.  surface     4.2523E+09  4.2465E+09  2.3701E+09 -7.3358E+07 -4.1125E+08 -3.3454E+08  4.8953E-01
      95-
 mid.  surface     4.1172E+09  4.1836E+09  2.6161E+09  2.9036E+07 -2.5551E+08 -1.4658E+08  4.2996E-01
     100-
 mid.  surface    -1.2608E+09 -1.4211E+09 -1.8453E+09  5.4362E+06 -9.6351E+06  2.8525E+07  1.2534E-01
     110-
 mid.  surface    -2.9707E+09 -3.0167E+09 -3.2863E+09 -2.6286E+07  2.3889E+07 -1.4384E+07  1.8065E-01



 n o d a l  s t r a i n  c a l c u l a t i o n s   f o r   t i m e  s t e p      523   ( at time 2.31239E+01 )

 node (global)
          strain       eps-xx      eps-yy      eps-zz      eps-xy      eps-yz      eps-zx       
       4-
 mid.  surface     1.5078E-01  7.7808E-02 -2.2834E-01  2.6683E-02 -1.5355E-02 -1.2345E-02
       5-
 mid.  surface     1.3284E-01  8.0346E-02 -1.6108E-01  1.1931E-02 -1.8756E-02 -6.7228E-02
       6-
 mid.  surface     4.3297E-02  7.8534E-02 -7.4461E-02 -2.2208E-03 -5.6761E-02 -3.8416E-02
       7-
 mid.  surface     7.8942E-02  5.5233E-02 -1.2736E-01  8.1207E-03 -5.6797E-02 -1.9420E-02
       8-
 mid.  surface     7.9042E-02  4.5632E-02 -1.3328E-01  2.6031E-03 -3.4090E-02  9.2714E-03
       9-
 mid.  surface     6.9093E-02  9.0566E-02 -1.7805E-01 -8.3027E-03 -1.7137E-02 -5.2957E-03
      10-
 mid.  surface     4.2019E-02  1.0442E-01 -1.2465E-01 -1.1043E-02 -5.8764E-03 -9.9357E-04
      15-
 mid.  surface     7.5587E-02  6.6123E-02 -1.5359E-01 -5.7854E-03 -5.4654E-02 -4.3843E-02
      16-
 mid.  surface     5.2306E-02  7.1923E-02 -1.4710E-01 -2.8370E-03 -3.7253E-02 -3.7938E-02
      18-
 mid.  surface     5.6104E-02  6.7761E-02 -1.1287E-01 -2.6847E-03 -4.4858E-02 -6.9861E-03
      40-
 mid.  surface     5.6327E-02  7.8407E-02 -1.2648E-01  1.3478E-02  1.7438E-03  7.8987E-03
      41-
 mid.  surface     5.6601E-02  5.9258E-02 -1.2239E-01 -7.7264E-04 -2.8811E-02  1.8941E-03
      50-
 mid.  surface     7.7175E-02  6.9906E-02 -1.7778E-01  8.0405E-03  2.3726E-02  3.1898E-02
      51-
 mid.  surface     6.4466E-02  7.0227E-02 -2.4241E-01 -2.7270E-03  4.2223E-02 -2.4199E-02
      52-
 mid.  surface     5.5336E-02  7.6372E-02 -1.7658E-01  2.8675E-03  6.7083E-02 -5.6776E-02
      53-
 mid.  surface     6.8187E-02  6.9114E-02 -1.2317E-01  1.4648E-02  1.7915E-02  5.4270E-03
      72-
 mid.  surface     7.6676E-02  8.3949E-02 -1.8178E-01  1.9167E-02  1.4980E-02  8.6344E-03
      95-
 mid.  surface     9.4560E-02  7.0877E-02 -1.6046E-01  1.8193E-02  2.7668E-02  4.8244E-03
     100-
 mid.  surface     8.1174E-02  6.6687E-02 -1.5923E-01  8.0438E-03  1.2985E-02 -1.5857E-03
     110-
 mid.  surface     8.7567E-02  4.6844E-02 -1.7991E-01 -3.4194E-03 -3.8467E-02 -2.5814E-02



 n o d a l  s t r e s s  c a l c u l a t i o n s   f o r   t i m e  s t e p      536   ( at time 2.54447E+01 )

 node (global)
          stress       sig-xx      sig-yy      sig-zz      sig-xy      sig-yz      sig-zx       plastic
                                                                                                 strain 
       4-
 mid.  surface    -5.1277E+09 -4.9629E+09 -4.8637E+09  7.7322E+07 -5.3643E+06 -1.1168E+08  1.0194E-01
       5-
 mid.  surface    -4.6170E+09 -4.6492E+09 -4.5191E+09 -2.8583E+07  7.3940E+06 -1.2070E+08 -1.1905E-01
       6-
 mid.  surface    -6.7491E+09 -6.7259E+09 -6.3316E+09  5.0904E+07  1.4925E+08  3.1508E+08 -3.3056E-01
       7-
 mid.  surface    -1.8679E+09 -1.7385E+09 -1.4752E+09  6.7571E+07  1.0814E+07  7.9282E+07 -1.8659E-02
       8-
 mid.  surface    -3.8861E+09 -3.7973E+09 -2.7428E+09  1.0138E+08  4.3196E+08  1.3755E+08 -6.2608E-03
       9-
 mid.  surface    -3.6509E+09 -3.4788E+09 -2.6102E+09  2.8079E+07  3.4915E+08  2.9089E+07  1.1258E-01
      10-
 mid.  surface    -6.6651E+08 -4.7337E+08  4.4101E+08  2.3072E+07  3.0469E+08  3.3436E+07  6.9931E-02
      15-
 mid.  surface    -2.7541E+09 -2.7633E+09 -2.4043E+09 -5.5811E+07 -1.2130E+08 -1.0406E+08  4.2945E-02
      16-
 mid.  surface    -8.9692E+09 -9.0791E+09 -8.5319E+09 -4.2760E+07  1.1706E+08  1.5827E+08 -1.4696E-01
      18-
 mid.  surface    -8.6008E+08 -7.5889E+08  6.3325E+06  3.6569E+07  2.0413E+08  3.4307E+07  8.6185E-02
      40-
 mid.  surface     2.9776E+09  2.7957E+09  1.4455E+09 -7.1046E+07 -4.2481E+08 -6.6303E+07  2.5304E-01
      41-
 mid.  surface     2.6218E+09  2.4376E+09  9.0163E+08 -5.4112E+07 -4.8896E+08 -3.2305E+07  2.4157E-01
      50-
 mid.  surface     1.9417E+09  1.8342E+09  1.5522E+09  7.2631E+06  1.5468E+08  4.5372E+07  4.1592E-01
      51-
 mid.  surface     4.1640E+09  4.1971E+09  4.0140E+09  1.2290E+08  1.0016E+08 -3.1208E+08  4.8019E-01
      52-
 mid.  surface     5.0975E+09  4.9885E+09  4.8206E+09  6.4120E+07  1.5750E+08 -3.2839E+08  1.8213E-01
      53-
 mid.  surface     3.0305E+09  3.0336E+09  2.6023E+09  6.8451E+07  1.5883E+08  2.0324E+08  2.7171E-01
      72-
 mid.  surface     4.8294E+09  4.7974E+09  3.0026E+09 -1.7483E+08 -5.4424E+08 -3.1127E+08  6.1191E-01
      95-
 mid.  surface     4.6322E+09  4.7928E+09  3.1550E+09 -1.4799E+07 -2.5182E+08 -6.2677E+07  5.1797E-01
     100-
 mid.  surface     7.2475E+07 -1.0839E+08 -1.1898E+09 -2.5959E+07 -1.8715E+08  1.0211E+07  1.9798E-01
     110-
 mid.  surface    -4.5213E+08 -6.4889E+08 -2.2114E+09 -5.8884E+07 -4.2518E+08 -5.8714E+07  2.9884E-01



 n o d a l  s t r a i n  c a l c u l a t i o n s   f o r   t i m e  s t e p      536   ( at time 2.54447E+01 )

 node (global)
          strain       eps-xx      eps-yy      eps-zz      eps-xy      eps-yz      eps-zx       
       4-
 mid.  surface     1.8237E-01  8.1054E-02 -2.5823E-01  3.1379E-02 -1.9392E-02 -1.2243E-02
       5-
[...]
      51-
 mid.  surface     4.1412E-01  3.7928E-01 -1.2194E+00 -1.2874E-01  5.0917E-01 -1.5534E-01
      52-
 mid.  surface     5.2154E-01  4.3791E-01 -1.0156E+00 -1.4764E-01  5.9241E-01  4.8696E-01
      53-
 mid.  surface     2.5526E-01  4.2844E-01 -4.5242E-01 -3.4843E-02 -3.1990E-01 -1.5097E-02
      72-
 mid.  surface     3.8578E-01  3.8677E-01 -8.2681E-01 -8.7230E-02  1.6690E-01  1.1029E-01
      95-
 mid.  surface     3.4816E-01  3.3126E-01 -7.1758E-01 -9.4447E-03 -4.6395E-02 -5.9354E-02
     100-
 mid.  surface     3.5985E-01  3.9563E-01 -8.8098E-01 -1.6706E-02 -3.4736E-01 -1.1786E-01
     110-
 mid.  surface     3.5873E-01  5.5151E-01 -1.1519E+00  1.1535E-01 -6.1175E-01 -1.5546E-01



 n o d a l  s t r e s s  c a l c u l a t i o n s   f o r   t i m e  s t e p      857   ( at time 9.27477E+01 )

 node (global)
          stress       sig-xx      sig-yy      sig-zz      sig-xy      sig-yz      sig-zx       plastic
                                                                                                 strain 
       4-
 mid.  surface     0.0000E+00  0.0000E+00  0.0000E+00  0.0000E+00  0.0000E+00  0.0000E+00  9.2031E-01
       5-
 mid.  surface     0.0000E+00  0.0000E+00  0.0000E+00  0.0000E+00  0.0000E+00  0.0000E+00  1.2299E+00
       6-
 mid.  surface     0.0000E+00  0.0000E+00  0.0000E+00  0.0000E+00  0.0000E+00  0.0000E+00  2.3115E+00
       7-
 mid.  surface     8.4518E+08  7.6946E+08  1.4514E+08  1.0168E+07 -7.2338E+06 -2.5202E+07  2.0965E+00
       8-
 mid.  surface     8.0233E+08  8.1183E+08  4.9776E+07 -1.4469E+07 -3.0514E+07 -3.9396E+07  1.4984E+00
       9-
 mid.  surface    -8.0966E+07 -7.1352E+07 -9.3498E+07 -1.0108E+08  2.3784E+07 -1.6513E+07  2.2090E+00
      10-
 mid.  surface    -1.0891E+09 -1.0819E+09 -1.9871E+09 -2.1296E+07 -1.9633E+08 -1.0039E+08 -1.6920E+00
      15-
 mid.  surface     1.1427E+08  3.4006E+07  8.5670E+08  1.0215E+08 -2.0790E+07  6.8204E+07 -5.5287E-01
      16-
 mid.  surface     0.0000E+00  0.0000E+00  0.0000E+00  0.0000E+00  0.0000E+00  0.0000E+00  2.4487E+00
      18-
 mid.  surface    -4.2339E+08 -4.4290E+08 -1.8094E+08  9.5085E+07 -1.3671E+08 -5.4618E+05 -3.3593E+00
      40-
 mid.  surface    -1.0291E+09 -9.3340E+08 -6.7728E+08  7.2854E+06 -7.8901E+06 -1.7503E+07 -2.3850E+00
      41-
 mid.  surface    -9.2888E+08 -9.1927E+08 -9.4142E+08 -1.0108E+08  2.3783E+07 -1.6513E+07 -8.1826E-01
      50-
 mid.  surface     0.0000E+00  0.0000E+00  0.0000E+00  0.0000E+00  0.0000E+00  0.0000E+00  3.6357E-01
      51-
 mid.  surface     0.0000E+00  0.0000E+00  0.0000E+00  0.0000E+00  0.0000E+00  0.0000E+00 -9.5669E-01
      52-
 mid.  surface     0.0000E+00  0.0000E+00  0.0000E+00  0.0000E+00  0.0000E+00  0.0000E+00 -1.2347E+00
      53-
 mid.  surface     0.0000E+00  0.0000E+00  0.0000E+00  0.0000E+00  0.0000E+00  0.0000E+00  4.1112E-01
      72-
 mid.  surface    -4.1961E+08 -4.3183E+08  2.7791E+08  5.9879E+07  5.6021E+06  4.2561E+07 -7.6097E-01
      95-
 mid.  surface     3.4164E+08  3.5787E+08 -3.3201E+08 -6.1654E+07 -6.8769E+06 -4.4505E+07  1.8466E+00
     100-
 mid.  surface    -2.4870E+08 -1.5234E+08 -1.9872E+09 -1.8537E+08  7.6223E+06 -1.4016E+08  2.9138E+00
     110-
 mid.  surface    -4.0749E+08 -4.3667E+08 -9.8402E+08 -1.5173E+08  2.2140E+07  2.7556E+07  4.1839E+00



 n o d a l  s t r a i n  c a l c u l a t i o n s   f o r   t i m e  s t e p      857   ( at time 9.27477E+01 )

 node (global)
          strain       eps-xx      eps-yy      eps-zz      eps-xy      eps-yz      eps-zx       
       4-
 mid.  surface     1.5170E-01  2.7666E-01 -6.9509E-01  7.1531E-02  1.4903E-01 -2.1864E-01
       5-
 mid.  surface     2.8122E-01  4.3169E-01 -6.6564E-01  2.2506E-01  1.2958E-01 -9.7151E-02
       6-
 mid.  surface     2.4889E-01  4.4262E-01 -5.3231E-01  1.1856E-03 -2.0152E-01 -4.2061E-02
       7-
 mid.  surface     3.0480E-01  4.5249E-01 -8.0539E-01  1.3607E-02  1.8061E-01  1.1429E-01
       8-
 mid.  surface     3.7455E-01  2.5009E-01 -5.7134E-01 -5.1063E-02  1.2019E-02  9.0402E-03
       9-
 mid.  surface     4.4373E-01  3.2171E-01 -8.5315E-01 -1.4627E-01 -1.6336E-01 -6.4210E-02
      10-
 mid.  surface     4.6884E-01  3.5233E-01 -7.1481E-01 -8.3233E-02  2.8101E-01  5.8586E-02
      15-
 mid.  surface     4.4416E-01  4.2099E-01 -9.4448E-01 -4.5966E-02  1.7381E-01  1.8538E-01
      16-
 mid.  surface     1.9585E-01  2.8380E-01 -4.6967E-01 -1.1206E-01 -7.1259E-02 -1.1923E-01
      18-
 mid.  surface     4.3847E-01  3.5213E-01 -6.1749E-01 -4.2534E-02  2.2702E-01  1.0134E-01
      40-
 mid.  surface     3.2944E-01  4.6077E-01 -6.4521E-01 -9.9344E-02  1.5452E-01  1.1796E-01
      41-
 mid.  surface     3.5567E-01  6.0035E-01 -8.3042E-01  9.0245E-02 -1.6642E-01  4.5903E-02
      50-
 mid.  surface     3.1765E-01  3.6179E-01 -6.4340E-01 -9.7754E-02 -2.2310E-01 -1.9710E-02
      51-
 mid.  surface     4.2592E-01  3.8670E-01 -1.2194E+00 -1.3200E-01  5.1742E-01 -1.7300E-01
      52-
 mid.  surface     5.2985E-01  4.4438E-01 -1.0418E+00 -1.4270E-01  5.8768E-01  4.6755E-01
      53-
 mid.  surface     2.5812E-01  4.4052E-01 -4.8248E-01 -3.9266E-02 -3.1874E-01 -4.0763E-02
      72-
 mid.  surface     3.9755E-01  4.0075E-01 -8.6005E-01 -9.2861E-02  1.4399E-01  1.4818E-01
      95-
 mid.  surface     3.5743E-01  3.5099E-01 -7.6253E-01 -1.0022E-02 -3.8066E-02 -5.2837E-02
     100-
 mid.  surface     3.7170E-01  4.1177E-01 -8.9079E-01 -1.5588E-02 -3.5173E-01 -1.2653E-01
     110-
 mid.  surface     3.7260E-01  5.6353E-01 -1.1747E+00  1.1550E-01 -6.0726E-01 -1.5620E-01



 n o d a l  s t r e s s  c a l c u l a t i o n s   f o r   t i m e  s t e p      867   ( at time 9.50685E+01 )

 node (global)
          stress       sig-xx      sig-yy      sig-zz      sig-xy      sig-yz      sig-zx       plastic
                                                                                                 strain 
       4-
 mid.  surface     0.0000E+00  0.0000E+00  0.0000E+00  0.0000E+00  0.0000E+00  0.0000E+00  9.2031E-01
       5-
 mid.  surface     0.0000E+00  0.0000E+00  0.0000E+00  0.0000E+00  0.0000E+00  0.0000E+00  1.2299E+00
       6-
 mid.  surface     0.0000E+00  0.0000E+00  0.0000E+00  0.0000E+00  0.0000E+00  0.0000E+00  2.3115E+00
       7-
 mid.  surface     1.1107E+09  9.8060E+08  3.5829E+08  1.5110E+07 -2.0490E+07  8.9989E+06  2.1138E+00
       8-
 mid.  surface     1.1968E+09  1.1365E+09  3.9895E+08 -1.0107E+06  3.2825E+06 -1.4707E+07  1.5430E+00
       9-
 mid.  surface    -7.6236E+08 -7.4972E+08 -7.4863E+08 -1.3801E+08 -1.4401E+07 -6.6656E+07  2.2099E+00
      10-
 mid.  surface    -8.5060E+08 -8.1752E+08 -1.7102E+09 -1.3169E+08 -1.4732E+08 -1.9872E+08 -1.6572E+00
      15-
 mid.  surface    -1.4944E+08 -1.8580E+08  5.9719E+08  1.2219E+08 -9.5915E+07  4.1183E+07 -6.0865E-01
      16-
 mid.  surface     0.0000E+00  0.0000E+00  0.0000E+00  0.0000E+00  0.0000E+00  0.0000E+00  2.4487E+00
      18-
 mid.  surface    -6.1168E+08 -5.6761E+08 -3.4868E+08  8.6588E+07 -1.0689E+08 -1.9247E+07 -3.3795E+00
      40-
 mid.  surface    -1.0231E+09 -8.5972E+08 -6.1754E+08  5.7680E+06  6.5194E+07 -8.4673E+06 -2.3764E+00
      41-
 mid.  surface    -7.6237E+08 -7.4973E+08 -7.4864E+08 -1.3801E+08 -1.4402E+07 -6.6657E+07 -8.1736E-01
      50-
 mid.  surface     0.0000E+00  0.0000E+00  0.0000E+00  0.0000E+00  0.0000E+00  0.0000E+00  3.6357E-01
      51-
 mid.  surface     0.0000E+00  0.0000E+00  0.0000E+00  0.0000E+00  0.0000E+00  0.0000E+00 -9.5669E-01
      52-
 mid.  surface     0.0000E+00  0.0000E+00  0.0000E+00  0.0000E+00  0.0000E+00  0.0000E+00 -1.2347E+00
      53-
 mid.  surface     0.0000E+00  0.0000E+00  0.0000E+00  0.0000E+00  0.0000E+00  0.0000E+00  4.1112E-01
      72-
 mid.  surface    -9.2421E+08 -8.6634E+08 -1.9258E+08  6.4815E+07 -7.9011E+06  3.8295E+07 -8.0062E-01
      95-
 mid.  surface     6.1792E+08  5.6704E+08 -8.6583E+07 -6.7650E+07  6.5931E+06 -4.3720E+07  1.8865E+00
     100-
 mid.  surface     3.0753E+08  3.2371E+08 -1.4484E+09 -1.8417E+08  8.4965E+07 -1.0830E+08  3.0486E+00
     110-
 mid.  surface    -7.8495E+08 -8.5685E+08 -1.3931E+09 -6.6567E+07 -4.9336E+07  4.8558E+07  4.2383E+00



 n o d a l  s t r a i n  c a l c u l a t i o n s   f o r   t i m e  s t e p      867   ( at time 9.50685E+01 )

 node (global)
          strain       eps-xx      eps-yy      eps-zz      eps-xy      eps-yz      eps-zx       
       4-
 mid.  surface     1.4184E-01  2.7877E-01 -6.6977E-01  6.5073E-02  1.4544E-01 -1.9444E-01
       5-
 mid.  surface     2.6695E-01  4.3172E-01 -6.6047E-01  2.2593E-01  1.2612E-01 -9.2962E-02
       6-
 mid.  surface     2.3892E-01  4.4686E-01 -5.1348E-01  1.5322E-03 -1.7571E-01 -3.4727E-02
       7-
 mid.  surface     3.0788E-01  4.6487E-01 -8.2629E-01  1.5553E-02  1.5686E-01  1.3167E-01
       8-
 mid.  surface     3.8655E-01  2.5481E-01 -5.5866E-01 -5.5447E-02 -1.4372E-03  2.7700E-03
       9-
 mid.  surface     4.5890E-01  3.3323E-01 -9.0240E-01 -1.4234E-01 -1.4331E-01 -5.9749E-02
      10-
 mid.  surface     4.7799E-01  3.6296E-01 -7.1650E-01 -7.5171E-02  2.9518E-01  5.0273E-02
      15-
 mid.  surface     4.5306E-01  4.3368E-01 -1.0015E+00 -4.9234E-02  1.6361E-01  2.2308E-01
      16-
 mid.  surface     1.8959E-01  2.8302E-01 -4.3845E-01 -1.1680E-01 -6.7609E-02 -1.0772E-01
      18-
 mid.  surface     4.5183E-01  3.5857E-01 -6.2969E-01 -5.4298E-02  2.3410E-01  1.1405E-01
      40-
 mid.  surface     3.4154E-01  4.6637E-01 -6.6193E-01 -1.0907E-01  1.9341E-01  1.0079E-01
      41-
 mid.  surface     3.7277E-01  6.0916E-01 -8.3316E-01  9.7219E-02 -1.8406E-01  4.3720E-02
      50-
 mid.  surface     3.2456E-01  3.6165E-01 -6.3837E-01 -1.1067E-01 -2.3667E-01 -4.3277E-02
      51-
 mid.  surface     4.3951E-01  3.8959E-01 -1.2259E+00 -1.3187E-01  5.1964E-01 -1.8792E-01
      52-
 mid.  surface     5.3946E-01  4.4638E-01 -1.0666E+00 -1.3496E-01  5.8630E-01  4.5488E-01
      53-
 mid.  surface     2.5860E-01  4.4694E-01 -4.9112E-01 -4.7419E-02 -3.0533E-01 -6.5653E-02
      72-
 mid.  surface     4.0775E-01  4.1776E-01 -9.1054E-01 -9.7219E-02  1.1753E-01  1.8515E-01
      95-
 mid.  surface     3.6655E-01  3.6968E-01 -8.0449E-01 -5.0592E-03 -2.4372E-02 -5.9197E-02
     100-
 mid.  surface     3.8475E-01  4.2545E-01 -8.9427E-01 -1.6946E-02 -3.6785E-01 -1.3287E-01
     110-
 mid.  surface     3.9147E-01  5.7289E-01 -1.2329E+00  1.1900E-01 -6.1860E-01 -1.5724E-01



 n o d a l  s t r e s s  c a l c u l a t i o n s   f o r   t i m e  s t e p      882   ( at time 9.73893E+01 )

 node (global)
          stress       sig-xx      sig-yy      sig-zz      sig-xy      sig-yz      sig-zx       plastic
                                                                                                 strain 
       4-
 mid.  surface     0.0000E+00  0.0000E+00  0.0000E+00  0.0000E+00  0.0000E+00  0.0000E+00  9.2031E-01
       5-
 mid.  surface     0.0000E+00  0.0000E+00  0.0000E+00  0.0000E+00  0.0000E+00  0.0000E+00  1.2299E+00
       6-
 mid.  surface     0.0000E+00  0.0000E+00  0.0000E+00  0.0000E+00  0.0000E+00  0.0000E+00  2.3115E+00
       7-
 mid.  surface    -3.6761E+07  1.3279E+08 -9.6026E+07  9.9256E+07 -1.2585E+08 -6.2685E+07  2.1059E+00
       8-
 mid.  surface    -3.4964E+08 -3.2369E+08 -4.6841E+08  1.1800E+08 -1.6307E+08 -2.0791E+07  1.5482E+00
       9-
 mid.  surface    -9.1410E+08 -7.7873E+08 -9.2599E+08 -1.2807E+08  1.2709E+08 -5.6162E+07  2.2033E+00
      10-
 mid.  surface     3.3987E+08  5.2115E+08 -6.4311E+08 -2.4725E+08  1.4168E+08 -1.8152E+08 -1.6524E+00
      15-
 mid.  surface    -2.4300E+07  8.7777E+07 -6.3477E+07  6.5612E+07 -8.3191E+07 -4.1437E+07 -6.1385E-01
      16-
 mid.  surface     0.0000E+00  0.0000E+00  0.0000E+00  0.0000E+00  0.0000E+00  0.0000E+00  2.4487E+00
      18-
 mid.  surface     4.3194E+08  3.3180E+08 -4.0160E+07 -1.7048E+08  9.6712E+07 -2.0756E+07 -3.3664E+00
      40-
 mid.  surface     5.7054E+08  1.5367E+08  6.0656E+08 -1.4124E+08  1.6562E+08  1.4293E+08 -2.3505E+00
      41-
 mid.  surface     7.3424E+08  8.6960E+08  7.2234E+08 -1.2807E+08  1.2709E+08 -5.6162E+07 -8.2393E-01
      50-
 mid.  surface     0.0000E+00  0.0000E+00  0.0000E+00  0.0000E+00  0.0000E+00  0.0000E+00  3.6357E-01
      51-
 mid.  surface     0.0000E+00  0.0000E+00  0.0000E+00  0.0000E+00  0.0000E+00  0.0000E+00 -9.5669E-01
      52-
 mid.  surface     0.0000E+00  0.0000E+00  0.0000E+00  0.0000E+00  0.0000E+00  0.0000E+00 -1.2347E+00
      53-
 mid.  surface     0.0000E+00  0.0000E+00  0.0000E+00  0.0000E+00  0.0000E+00  0.0000E+00  4.1112E-01
      72-
 mid.  surface     2.6322E+07 -9.5081E+07  6.8758E+07 -7.1071E+07  9.0113E+07  4.4885E+07 -7.9498E-01
      95-
 mid.  surface    -2.4300E+07  8.7777E+07 -6.3477E+07  6.5612E+07 -8.3191E+07 -4.1437E+07  1.8813E+00
     100-
 mid.  surface    -2.0322E+08 -6.0240E+08 -4.7039E+08 -1.1670E+07 -1.4778E+08  7.0385E+07  3.1204E+00
     110-
 mid.  surface    -2.8873E+08 -6.3149E+08 -7.8572E+08 -9.8854E+07 -2.7646E+08 -1.0126E+07  4.3493E+00



 n o d a l  s t r a i n  c a l c u l a t i o n s   f o r   t i m e  s t e p      882   ( at time 9.73893E+01 )

 node (global)
          strain       eps-xx      eps-yy      eps-zz      eps-xy      eps-yz      eps-zx       
       4-
 mid.  surface     1.3165E-01  2.7297E-01 -6.2691E-01  5.2800E-02  1.3222E-01 -1.5040E-01
       5-
 mid.  surface     2.6525E-01  4.2795E-01 -6.7313E-01  2.2124E-01  1.2056E-01 -7.7807E-02
       6-
 mid.  surface     2.0931E-01  4.3443E-01 -4.7276E-01 -2.2934E-02 -1.7306E-01  1.2139E-02
       7-
 mid.  surface     3.0995E-01  4.9421E-01 -8.5491E-01  1.4838E-03  1.1049E-01  1.3637E-01
       8-
 mid.  surface     3.8450E-01  2.6480E-01 -4.9364E-01 -7.1544E-02 -5.0981E-02  3.0256E-02
       9-
 mid.  surface     4.5887E-01  3.8907E-01 -8.8839E-01 -1.3229E-01 -1.9326E-01 -1.4560E-02
      10-
 mid.  surface     5.0177E-01  3.7127E-01 -7.7966E-01 -6.7650E-02  2.2367E-01  4.9649E-02
      15-
 mid.  surface     4.4995E-01  4.6509E-01 -1.0463E+00 -7.2363E-02  1.7652E-01  2.0336E-01
      16-
 mid.  surface     1.4662E-01  2.8190E-01 -3.3642E-01 -1.4799E-01 -7.0070E-02 -5.9128E-02
      18-
 mid.  surface     4.7340E-01  3.5581E-01 -6.1559E-01 -6.5129E-02  1.9685E-01  5.8119E-02
      40-
 mid.  surface     3.8404E-01  4.2466E-01 -6.7196E-01 -1.0804E-01  2.7995E-01  1.1943E-01
      41-
 mid.  surface     4.2166E-01  5.7599E-01 -9.3636E-01  9.2776E-02 -2.1948E-01  2.8483E-02
      50-
 mid.  surface     3.2454E-01  3.6482E-01 -5.7550E-01 -1.1025E-01 -2.6228E-01 -4.7566E-02
      51-
 mid.  surface     4.5595E-01  3.9778E-01 -1.2492E+00 -1.2307E-01  5.1901E-01 -2.3985E-01
      52-
 mid.  surface     5.6545E-01  4.5298E-01 -1.1335E+00 -1.2188E-01  5.9242E-01  4.3068E-01
      53-
 mid.  surface     2.7501E-01  4.4187E-01 -5.0634E-01 -3.9870E-02 -3.2601E-01 -7.7084E-02
      72-
 mid.  surface     4.4444E-01  4.3229E-01 -1.0011E+00 -8.8949E-02  1.7017E-01  1.8818E-01
      95-
 mid.  surface     3.8618E-01  3.7111E-01 -8.7720E-01 -2.3386E-02  1.2968E-01  6.8759E-03
     100-
 mid.  surface     4.0012E-01  4.2742E-01 -8.6102E-01 -2.9460E-02 -3.9347E-01 -1.2539E-01
     110-
 mid.  surface     4.0070E-01  5.9023E-01 -1.2757E+00  9.5466E-02 -6.0124E-01 -7.7902E-02



 n o d a l  s t r e s s  c a l c u l a t i o n s   f o r   t i m e  s t e p      888   ( at time 9.97101E+01 )

 node (global)
          stress       sig-xx      sig-yy      sig-zz      sig-xy      sig-yz      sig-zx       plastic
                                                                                                 strain 
       4-
 mid.  surface     0.0000E+00  0.0000E+00  0.0000E+00  0.0000E+00  0.0000E+00  0.0000E+00  9.2031E-01
       5-
 mid.  surface     0.0000E+00  0.0000E+00  0.0000E+00  0.0000E+00  0.0000E+00  0.0000E+00  1.2299E+00
       6-
 mid.  surface     0.0000E+00  0.0000E+00  0.0000E+00  0.0000E+00  0.0000E+00  0.0000E+00  2.3115E+00
       7-
 mid.  surface    -5.0318E+08 -5.0318E+08 -5.0318E+08  0.0000E+00  0.0000E+00  0.0000E+00  2.1059E+00
       8-
 mid.  surface     5.2879E+08  4.4961E+08 -7.5481E+08  6.2509E+06 -9.6406E+07  4.9921E+07  1.6014E+00
       9-
 mid.  surface     1.0277E+09  9.3441E+08 -3.8268E+08 -6.9029E+06  9.4611E+07  2.6106E+07  2.2269E+00
      10-
 mid.  surface     1.3669E+09  1.2915E+09  1.9155E+09 -6.0534E+07  3.2138E+08 -1.7220E+08 -1.6793E+00
      15-
 mid.  surface     4.6453E+08  4.6453E+08  4.6453E+08  0.0000E+00  0.0000E+00  0.0000E+00 -6.1385E-01
      16-
 mid.  surface     0.0000E+00  0.0000E+00  0.0000E+00  0.0000E+00  0.0000E+00  0.0000E+00  2.4487E+00
      18-
 mid.  surface     1.5652E+09  1.5189E+09  1.6888E+09 -1.7611E+07  9.1299E+07 -4.9695E+07 -3.3710E+00
      40-
 mid.  surface    -1.5219E+08 -1.0681E+08  5.6535E+08  1.9826E+06 -4.7026E+07 -1.7565E+07 -2.3612E+00
      41-
 mid.  surface    -3.3430E+08 -1.7843E+08  2.2576E+09 -1.5439E+07  1.9337E+08 -1.0887E+08 -9.2802E-01
      50-
 mid.  surface     0.0000E+00  0.0000E+00  0.0000E+00  0.0000E+00  0.0000E+00  0.0000E+00  3.6357E-01
      51-
 mid.  surface     0.0000E+00  0.0000E+00  0.0000E+00  0.0000E+00  0.0000E+00  0.0000E+00 -9.5669E-01
      52-
 mid.  surface     0.0000E+00  0.0000E+00  0.0000E+00  0.0000E+00  0.0000E+00  0.0000E+00 -1.2347E+00
      53-
 mid.  surface     0.0000E+00  0.0000E+00  0.0000E+00  0.0000E+00  0.0000E+00  0.0000E+00  4.1112E-01
      72-
 mid.  surface    -5.0318E+08 -5.0318E+08 -5.0318E+08  0.0000E+00  0.0000E+00  0.0000E+00 -7.9498E-01
      95-
 mid.  surface    -1.3708E+09 -1.3708E+09 -1.3708E+09  0.0000E+00  0.0000E+00  0.0000E+00  1.8813E+00
     100-
 mid.  surface    -2.3767E+09 -2.4029E+09 -3.4004E+09  1.1181E+07 -1.8770E+08  5.2534E+07  3.1808E+00
     110-
 mid.  surface    -2.3615E+09 -2.3566E+09 -3.3882E+09  2.5500E+07 -1.8573E+08  9.3617E+07  4.3933E+00



 n o d a l  s t r a i n  c a l c u l a t i o n s   f o r   t i m e  s t e p      888   ( at time 9.97101E+01 )

 node (global)
          strain       eps-xx      eps-yy      eps-zz      eps-xy      eps-yz      eps-zx       
       4-
 mid.  surface     1.3363E-01  2.7478E-01 -6.4170E-01  5.3996E-02  1.2972E-01 -1.4848E-01
       5-
 mid.  surface     2.6442E-01  4.3273E-01 -6.7431E-01  2.1886E-01  1.1629E-01 -8.5912E-02
       6-
 mid.  surface     2.1192E-01  4.3712E-01 -4.7295E-01 -2.5570E-02 -1.7814E-01  4.5688E-03
       7-
 mid.  surface     3.0983E-01  4.9819E-01 -8.4818E-01 -7.6933E-04  1.1869E-01  1.3312E-01
       8-
 mid.  surface     3.9262E-01  2.7636E-01 -5.2806E-01 -7.2383E-02 -3.2010E-02  3.3202E-02
       9-
 mid.  surface     4.7868E-01  3.9516E-01 -9.2929E-01 -1.3093E-01 -1.7051E-01 -2.2931E-02
      10-
 mid.  surface     5.1262E-01  3.7433E-01 -7.8444E-01 -7.1597E-02  2.5340E-01  6.7066E-02
      15-
 mid.  surface     4.5093E-01  4.7038E-01 -1.0493E+00 -6.8112E-02  1.6878E-01  2.0523E-01
      16-
 mid.  surface     1.5007E-01  2.8607E-01 -3.5343E-01 -1.4670E-01 -7.1571E-02 -5.7263E-02
      18-
 mid.  surface     4.7922E-01  3.6527E-01 -6.6028E-01 -6.4483E-02  2.0380E-01  8.7262E-02
      40-
 mid.  surface     3.8695E-01  4.3050E-01 -6.8815E-01 -1.1157E-01  2.5435E-01  1.2644E-01
      41-
 mid.  surface     4.2689E-01  5.8575E-01 -9.1629E-01  9.4504E-02 -2.1887E-01  2.9266E-02
      50-
 mid.  surface     3.2467E-01  3.6443E-01 -5.8191E-01 -1.0836E-01 -2.5228E-01 -3.9200E-02
      51-
 mid.  surface     4.5476E-01  3.9546E-01 -1.2485E+00 -1.2220E-01  5.1550E-01 -2.3079E-01
      52-
 mid.  surface     5.6256E-01  4.5247E-01 -1.1202E+00 -1.2243E-01  5.9378E-01  4.2653E-01
      53-
 mid.  surface     2.7392E-01  4.4073E-01 -4.9652E-01 -4.1421E-02 -3.2414E-01 -7.9773E-02
      72-
 mid.  surface     4.4497E-01  4.2940E-01 -1.0004E+00 -9.4478E-02  1.6151E-01  1.8721E-01
      95-
 mid.  surface     3.8607E-01  3.6700E-01 -8.6063E-01 -3.1174E-02  1.2835E-01 -5.7977E-03
     100-
 mid.  surface     4.0599E-01  4.3315E-01 -8.9738E-01 -3.1482E-02 -3.7578E-01 -1.0891E-01
     110-
 mid.  surface     4.1936E-01  6.0215E-01 -1.3017E+00  1.0765E-01 -6.2735E-01 -1.1569E-01
