 LS-DYNA keyword deck by LS-PrePost                                      
                    ls-dyna smp d R14 R14.1.1s_1_ef50e1 date 06/16/2024

{BEGIN LEGEND}
 Entity #        Title
        1                                                                                     
        2                                                                                     
        3                                                                                     
        4                                                                                     
        5                                                                                     
        6                                                                                     
        7                                                                                     
        8                                                                                     
        9                                                                                     
       10                                                                                     
       11                                                                                     
       12                                                                                     
       13                                                                                     
       14                                                                                     
       15                                                                                     
       16                                                                                     
       17                                                                                     
       18                                                                                     
       19                                                                                     
      179                                                                                     
      180                                                                                     
      181                                                                                     
      182                                                                                     
      247                                                                                     
      248                                                                                     
      249                                                                                     
      250                                                                                     
      283                                                                                     
      284                                                                                     
      333                                                                                     
      334                                                                                     
      335                                                                                     
      368                                                                                     
      369                                                                                     
      386                                                                                     
      403                                                                                     
      436                                                                                     
      437                                                                                     
      438                                                                                     
      439                                                                                     
      440                                                                                     
      441                                                                                     
      442                                                                                     
      443                                                                                     
      444                                                                                     
      628                                                                                     
      631                                                                                     
      632                                                                                     
      635                                                                                     
      636                                                                                     
      639                                                                                     
      640                                                                                     
      643                                                                                     
      692                                                                                     
      694                                                                                     
      696                                                                                     
      698                                                                                     
      900                                                                                     
      902                                                                                     
      903                                                                                     
      905                                                                                     
      906                                                                                     
      908                                                                                     
      909                                                                                     
      911                                                                                     
     1012                                                                                     
     1013                                                                                     
     1014                                                                                     
     1015                                                                                     
     1060                                                                                     
     1061                                                                                     
     1062                                                                                     
     1063                                                                                     
{END LEGEND}




 n o d a l   p r i n t   o u t   f o r   t i m e  s t e p       1                              ( at time 0.0000000E+00 )

 nodal point  x-disp     y-disp      z-disp      x-vel       y-vel       z-vel      x-accl      y-accl      z-accl      x-coor      y-coor      z-coor
        1  0.00000E+00 0.00000E+00 0.00000E+00 0.00000E+00 0.00000E+00 0.00000E+00 0.00000E+00 0.00000E+00 0.00000E+00 0.00000E+00 0.00000E+00 0.00000E+00
        2  0.00000E+00 0.00000E+00 0.00000E+00 0.00000E+00 0.00000E+00 0.00000E+00 0.00000E+00 0.00000E+00 0.00000E+00 7.93750E-04 0.00000E+00 0.00000E+00
        3  0.00000E+00 0.00000E+00 0.00000E+00 0.00000E+00 0.00000E+00 0.00000E+00 0.00000E+00 0.00000E+00 0.00000E+00 1.58750E-03 0.00000E+00 0.00000E+00
        4  0.00000E+00 0.00000E+00 0.00000E+00 0.00000E+00 0.00000E+00 0.00000E+00 0.00000E+00 0.00000E+00 0.00000E+00 2.38130E-03 0.00000E+00 0.00000E+00
        5  0.00000E+00 0.00000E+00 0.00000E+00 0.00000E+00 0.00000E+00 0.00000E+00 0.00000E+00 0.00000E+00 0.00000E+00 3.17500E-03 0.00000E+00 0.00000E+00
        6  0.00000E+00 0.00000E+00 0.00000E+00 0.00000E+00 0.00000E+00 0.00000E+00 0.00000E+00 0.00000E+00 0.00000E+00 2.93330E-03 1.21500E-03-1.78000E-18
        7  0.00000E+00 0.00000E+00 0.00000E+00 0.00000E+00 0.00000E+00 0.00000E+00 0.00000E+00 0.00000E+00 0.00000E+00 2.24510E-03 2.24510E-03-1.78000E-18
        8  0.00000E+00 0.00000E+00 0.00000E+00 0.00000E+00 0.00000E+00 0.00000E+00 0.00000E+00 0.00000E+00 0.00000E+00 1.21500E-03 2.93330E-03-1.78000E-18
        9  0.00000E+00 0.00000E+00 0.00000E+00 0.00000E+00 0.00000E+00 0.00000E+00 0.00000E+00 0.00000E+00 0.00000E+00 1.94400E-19 3.17500E-03-1.78000E-18
       10  0.00000E+00 0.00000E+00 0.00000E+00 0.00000E+00 0.00000E+00 0.00000E+00 0.00000E+00 0.00000E+00 0.00000E+00 1.45800E-19 2.38130E-03 0.00000E+00
       11  0.00000E+00 0.00000E+00 0.00000E+00 0.00000E+00 0.00000E+00 0.00000E+00 0.00000E+00 0.00000E+00 0.00000E+00 9.72100E-20 1.58750E-03 0.00000E+00
       12  0.00000E+00 0.00000E+00 0.00000E+00 0.00000E+00 0.00000E+00 0.00000E+00 0.00000E+00 0.00000E+00 0.00000E+00 4.86000E-20 7.93750E-04 0.00000E+00
       13  0.00000E+00 0.00000E+00 0.00000E+00 0.00000E+00 0.00000E+00 0.00000E+00 0.00000E+00 0.00000E+00 0.00000E+00 1.35190E-03 1.30830E-03 0.00000E+00
       14  0.00000E+00 0.00000E+00 0.00000E+00 0.00000E+00 0.00000E+00 0.00000E+00 0.00000E+00 0.00000E+00 0.00000E+00 1.50690E-03 6.69579E-04 0.00000E+00
       15  0.00000E+00 0.00000E+00 0.00000E+00 0.00000E+00 0.00000E+00 0.00000E+00 0.00000E+00 0.00000E+00 0.00000E+00 1.76750E-03 1.73630E-03 0.00000E+00
       16  0.00000E+00 0.00000E+00 0.00000E+00 0.00000E+00 0.00000E+00 0.00000E+00 0.00000E+00 0.00000E+00 0.00000E+00 2.19110E-03 9.20134E-04 0.00000E+00
       17  0.00000E+00 0.00000E+00 0.00000E+00 0.00000E+00 0.00000E+00 0.00000E+00 0.00000E+00 0.00000E+00 0.00000E+00 7.06977E-04 1.48830E-03 0.00000E+00
       18  0.00000E+00 0.00000E+00 0.00000E+00 0.00000E+00 0.00000E+00 0.00000E+00 0.00000E+00 0.00000E+00 0.00000E+00 9.50859E-04 2.16330E-03 0.00000E+00
       19  0.00000E+00 0.00000E+00 0.00000E+00 0.00000E+00 0.00000E+00 0.00000E+00 0.00000E+00 0.00000E+00 0.00000E+00 7.82454E-04 7.53789E-04 0.00000E+00
      179  0.00000E+00 0.00000E+00 0.00000E+00 0.00000E+00 0.00000E+00 0.00000E+00 0.00000E+00 0.00000E+00 0.00000E+00 4.49010E-03 4.49010E-03 2.54000E-02
      180  0.00000E+00 0.00000E+00 0.00000E+00 0.00000E+00 0.00000E+00 0.00000E+00 0.00000E+00 0.00000E+00 0.00000E+00 3.53300E-03 3.47070E-03 2.54000E-02
      181  0.00000E+00 0.00000E+00 0.00000E+00 0.00000E+00 0.00000E+00 0.00000E+00 0.00000E+00 0.00000E+00 0.00000E+00 4.37980E-03 1.83920E-03 2.54000E-02
      182  0.00000E+00 0.00000E+00 0.00000E+00 0.00000E+00 0.00000E+00 0.00000E+00 0.00000E+00 0.00000E+00 0.00000E+00 5.86670E-03 2.42980E-03 2.54000E-02
      247  0.00000E+00 0.00000E+00 0.00000E+00 0.00000E+00 0.00000E+00 0.00000E+00 0.00000E+00 0.00000E+00 0.00000E+00 1.58750E-03 0.00000E+00 2.54000E-02
      248  0.00000E+00 0.00000E+00 0.00000E+00 0.00000E+00 0.00000E+00 0.00000E+00 0.00000E+00 0.00000E+00 0.00000E+00 1.56390E-03 1.50640E-03 2.54000E-02
      249  0.00000E+00 0.00000E+00 0.00000E+00 0.00000E+00 0.00000E+00 0.00000E+00 0.00000E+00 0.00000E+00 0.00000E+00 9.72100E-20 1.58750E-03 2.54000E-02
      250  0.00000E+00 0.00000E+00 0.00000E+00 0.00000E+00 0.00000E+00 0.00000E+00 0.00000E+00 0.00000E+00 0.00000E+00 0.00000E+00 0.00000E+00 2.54000E-02
      283  0.00000E+00 0.00000E+00 0.00000E+00 0.00000E+00 0.00000E+00 0.00000E+00 0.00000E+00 0.00000E+00 0.00000E+00 3.17500E-03 0.00000E+00 2.54000E-02
      284  0.00000E+00 0.00000E+00 0.00000E+00 0.00000E+00 0.00000E+00 0.00000E+00 0.00000E+00 0.00000E+00 0.00000E+00 3.01180E-03 1.33810E-03 2.54000E-02
      333  0.00000E+00 0.00000E+00 0.00000E+00 0.00000E+00 0.00000E+00 0.00000E+00 0.00000E+00 0.00000E+00 0.00000E+00 1.41330E-03 2.97530E-03 2.54000E-02
      334  0.00000E+00 0.00000E+00 0.00000E+00 0.00000E+00 0.00000E+00 0.00000E+00 0.00000E+00 0.00000E+00 0.00000E+00 2.70270E-03 2.61550E-03 2.54000E-02
      335  0.00000E+00 0.00000E+00 0.00000E+00 0.00000E+00 0.00000E+00 0.00000E+00 0.00000E+00 0.00000E+00 0.00000E+00 1.90050E-03 4.32390E-03 2.54000E-02
      368  0.00000E+00 0.00000E+00 0.00000E+00 0.00000E+00 0.00000E+00 0.00000E+00 0.00000E+00 0.00000E+00 0.00000E+00 1.94400E-19 3.17500E-03 2.54000E-02
      369  0.00000E+00 0.00000E+00 0.00000E+00 0.00000E+00 0.00000E+00 0.00000E+00 0.00000E+00 0.00000E+00 0.00000E+00 2.91600E-19 4.76250E-03 2.54000E-02
      386  0.00000E+00 0.00000E+00 0.00000E+00 0.00000E+00 0.00000E+00 0.00000E+00 0.00000E+00 0.00000E+00 0.00000E+00 4.76250E-03 0.00000E+00 2.54000E-02
      403  0.00000E+00 0.00000E+00 0.00000E+00 0.00000E+00 0.00000E+00 0.00000E+00 0.00000E+00 0.00000E+00 0.00000E+00 6.35000E-03 0.00000E+00 2.54000E-02
      436  0.00000E+00 0.00000E+00 0.00000E+00 0.00000E+00 0.00000E+00 0.00000E+00 0.00000E+00 0.00000E+00 0.00000E+00 2.42980E-03 5.86670E-03 2.54000E-02
      437  0.00000E+00 0.00000E+00 0.00000E+00 0.00000E+00 0.00000E+00 0.00000E+00 0.00000E+00 0.00000E+00 0.00000E+00 3.88800E-19 6.35000E-03 2.54000E-02
      438  0.00000E+00 0.00000E+00 0.00000E+00 0.00000E+00 0.00000E+00 0.00000E+00 0.00000E+00 0.00000E+00 0.00000E+00 7.25710E-03 0.00000E+00 2.54000E-02
      439  0.00000E+00 0.00000E+00 0.00000E+00 0.00000E+00 0.00000E+00 0.00000E+00 0.00000E+00 0.00000E+00 0.00000E+00 8.16430E-03 0.00000E+00 2.54000E-02
      440  0.00000E+00 0.00000E+00 0.00000E+00 0.00000E+00 0.00000E+00 0.00000E+00 0.00000E+00 0.00000E+00 0.00000E+00 9.07140E-03 0.00000E+00 2.54000E-02
      441  0.00000E+00 0.00000E+00 0.00000E+00 0.00000E+00 0.00000E+00 0.00000E+00 0.00000E+00 0.00000E+00 0.00000E+00 9.97860E-03 0.00000E+00 2.54000E-02
      442  0.00000E+00 0.00000E+00 0.00000E+00 0.00000E+00 0.00000E+00 0.00000E+00 0.00000E+00 0.00000E+00 0.00000E+00 1.08857E-02 0.00000E+00 2.54000E-02
      443  0.00000E+00 0.00000E+00 0.00000E+00 0.00000E+00 0.00000E+00 0.00000E+00 0.00000E+00 0.00000E+00 0.00000E+00 1.17929E-02 0.00000E+00 2.54000E-02
      444  0.00000E+00 0.00000E+00 0.00000E+00 0.00000E+00 0.00000E+00 0.00000E+00 0.00000E+00 0.00000E+00 0.00000E+00 1.27000E-02 0.00000E+00 2.54000E-02
      628  0.00000E+00 0.00000E+00 0.00000E+00 0.00000E+00 0.00000E+00 0.00000E+00 0.00000E+00 0.00000E+00 0.00000E+00 8.39690E-03 3.43240E-03 2.54000E-02
      631  0.00000E+00 0.00000E+00 0.00000E+00 0.00000E+00 0.00000E+00 0.00000E+00 0.00000E+00 0.00000E+00 0.00000E+00 7.55350E-03 3.09820E-03 2.54000E-02
      632  0.00000E+00 0.00000E+00 0.00000E+00 0.00000E+00 0.00000E+00 0.00000E+00 0.00000E+00 0.00000E+00 0.00000E+00 6.41810E-03 6.41090E-03 2.54000E-02
      635  0.00000E+00 0.00000E+00 0.00000E+00 0.00000E+00 0.00000E+00 0.00000E+00 0.00000E+00 0.00000E+00 0.00000E+00 5.77540E-03 5.77060E-03 2.54000E-02
      636  0.00000E+00 0.00000E+00 0.00000E+00 0.00000E+00 0.00000E+00 0.00000E+00 0.00000E+00 0.00000E+00 0.00000E+00 3.43920E-03 8.39420E-03 2.54000E-02
      639  0.00000E+00 0.00000E+00 0.00000E+00 0.00000E+00 0.00000E+00 0.00000E+00 0.00000E+00 0.00000E+00 0.00000E+00 3.10270E-03 7.55170E-03 2.54000E-02
      640  0.00000E+00 0.00000E+00 0.00000E+00 0.00000E+00 0.00000E+00 0.00000E+00 0.00000E+00 0.00000E+00 0.00000E+00 5.55500E-19 9.07140E-03 2.54000E-02
      643  0.00000E+00 0.00000E+00 0.00000E+00 0.00000E+00 0.00000E+00 0.00000E+00 0.00000E+00 0.00000E+00 0.00000E+00 4.99900E-19 8.16430E-03 2.54000E-02
      692  0.00000E+00 0.00000E+00 0.00000E+00 0.00000E+00 0.00000E+00 0.00000E+00 0.00000E+00 0.00000E+00 0.00000E+00 9.24030E-03 3.76660E-03 2.54000E-02
      694  0.00000E+00 0.00000E+00 0.00000E+00 0.00000E+00 0.00000E+00 0.00000E+00 0.00000E+00 0.00000E+00 0.00000E+00 7.06070E-03 7.05110E-03 2.54000E-02
      696  0.00000E+00 0.00000E+00 0.00000E+00 0.00000E+00 0.00000E+00 0.00000E+00 0.00000E+00 0.00000E+00 0.00000E+00 3.77570E-03 9.23660E-03 2.54000E-02
      698  0.00000E+00 0.00000E+00 0.00000E+00 0.00000E+00 0.00000E+00 0.00000E+00 0.00000E+00 0.00000E+00 0.00000E+00 6.11000E-19 9.97860E-03 2.54000E-02
      900  0.00000E+00 0.00000E+00 0.00000E+00 0.00000E+00 0.00000E+00 0.00000E+00 0.00000E+00 0.00000E+00 0.00000E+00 1.09271E-02 4.43500E-03 2.54000E-02
      902  0.00000E+00 0.00000E+00 0.00000E+00 0.00000E+00 0.00000E+00 0.00000E+00 0.00000E+00 0.00000E+00 0.00000E+00 1.00837E-02 4.10080E-03 2.54000E-02
      903  0.00000E+00 0.00000E+00 0.00000E+00 0.00000E+00 0.00000E+00 0.00000E+00 0.00000E+00 0.00000E+00 0.00000E+00 8.34610E-03 8.33160E-03 2.54000E-02
      905  0.00000E+00 0.00000E+00 0.00000E+00 0.00000E+00 0.00000E+00 0.00000E+00 0.00000E+00 0.00000E+00 0.00000E+00 7.70340E-03 7.69130E-03 2.54000E-02
      906  0.00000E+00 0.00000E+00 0.00000E+00 0.00000E+00 0.00000E+00 0.00000E+00 0.00000E+00 0.00000E+00 0.00000E+00 4.44870E-03 1.09215E-02 2.54000E-02
      908  0.00000E+00 0.00000E+00 0.00000E+00 0.00000E+00 0.00000E+00 0.00000E+00 0.00000E+00 0.00000E+00 0.00000E+00 4.11220E-03 1.00791E-02 2.54000E-02
      909  0.00000E+00 0.00000E+00 0.00000E+00 0.00000E+00 0.00000E+00 0.00000E+00 0.00000E+00 0.00000E+00 0.00000E+00 7.22100E-19 1.17929E-02 2.54000E-02
      911  0.00000E+00 0.00000E+00 0.00000E+00 0.00000E+00 0.00000E+00 0.00000E+00 0.00000E+00 0.00000E+00 0.00000E+00 6.66600E-19 1.08857E-02 2.54000E-02
     1012  0.00000E+00 0.00000E+00 0.00000E+00 0.00000E+00 0.00000E+00 0.00000E+00 0.00000E+00 0.00000E+00 0.00000E+00 6.71010E-03 2.76400E-03 2.54000E-02
     1013  0.00000E+00 0.00000E+00 0.00000E+00 0.00000E+00 0.00000E+00 0.00000E+00 0.00000E+00 0.00000E+00 0.00000E+00 5.13280E-03 5.13040E-03 2.54000E-02
     1014  0.00000E+00 0.00000E+00 0.00000E+00 0.00000E+00 0.00000E+00 0.00000E+00 0.00000E+00 0.00000E+00 0.00000E+00 2.76620E-03 6.70920E-03 2.54000E-02
     1015  0.00000E+00 0.00000E+00 0.00000E+00 0.00000E+00 0.00000E+00 0.00000E+00 0.00000E+00 0.00000E+00 0.00000E+00 4.44400E-19 7.25710E-03 2.54000E-02
     1060  0.00000E+00 0.00000E+00 0.00000E+00 0.00000E+00 0.00000E+00 0.00000E+00 0.00000E+00 0.00000E+00 0.00000E+00 1.17705E-02 4.76920E-03 2.54000E-02
     1061  0.00000E+00 0.00000E+00 0.00000E+00 0.00000E+00 0.00000E+00 0.00000E+00 0.00000E+00 0.00000E+00 0.00000E+00 8.98870E-03 8.97180E-03 2.54000E-02
     1062  0.00000E+00 0.00000E+00 0.00000E+00 0.00000E+00 0.00000E+00 0.00000E+00 0.00000E+00 0.00000E+00 0.00000E+00 4.78520E-03 1.17640E-02 2.54000E-02
     1063  0.00000E+00 0.00000E+00 0.00000E+00 0.00000E+00 0.00000E+00 0.00000E+00 0.00000E+00 0.00000E+00 0.00000E+00 7.77700E-19 1.27000E-02 2.54000E-02



 n o d a l   p r i n t   o u t   f o r   t i m e  s t e p      10                              ( at time 1.2924466E+00 )

 nodal point  x-disp     y-disp      z-disp      x-vel       y-vel       z-vel      x-accl      y-accl      z-accl      x-coor      y-coor      z-coor
        1  0.00000E+00 0.00000E+00 0.00000E+00 0.00000E+00 0.00000E+00 0.00000E+00 0.00000E+00 0.00000E+00 0.00000E+00 0.00000E+00 0.00000E+00 0.00000E+00
        2  6.71645E-08 0.00000E+00 0.00000E+00 0.00000E+00 0.00000E+00 0.00000E+00 0.00000E+00 0.00000E+00 0.00000E+00 7.93817E-04 0.00000E+00 0.00000E+00
        3  1.95527E-07 0.00000E+00 0.00000E+00 0.00000E+00 0.00000E+00 0.00000E+00 0.00000E+00 0.00000E+00 0.00000E+00 1.58770E-03 0.00000E+00 0.00000E+00
        4  4.75717E-07 0.00000E+00 0.00000E+00 0.00000E+00 0.00000E+00 0.00000E+00 0.00000E+00 0.00000E+00 0.00000E+00 2.38178E-03 0.00000E+00 0.00000E+00
        5  1.29076E-06 0.00000E+00 0.00000E+00 0.00000E+00 0.00000E+00 0.00000E+00 0.00000E+00 0.00000E+00 0.00000E+00 3.17629E-03 0.00000E+00 0.00000E+00
        6  1.19264E-06 7.31108E-07 0.00000E+00 0.00000E+00 0.00000E+00 0.00000E+00 0.00000E+00 0.00000E+00 0.00000E+00 2.93449E-03 1.21573E-03-1.78000E-18
        7  9.08339E-07 1.24352E-06 0.00000E+00 0.00000E+00 0.00000E+00 0.00000E+00 0.00000E+00 0.00000E+00 0.00000E+00 2.24601E-03 2.24634E-03-1.78000E-18
        8  4.75929E-07 1.46240E-06 0.00000E+00 0.00000E+00 0.00000E+00 0.00000E+00 0.00000E+00 0.00000E+00 0.00000E+00 1.21548E-03 2.93476E-03-1.78000E-18
        9  0.00000E+00 1.45447E-06 0.00000E+00 0.00000E+00 0.00000E+00 0.00000E+00 0.00000E+00 0.00000E+00 0.00000E+00 1.94400E-19 3.17645E-03-1.78000E-18
       10  0.00000E+00 4.86589E-07 0.00000E+00 0.00000E+00 0.00000E+00 0.00000E+00 0.00000E+00 0.00000E+00 0.00000E+00 1.45800E-19 2.38179E-03 0.00000E+00
       11  0.00000E+00 1.30642E-07 0.00000E+00 0.00000E+00 0.00000E+00 0.00000E+00 0.00000E+00 0.00000E+00 0.00000E+00 9.72100E-20 1.58763E-03 0.00000E+00
       12  0.00000E+00 2.95623E-08 0.00000E+00 0.00000E+00 0.00000E+00 0.00000E+00 0.00000E+00 0.00000E+00 0.00000E+00 4.86000E-20 7.93780E-04 0.00000E+00
       13  3.34652E-07 2.62289E-07 0.00000E+00 0.00000E+00 0.00000E+00 0.00000E+00 0.00000E+00 0.00000E+00 0.00000E+00 1.35223E-03 1.30856E-03 0.00000E+00
       14  2.39666E-07 1.19297E-07 0.00000E+00 0.00000E+00 0.00000E+00 0.00000E+00 0.00000E+00 0.00000E+00 0.00000E+00 1.50714E-03 6.69698E-04 0.00000E+00
       15  5.87627E-07 4.35505E-07 0.00000E+00 0.00000E+00 0.00000E+00 0.00000E+00 0.00000E+00 0.00000E+00 0.00000E+00 1.76809E-03 1.73674E-03 0.00000E+00
       16  5.31835E-07 1.68028E-07 0.00000E+00 0.00000E+00 0.00000E+00 0.00000E+00 0.00000E+00 0.00000E+00 0.00000E+00 2.19163E-03 9.20302E-04 0.00000E+00
       17  1.53704E-07 2.47508E-07 0.00000E+00 0.00000E+00 0.00000E+00 0.00000E+00 0.00000E+00 0.00000E+00 0.00000E+00 7.07131E-04 1.48855E-03 0.00000E+00
       18  3.19549E-07 5.29272E-07 0.00000E+00 0.00000E+00 0.00000E+00 0.00000E+00 0.00000E+00 0.00000E+00 0.00000E+00 9.51178E-04 2.16383E-03 0.00000E+00
       19  1.03472E-07 1.01008E-07 0.00000E+00 0.00000E+00 0.00000E+00 0.00000E+00 0.00000E+00 0.00000E+00 0.00000E+00 7.82558E-04 7.53890E-04 0.00000E+00
      179  2.39156E-07 2.92928E-07-1.29245E-05 0.00000E+00 0.00000E+00 0.00000E+00 0.00000E+00 0.00000E+00 0.00000E+00 4.49034E-03 4.49039E-03 2.53871E-02
      180  1.86008E-07 2.12176E-07-1.29245E-05 0.00000E+00 0.00000E+00 0.00000E+00 0.00000E+00 0.00000E+00 0.00000E+00 3.53319E-03 3.47091E-03 2.53871E-02
      181  1.85321E-07 1.09334E-07-1.29245E-05 0.00000E+00 0.00000E+00 0.00000E+00 0.00000E+00 0.00000E+00 0.00000E+00 4.37999E-03 1.83931E-03 2.53871E-02
      182  3.02324E-07 1.61661E-07-1.29245E-05 0.00000E+00 0.00000E+00 0.00000E+00 0.00000E+00 0.00000E+00 0.00000E+00 5.86700E-03 2.42996E-03 2.53871E-02
      247  7.03774E-08 0.00000E+00-1.29245E-05 0.00000E+00 0.00000E+00 0.00000E+00 0.00000E+00 0.00000E+00 0.00000E+00 1.58757E-03 0.00000E+00 2.53871E-02
      248  8.89351E-08 9.22250E-08-1.29245E-05 0.00000E+00 0.00000E+00 0.00000E+00 0.00000E+00 0.00000E+00 0.00000E+00 1.56399E-03 1.50649E-03 2.53871E-02
      249  0.00000E+00 9.73706E-08-1.29245E-05 0.00000E+00 0.00000E+00 0.00000E+00 0.00000E+00 0.00000E+00 0.00000E+00 9.72100E-20 1.58760E-03 2.53871E-02
      250  0.00000E+00 0.00000E+00-1.29245E-05 0.00000E+00 0.00000E+00 0.00000E+00 0.00000E+00 0.00000E+00 0.00000E+00 0.00000E+00 0.00000E+00 2.53871E-02
      283  1.45164E-07 0.00000E+00-1.29245E-05 0.00000E+00 0.00000E+00 0.00000E+00 0.00000E+00 0.00000E+00 0.00000E+00 3.17515E-03 0.00000E+00 2.53871E-02
      284  1.31922E-07 4.18624E-08-1.29245E-05 0.00000E+00 0.00000E+00 0.00000E+00 0.00000E+00 0.00000E+00 0.00000E+00 3.01193E-03 1.33814E-03 2.53871E-02
      333  5.30907E-08 1.47562E-07-1.29245E-05 0.00000E+00 0.00000E+00 0.00000E+00 0.00000E+00 0.00000E+00 0.00000E+00 1.41335E-03 2.97545E-03 2.53871E-02
      334  1.30256E-07 1.34748E-07-1.29245E-05 0.00000E+00 0.00000E+00 0.00000E+00 0.00000E+00 0.00000E+00 0.00000E+00 2.70283E-03 2.61563E-03 2.53871E-02
      335  9.43343E-08 2.14971E-07-1.29245E-05 0.00000E+00 0.00000E+00 0.00000E+00 0.00000E+00 0.00000E+00 0.00000E+00 1.90059E-03 4.32411E-03 2.53871E-02
      368  0.00000E+00 1.90977E-07-1.29245E-05 0.00000E+00 0.00000E+00 0.00000E+00 0.00000E+00 0.00000E+00 0.00000E+00 1.94400E-19 3.17519E-03 2.53871E-02
      369  0.00000E+00 3.07772E-07-1.29245E-05 0.00000E+00 0.00000E+00 0.00000E+00 0.00000E+00 0.00000E+00 0.00000E+00 2.91600E-19 4.76281E-03 2.53871E-02
      386  2.31616E-07 0.00000E+00-1.29245E-05 0.00000E+00 0.00000E+00 0.00000E+00 0.00000E+00 0.00000E+00 0.00000E+00 4.76273E-03 0.00000E+00 2.53871E-02
      403  3.29358E-07 0.00000E+00-1.29245E-05 0.00000E+00 0.00000E+00 0.00000E+00 0.00000E+00 0.00000E+00 0.00000E+00 6.35033E-03 0.00000E+00 2.53871E-02
      436  1.26543E-07 3.81759E-07-1.29245E-05 0.00000E+00 0.00000E+00 0.00000E+00 0.00000E+00 0.00000E+00 0.00000E+00 2.42993E-03 5.86708E-03 2.53871E-02
      437  0.00000E+00 4.48589E-07-1.29245E-05 0.00000E+00 0.00000E+00 0.00000E+00 0.00000E+00 0.00000E+00 0.00000E+00 3.88800E-19 6.35045E-03 2.53871E-02
      438  3.42816E-07 0.00000E+00-1.29245E-05 0.00000E+00 0.00000E+00 0.00000E+00 0.00000E+00 0.00000E+00 0.00000E+00 7.25744E-03 0.00000E+00 2.53871E-02
      439  3.77680E-07 0.00000E+00-1.29245E-05 0.00000E+00 0.00000E+00 0.00000E+00 0.00000E+00 0.00000E+00 0.00000E+00 8.16468E-03 0.00000E+00 2.53871E-02
      440  4.13810E-07 0.00000E+00-1.29245E-05 0.00000E+00 0.00000E+00 0.00000E+00 0.00000E+00 0.00000E+00 0.00000E+00 9.07181E-03 0.00000E+00 2.53871E-02
      441  4.49161E-07 0.00000E+00-1.29245E-05 0.00000E+00 0.00000E+00 0.00000E+00 0.00000E+00 0.00000E+00 0.00000E+00 9.97905E-03 0.00000E+00 2.53871E-02
      442  4.83137E-07 0.00000E+00-1.29245E-05 0.00000E+00 0.00000E+00 0.00000E+00 0.00000E+00 0.00000E+00 0.00000E+00 1.08862E-02 0.00000E+00 2.53871E-02
      443  5.16447E-07 0.00000E+00-1.29245E-05 0.00000E+00 0.00000E+00 0.00000E+00 0.00000E+00 0.00000E+00 0.00000E+00 1.17934E-02 0.00000E+00 2.53871E-02
      444  5.53216E-07 0.00000E+00-1.29245E-05 0.00000E+00 0.00000E+00 0.00000E+00 0.00000E+00 0.00000E+00 0.00000E+00 1.27006E-02 0.00000E+00 2.53871E-02
      628  3.92824E-07 2.03436E-07-1.29245E-05 0.00000E+00 0.00000E+00 0.00000E+00 0.00000E+00 0.00000E+00 0.00000E+00 8.39729E-03 3.43260E-03 2.53871E-02
      631  3.57935E-07 1.87157E-07-1.29245E-05 0.00000E+00 0.00000E+00 0.00000E+00 0.00000E+00 0.00000E+00 0.00000E+00 7.55386E-03 3.09839E-03 2.53871E-02
      632  3.14482E-07 3.73481E-07-1.29245E-05 0.00000E+00 0.00000E+00 0.00000E+00 0.00000E+00 0.00000E+00 0.00000E+00 6.41841E-03 6.41127E-03 2.53871E-02
      635  2.86002E-07 3.42691E-07-1.29245E-05 0.00000E+00 0.00000E+00 0.00000E+00 0.00000E+00 0.00000E+00 0.00000E+00 5.77569E-03 5.77094E-03 2.53871E-02
      636  1.70234E-07 4.76657E-07-1.29245E-05 0.00000E+00 0.00000E+00 0.00000E+00 0.00000E+00 0.00000E+00 0.00000E+00 3.43937E-03 8.39468E-03 2.53871E-02
      639  1.53942E-07 4.39211E-07-1.29245E-05 0.00000E+00 0.00000E+00 0.00000E+00 0.00000E+00 0.00000E+00 0.00000E+00 3.10285E-03 7.55214E-03 2.53871E-02
      640  0.00000E+00 5.11652E-07-1.29245E-05 0.00000E+00 0.00000E+00 0.00000E+00 0.00000E+00 0.00000E+00 0.00000E+00 5.55500E-19 9.07191E-03 2.53871E-02
      643  0.00000E+00 4.74567E-07-1.29245E-05 0.00000E+00 0.00000E+00 0.00000E+00 0.00000E+00 0.00000E+00 0.00000E+00 4.99900E-19 8.16477E-03 2.53871E-02
      692  4.27867E-07 2.18735E-07-1.29245E-05 0.00000E+00 0.00000E+00 0.00000E+00 0.00000E+00 0.00000E+00 0.00000E+00 9.24073E-03 3.76682E-03 2.53871E-02
      694  3.43938E-07 4.03927E-07-1.29245E-05 0.00000E+00 0.00000E+00 0.00000E+00 0.00000E+00 0.00000E+00 0.00000E+00 7.06104E-03 7.05150E-03 2.53871E-02
      696  1.87081E-07 5.14342E-07-1.29245E-05 0.00000E+00 0.00000E+00 0.00000E+00 0.00000E+00 0.00000E+00 0.00000E+00 3.77589E-03 9.23711E-03 2.53871E-02
      698  0.00000E+00 5.49932E-07-1.29245E-05 0.00000E+00 0.00000E+00 0.00000E+00 0.00000E+00 0.00000E+00 0.00000E+00 6.11000E-19 9.97915E-03 2.53871E-02
      900  4.97770E-07 2.45835E-07-1.29245E-05 0.00000E+00 0.00000E+00 0.00000E+00 0.00000E+00 0.00000E+00 0.00000E+00 1.09276E-02 4.43525E-03 2.53871E-02
      902  4.62849E-07 2.32772E-07-1.29245E-05 0.00000E+00 0.00000E+00 0.00000E+00 0.00000E+00 0.00000E+00 0.00000E+00 1.00842E-02 4.10103E-03 2.53871E-02
      903  4.05544E-07 4.64558E-07-1.29245E-05 0.00000E+00 0.00000E+00 0.00000E+00 0.00000E+00 0.00000E+00 0.00000E+00 8.34651E-03 8.33206E-03 2.53871E-02
      905  3.74336E-07 4.34001E-07-1.29245E-05 0.00000E+00 0.00000E+00 0.00000E+00 0.00000E+00 0.00000E+00 0.00000E+00 7.70377E-03 7.69173E-03 2.53871E-02
      906  2.20794E-07 5.90927E-07-1.29245E-05 0.00000E+00 0.00000E+00 0.00000E+00 0.00000E+00 0.00000E+00 0.00000E+00 4.44892E-03 1.09221E-02 2.53871E-02
      908  2.03889E-07 5.51424E-07-1.29245E-05 0.00000E+00 0.00000E+00 0.00000E+00 0.00000E+00 0.00000E+00 0.00000E+00 4.11240E-03 1.00797E-02 2.53871E-02
      909  0.00000E+00 6.29132E-07-1.29245E-05 0.00000E+00 0.00000E+00 0.00000E+00 0.00000E+00 0.00000E+00 0.00000E+00 7.22100E-19 1.17935E-02 2.53871E-02
      911  0.00000E+00 5.86876E-07-1.29245E-05 0.00000E+00 0.00000E+00 0.00000E+00 0.00000E+00 0.00000E+00 0.00000E+00 6.66600E-19 1.08863E-02 2.53871E-02
     1012  3.24584E-07 1.72302E-07-1.29245E-05 0.00000E+00 0.00000E+00 0.00000E+00 0.00000E+00 0.00000E+00 0.00000E+00 6.71042E-03 2.76417E-03 2.53871E-02
     1013  2.58623E-07 3.14773E-07-1.29245E-05 0.00000E+00 0.00000E+00 0.00000E+00 0.00000E+00 0.00000E+00 0.00000E+00 5.13306E-03 5.13071E-03 2.53871E-02
     1014  1.38568E-07 4.07492E-07-1.29245E-05 0.00000E+00 0.00000E+00 0.00000E+00 0.00000E+00 0.00000E+00 0.00000E+00 2.76634E-03 6.70961E-03 2.53871E-02
     1015  0.00000E+00 4.48976E-07-1.29245E-05 0.00000E+00 0.00000E+00 0.00000E+00 0.00000E+00 0.00000E+00 0.00000E+00 4.44400E-19 7.25755E-03 2.53871E-02
     1060  5.18083E-07 2.56879E-07-1.29245E-05 0.00000E+00 0.00000E+00 0.00000E+00 0.00000E+00 0.00000E+00 0.00000E+00 1.17710E-02 4.76946E-03 2.53871E-02
     1061  4.09877E-07 4.84469E-07-1.29245E-05 0.00000E+00 0.00000E+00 0.00000E+00 0.00000E+00 0.00000E+00 0.00000E+00 8.98911E-03 8.97228E-03 2.53871E-02
     1062  2.35379E-07 6.62674E-07-1.29245E-05 0.00000E+00 0.00000E+00 0.00000E+00 0.00000E+00 0.00000E+00 0.00000E+00 4.78544E-03 1.17647E-02 2.53871E-02
     1063  0.00000E+00 7.38668E-07-1.29245E-05 0.00000E+00 0.00000E+00 0.00000E+00 0.00000E+00 0.00000E+00 0.00000E+00 7.77700E-19 1.27007E-02 2.53871E-02



 n o d a l   p r i n t   o u t   f o r   t i m e  s t e p      14                              ( at time 2.5483898E+00 )

 nodal point  x-disp     y-disp      z-disp      x-vel       y-vel       z-vel      x-accl      y-accl      z-accl      x-coor      y-coor      z-coor
        1  0.00000E+00 0.00000E+00 0.00000E+00 0.00000E+00 0.00000E+00 0.00000E+00 0.00000E+00 0.00000E+00 0.00000E+00 0.00000E+00 0.00000E+00 0.00000E+00
        2  1.09988E-07 0.00000E+00 0.00000E+00 0.00000E+00 0.00000E+00 0.00000E+00 0.00000E+00 0.00000E+00 0.00000E+00 7.93860E-04 0.00000E+00 0.00000E+00
        3  3.53248E-07 0.00000E+00 0.00000E+00 0.00000E+00 0.00000E+00 0.00000E+00 0.00000E+00 0.00000E+00 0.00000E+00 1.58785E-03 0.00000E+00 0.00000E+00
        4  9.89714E-07 0.00000E+00 0.00000E+00 0.00000E+00 0.00000E+00 0.00000E+00 0.00000E+00 0.00000E+00 0.00000E+00 2.38229E-03 0.00000E+00 0.00000E+00
        5  3.00285E-06 0.00000E+00 0.00000E+00 0.00000E+00 0.00000E+00 0.00000E+00 0.00000E+00 0.00000E+00 0.00000E+00 3.17800E-03 0.00000E+00 0.00000E+00
        6  2.82987E-06 1.68539E-06 0.00000E+00 0.00000E+00 0.00000E+00 0.00000E+00 0.00000E+00 0.00000E+00 0.00000E+00 2.93613E-03 1.21669E-03-1.78000E-18
        7  2.19669E-06 2.88750E-06 0.00000E+00 0.00000E+00 0.00000E+00 0.00000E+00 0.00000E+00 0.00000E+00 0.00000E+00 2.24730E-03 2.24799E-03-1.78000E-18
        8  1.16991E-06 3.38254E-06 0.00000E+00 0.00000E+00 0.00000E+00 0.00000E+00 0.00000E+00 0.00000E+00 0.00000E+00 1.21617E-03 2.93668E-03-1.78000E-18
        9  0.00000E+00 3.31808E-06 0.00000E+00 0.00000E+00 0.00000E+00 0.00000E+00 0.00000E+00 0.00000E+00 0.00000E+00 1.94400E-19 3.17832E-03-1.78000E-18
       10  0.00000E+00 1.07237E-06 0.00000E+00 0.00000E+00 0.00000E+00 0.00000E+00 0.00000E+00 0.00000E+00 0.00000E+00 1.45800E-19 2.38237E-03 0.00000E+00
       11  0.00000E+00 2.62689E-07 0.00000E+00 0.00000E+00 0.00000E+00 0.00000E+00 0.00000E+00 0.00000E+00 0.00000E+00 9.72100E-20 1.58776E-03 0.00000E+00
       12  0.00000E+00 3.89724E-08 0.00000E+00 0.00000E+00 0.00000E+00 0.00000E+00 0.00000E+00 0.00000E+00 0.00000E+00 4.86000E-20 7.93789E-04 0.00000E+00
       13  7.29937E-07 5.93763E-07 0.00000E+00 0.00000E+00 0.00000E+00 0.00000E+00 0.00000E+00 0.00000E+00 0.00000E+00 1.35263E-03 1.30889E-03 0.00000E+00
       14  5.08593E-07 2.71304E-07 0.00000E+00 0.00000E+00 0.00000E+00 0.00000E+00 0.00000E+00 0.00000E+00 0.00000E+00 1.50741E-03 6.69850E-04 0.00000E+00
       15  1.26205E-06 1.03903E-06 0.00000E+00 0.00000E+00 0.00000E+00 0.00000E+00 0.00000E+00 0.00000E+00 0.00000E+00 1.76876E-03 1.73734E-03 0.00000E+00
       16  1.16534E-06 4.25969E-07 0.00000E+00 0.00000E+00 0.00000E+00 0.00000E+00 0.00000E+00 0.00000E+00 0.00000E+00 2.19227E-03 9.20559E-04 0.00000E+00
       17  3.41817E-07 5.61293E-07 0.00000E+00 0.00000E+00 0.00000E+00 0.00000E+00 0.00000E+00 0.00000E+00 0.00000E+00 7.07319E-04 1.48886E-03 0.00000E+00
       18  6.76238E-07 1.22550E-06 0.00000E+00 0.00000E+00 0.00000E+00 0.00000E+00 0.00000E+00 0.00000E+00 0.00000E+00 9.51535E-04 2.16453E-03 0.00000E+00
       19  2.16026E-07 2.27403E-07 0.00000E+00 0.00000E+00 0.00000E+00 0.00000E+00 0.00000E+00 0.00000E+00 0.00000E+00 7.82670E-04 7.54016E-04 0.00000E+00
      179  4.51488E-07 5.89831E-07-2.54839E-05 0.00000E+00 0.00000E+00 0.00000E+00 0.00000E+00 0.00000E+00 0.00000E+00 4.49055E-03 4.49069E-03 2.53745E-02
      180  3.49515E-07 4.29088E-07-2.54839E-05 0.00000E+00 0.00000E+00 0.00000E+00 0.00000E+00 0.00000E+00 0.00000E+00 3.53335E-03 3.47113E-03 2.53745E-02
      181  3.34910E-07 2.26659E-07-2.54839E-05 0.00000E+00 0.00000E+00 0.00000E+00 0.00000E+00 0.00000E+00 0.00000E+00 4.38013E-03 1.83943E-03 2.53745E-02
      182  5.58264E-07 3.31986E-07-2.54839E-05 0.00000E+00 0.00000E+00 0.00000E+00 0.00000E+00 0.00000E+00 0.00000E+00 5.86726E-03 2.43013E-03 2.53745E-02
      247  1.21411E-07 0.00000E+00-2.54839E-05 0.00000E+00 0.00000E+00 0.00000E+00 0.00000E+00 0.00000E+00 0.00000E+00 1.58762E-03 0.00000E+00 2.53745E-02
      248  1.61143E-07 1.85049E-07-2.54839E-05 0.00000E+00 0.00000E+00 0.00000E+00 0.00000E+00 0.00000E+00 0.00000E+00 1.56406E-03 1.50659E-03 2.53745E-02
      249  0.00000E+00 2.02352E-07-2.54839E-05 0.00000E+00 0.00000E+00 0.00000E+00 0.00000E+00 0.00000E+00 0.00000E+00 9.72100E-20 1.58770E-03 2.53745E-02
      250  0.00000E+00 0.00000E+00-2.54839E-05 0.00000E+00 0.00000E+00 0.00000E+00 0.00000E+00 0.00000E+00 0.00000E+00 0.00000E+00 0.00000E+00 2.53745E-02
      283  2.60543E-07 0.00000E+00-2.54839E-05 0.00000E+00 0.00000E+00 0.00000E+00 0.00000E+00 0.00000E+00 0.00000E+00 3.17526E-03 0.00000E+00 2.53745E-02
      284  2.35956E-07 8.94776E-08-2.54839E-05 0.00000E+00 0.00000E+00 0.00000E+00 0.00000E+00 0.00000E+00 0.00000E+00 3.01204E-03 1.33819E-03 2.53745E-02
      333  9.52799E-08 2.86344E-07-2.54839E-05 0.00000E+00 0.00000E+00 0.00000E+00 0.00000E+00 0.00000E+00 0.00000E+00 1.41340E-03 2.97559E-03 2.53745E-02
      334  2.38585E-07 2.69358E-07-2.54839E-05 0.00000E+00 0.00000E+00 0.00000E+00 0.00000E+00 0.00000E+00 0.00000E+00 2.70294E-03 2.61577E-03 2.53745E-02
      335  1.73518E-07 4.18753E-07-2.54839E-05 0.00000E+00 0.00000E+00 0.00000E+00 0.00000E+00 0.00000E+00 0.00000E+00 1.90067E-03 4.32432E-03 2.53745E-02
      368  0.00000E+00 3.86336E-07-2.54839E-05 0.00000E+00 0.00000E+00 0.00000E+00 0.00000E+00 0.00000E+00 0.00000E+00 1.94400E-19 3.17539E-03 2.53745E-02
      369  0.00000E+00 6.18044E-07-2.54839E-05 0.00000E+00 0.00000E+00 0.00000E+00 0.00000E+00 0.00000E+00 0.00000E+00 2.91600E-19 4.76312E-03 2.53745E-02
      386  4.26045E-07 0.00000E+00-2.54839E-05 0.00000E+00 0.00000E+00 0.00000E+00 0.00000E+00 0.00000E+00 0.00000E+00 4.76293E-03 0.00000E+00 2.53745E-02
      403  6.10818E-07 0.00000E+00-2.54839E-05 0.00000E+00 0.00000E+00 0.00000E+00 0.00000E+00 0.00000E+00 0.00000E+00 6.35061E-03 0.00000E+00 2.53745E-02
      436  2.36667E-07 7.54763E-07-2.54839E-05 0.00000E+00 0.00000E+00 0.00000E+00 0.00000E+00 0.00000E+00 0.00000E+00 2.43004E-03 5.86745E-03 2.53745E-02
      437  0.00000E+00 9.08437E-07-2.54839E-05 0.00000E+00 0.00000E+00 0.00000E+00 0.00000E+00 0.00000E+00 0.00000E+00 3.88800E-19 6.35091E-03 2.53745E-02
      438  6.27510E-07 0.00000E+00-2.54839E-05 0.00000E+00 0.00000E+00 0.00000E+00 0.00000E+00 0.00000E+00 0.00000E+00 7.25773E-03 0.00000E+00 2.53745E-02
      439  6.91530E-07 0.00000E+00-2.54839E-05 0.00000E+00 0.00000E+00 0.00000E+00 0.00000E+00 0.00000E+00 0.00000E+00 8.16499E-03 0.00000E+00 2.53745E-02
      440  7.58327E-07 0.00000E+00-2.54839E-05 0.00000E+00 0.00000E+00 0.00000E+00 0.00000E+00 0.00000E+00 0.00000E+00 9.07216E-03 0.00000E+00 2.53745E-02
      441  8.23523E-07 0.00000E+00-2.54839E-05 0.00000E+00 0.00000E+00 0.00000E+00 0.00000E+00 0.00000E+00 0.00000E+00 9.97942E-03 0.00000E+00 2.53745E-02
      442  8.85787E-07 0.00000E+00-2.54839E-05 0.00000E+00 0.00000E+00 0.00000E+00 0.00000E+00 0.00000E+00 0.00000E+00 1.08866E-02 0.00000E+00 2.53745E-02
      443  9.46027E-07 0.00000E+00-2.54839E-05 0.00000E+00 0.00000E+00 0.00000E+00 0.00000E+00 0.00000E+00 0.00000E+00 1.17938E-02 0.00000E+00 2.53745E-02
      444  1.00712E-06 0.00000E+00-2.54839E-05 0.00000E+00 0.00000E+00 0.00000E+00 0.00000E+00 0.00000E+00 0.00000E+00 1.27010E-02 0.00000E+00 2.53745E-02
      628  7.29276E-07 4.18865E-07-2.54839E-05 0.00000E+00 0.00000E+00 0.00000E+00 0.00000E+00 0.00000E+00 0.00000E+00 8.39763E-03 3.43282E-03 2.53745E-02
      631  6.63626E-07 3.86171E-07-2.54839E-05 0.00000E+00 0.00000E+00 0.00000E+00 0.00000E+00 0.00000E+00 0.00000E+00 7.55416E-03 3.09859E-03 2.53745E-02
      632  5.95528E-07 7.44562E-07-2.54839E-05 0.00000E+00 0.00000E+00 0.00000E+00 0.00000E+00 0.00000E+00 0.00000E+00 6.41870E-03 6.41164E-03 2.53745E-02
      635  5.40507E-07 6.86094E-07-2.54839E-05 0.00000E+00 0.00000E+00 0.00000E+00 0.00000E+00 0.00000E+00 0.00000E+00 5.77594E-03 5.77129E-03 2.53745E-02
      636  3.25919E-07 9.38903E-07-2.54839E-05 0.00000E+00 0.00000E+00 0.00000E+00 0.00000E+00 0.00000E+00 0.00000E+00 3.43953E-03 8.39514E-03 2.53745E-02
      639  2.93057E-07 8.68170E-07-2.54839E-05 0.00000E+00 0.00000E+00 0.00000E+00 0.00000E+00 0.00000E+00 0.00000E+00 3.10299E-03 7.55257E-03 2.53745E-02
      640  0.00000E+00 1.00639E-06-2.54839E-05 0.00000E+00 0.00000E+00 0.00000E+00 0.00000E+00 0.00000E+00 0.00000E+00 5.55500E-19 9.07241E-03 2.53745E-02
      643  0.00000E+00 9.40355E-07-2.54839E-05 0.00000E+00 0.00000E+00 0.00000E+00 0.00000E+00 0.00000E+00 0.00000E+00 4.99900E-19 8.16524E-03 2.53745E-02
      692  7.95513E-07 4.49120E-07-2.54839E-05 0.00000E+00 0.00000E+00 0.00000E+00 0.00000E+00 0.00000E+00 0.00000E+00 9.24110E-03 3.76705E-03 2.53745E-02
      694  6.52976E-07 8.02455E-07-2.54839E-05 0.00000E+00 0.00000E+00 0.00000E+00 0.00000E+00 0.00000E+00 0.00000E+00 7.06135E-03 7.05190E-03 2.53745E-02
      696  3.59714E-07 1.01030E-06-2.54839E-05 0.00000E+00 0.00000E+00 0.00000E+00 0.00000E+00 0.00000E+00 0.00000E+00 3.77606E-03 9.23761E-03 2.53745E-02
      698  0.00000E+00 1.07602E-06-2.54839E-05 0.00000E+00 0.00000E+00 0.00000E+00 0.00000E+00 0.00000E+00 0.00000E+00 6.11000E-19 9.97968E-03 2.53745E-02
      900  9.27743E-07 4.99084E-07-2.54839E-05 0.00000E+00 0.00000E+00 0.00000E+00 0.00000E+00 0.00000E+00 0.00000E+00 1.09280E-02 4.43550E-03 2.53745E-02
      902  8.61958E-07 4.76108E-07-2.54839E-05 0.00000E+00 0.00000E+00 0.00000E+00 0.00000E+00 0.00000E+00 0.00000E+00 1.00846E-02 4.10128E-03 2.53745E-02
      903  7.74296E-07 9.18184E-07-2.54839E-05 0.00000E+00 0.00000E+00 0.00000E+00 0.00000E+00 0.00000E+00 0.00000E+00 8.34687E-03 8.33252E-03 2.53745E-02
      905  7.12687E-07 8.59859E-07-2.54839E-05 0.00000E+00 0.00000E+00 0.00000E+00 0.00000E+00 0.00000E+00 0.00000E+00 7.70411E-03 7.69216E-03 2.53745E-02
      906  4.25122E-07 1.15635E-06-2.54839E-05 0.00000E+00 0.00000E+00 0.00000E+00 0.00000E+00 0.00000E+00 0.00000E+00 4.44913E-03 1.09227E-02 2.53745E-02
      908  3.93004E-07 1.08102E-06-2.54839E-05 0.00000E+00 0.00000E+00 0.00000E+00 0.00000E+00 0.00000E+00 0.00000E+00 4.11259E-03 1.00802E-02 2.53745E-02
      909  0.00000E+00 1.22842E-06-2.54839E-05 0.00000E+00 0.00000E+00 0.00000E+00 0.00000E+00 0.00000E+00 0.00000E+00 7.22100E-19 1.17941E-02 2.53745E-02
      911  0.00000E+00 1.14364E-06-2.54839E-05 0.00000E+00 0.00000E+00 0.00000E+00 0.00000E+00 0.00000E+00 0.00000E+00 6.66600E-19 1.08868E-02 2.53745E-02
     1012  6.01031E-07 3.55934E-07-2.54839E-05 0.00000E+00 0.00000E+00 0.00000E+00 0.00000E+00 0.00000E+00 0.00000E+00 6.71070E-03 2.76436E-03 2.53745E-02
     1013  4.87965E-07 6.33239E-07-2.54839E-05 0.00000E+00 0.00000E+00 0.00000E+00 0.00000E+00 0.00000E+00 0.00000E+00 5.13329E-03 5.13103E-03 2.53745E-02
     1014  2.61480E-07 8.08083E-07-2.54839E-05 0.00000E+00 0.00000E+00 0.00000E+00 0.00000E+00 0.00000E+00 0.00000E+00 2.76646E-03 6.71001E-03 2.53745E-02
     1015  0.00000E+00 9.00032E-07-2.54839E-05 0.00000E+00 0.00000E+00 0.00000E+00 0.00000E+00 0.00000E+00 0.00000E+00 4.44400E-19 7.25800E-03 2.53745E-02
     1060  9.52192E-07 5.12700E-07-2.54839E-05 0.00000E+00 0.00000E+00 0.00000E+00 0.00000E+00 0.00000E+00 0.00000E+00 1.17715E-02 4.76971E-03 2.53745E-02
     1061  7.63591E-07 9.46717E-07-2.54839E-05 0.00000E+00 0.00000E+00 0.00000E+00 0.00000E+00 0.00000E+00 0.00000E+00 8.98946E-03 8.97275E-03 2.53745E-02
     1062  4.46933E-07 1.30560E-06-2.54839E-05 0.00000E+00 0.00000E+00 0.00000E+00 0.00000E+00 0.00000E+00 0.00000E+00 4.78565E-03 1.17653E-02 2.53745E-02
     1063  0.00000E+00 1.48667E-06-2.54839E-05 0.00000E+00 0.00000E+00 0.00000E+00 0.00000E+00 0.00000E+00 0.00000E+00 7.77700E-19 1.27015E-02 2.53745E-02



 n o d a l   p r i n t   o u t   f o r   t i m e  s t e p     216                              ( at time 3.4723147E+00 )

 nodal point  x-disp     y-disp      z-disp      x-vel       y-vel       z-vel      x-accl      y-accl      z-accl      x-coor      y-coor      z-coor
        1  0.00000E+00 0.00000E+00 0.00000E+00 0.00000E+00 0.00000E+00 0.00000E+00 0.00000E+00 0.00000E+00 0.00000E+00 0.00000E+00 0.00000E+00 0.00000E+00
        2  5.53407E-07 0.00000E+00 0.00000E+00 0.00000E+00 0.00000E+00 0.00000E+00 0.00000E+00 0.00000E+00 0.00000E+00 7.94303E-04 0.00000E+00 0.00000E+00
        3  2.10072E-06 0.00000E+00 0.00000E+00 0.00000E+00 0.00000E+00 0.00000E+00 0.00000E+00 0.00000E+00 0.00000E+00 1.58960E-03 0.00000E+00 0.00000E+00
        4  4.56945E-06 0.00000E+00 0.00000E+00 0.00000E+00 0.00000E+00 0.00000E+00 0.00000E+00 0.00000E+00 0.00000E+00 2.38587E-03 0.00000E+00 0.00000E+00
        5  8.91435E-06 0.00000E+00 0.00000E+00 0.00000E+00 0.00000E+00 0.00000E+00 0.00000E+00 0.00000E+00 0.00000E+00 3.18391E-03 0.00000E+00 0.00000E+00
        6  6.78886E-06 3.37042E-06 0.00000E+00 0.00000E+00 0.00000E+00 0.00000E+00 0.00000E+00 0.00000E+00 0.00000E+00 2.94009E-03 1.21837E-03-1.78000E-18
        7  4.92803E-06 6.69275E-06 0.00000E+00 0.00000E+00 0.00000E+00 0.00000E+00 0.00000E+00 0.00000E+00 0.00000E+00 2.25003E-03 2.25179E-03-1.78000E-18
        8  2.90356E-06 9.16368E-06 0.00000E+00 0.00000E+00 0.00000E+00 0.00000E+00 0.00000E+00 0.00000E+00 0.00000E+00 1.21790E-03 2.94246E-03-1.78000E-18
        9  0.00000E+00 9.42363E-06 0.00000E+00 0.00000E+00 0.00000E+00 0.00000E+00 0.00000E+00 0.00000E+00 0.00000E+00 1.94400E-19 3.18442E-03-1.78000E-18
       10  0.00000E+00 4.78258E-06 0.00000E+00 0.00000E+00 0.00000E+00 0.00000E+00 0.00000E+00 0.00000E+00 0.00000E+00 1.45800E-19 2.38608E-03 0.00000E+00
       11  0.00000E+00 1.91992E-06 0.00000E+00 0.00000E+00 0.00000E+00 0.00000E+00 0.00000E+00 0.00000E+00 0.00000E+00 9.72100E-20 1.58942E-03 0.00000E+00
       12  0.00000E+00 5.93306E-07 0.00000E+00 0.00000E+00 0.00000E+00 0.00000E+00 0.00000E+00 0.00000E+00 0.00000E+00 4.86000E-20 7.94343E-04 0.00000E+00
       13  1.60361E-06 9.98097E-07 0.00000E+00 0.00000E+00 0.00000E+00 0.00000E+00 0.00000E+00 0.00000E+00 0.00000E+00 1.35350E-03 1.30930E-03 0.00000E+00
       14  1.03394E-06 1.13148E-07 0.00000E+00 0.00000E+00 0.00000E+00 0.00000E+00 0.00000E+00 0.00000E+00 0.00000E+00 1.50793E-03 6.69692E-04 0.00000E+00
       15  2.90634E-06 2.77526E-06 0.00000E+00 0.00000E+00 0.00000E+00 0.00000E+00 0.00000E+00 0.00000E+00 0.00000E+00 1.77041E-03 1.73908E-03 0.00000E+00
       16  3.11717E-06 1.02248E-06 0.00000E+00 0.00000E+00 0.00000E+00 0.00000E+00 0.00000E+00 0.00000E+00 0.00000E+00 2.19422E-03 9.21156E-04 0.00000E+00
       17  9.17087E-07 2.29939E-06 0.00000E+00 0.00000E+00 0.00000E+00 0.00000E+00 0.00000E+00 0.00000E+00 0.00000E+00 7.07894E-04 1.49060E-03 0.00000E+00
       18  1.79769E-06 4.69455E-06 0.00000E+00 0.00000E+00 0.00000E+00 0.00000E+00 0.00000E+00 0.00000E+00 0.00000E+00 9.52656E-04 2.16799E-03 0.00000E+00
       19  3.52338E-07 1.01021E-06 0.00000E+00 0.00000E+00 0.00000E+00 0.00000E+00 0.00000E+00 0.00000E+00 0.00000E+00 7.82807E-04 7.54799E-04 0.00000E+00
      179  4.33544E-07 1.48879E-06-3.47231E-05 0.00000E+00 0.00000E+00 0.00000E+00 0.00000E+00 0.00000E+00 0.00000E+00 4.49053E-03 4.49159E-03 2.53653E-02
      180  4.13893E-07 1.32747E-06-3.47231E-05 0.00000E+00 0.00000E+00 0.00000E+00 0.00000E+00 0.00000E+00 0.00000E+00 3.53341E-03 3.47203E-03 2.53653E-02
      181  1.33970E-07 1.02151E-06-3.47231E-05 0.00000E+00 0.00000E+00 0.00000E+00 0.00000E+00 0.00000E+00 0.00000E+00 4.37993E-03 1.84022E-03 2.53653E-02
      182  3.33913E-07 1.17973E-06-3.47231E-05 0.00000E+00 0.00000E+00 0.00000E+00 0.00000E+00 0.00000E+00 0.00000E+00 5.86703E-03 2.43098E-03 2.53653E-02
      247 -1.25625E-08 0.00000E+00-3.47231E-05 0.00000E+00 0.00000E+00 0.00000E+00 0.00000E+00 0.00000E+00 0.00000E+00 1.58749E-03 0.00000E+00 2.53653E-02
      248  2.15954E-07 7.52677E-07-3.47231E-05 0.00000E+00 0.00000E+00 0.00000E+00 0.00000E+00 0.00000E+00 0.00000E+00 1.56412E-03 1.50715E-03 2.53653E-02
      249  0.00000E+00 1.11669E-06-3.47231E-05 0.00000E+00 0.00000E+00 0.00000E+00 0.00000E+00 0.00000E+00 0.00000E+00 9.72100E-20 1.58862E-03 2.53653E-02
      250  0.00000E+00 0.00000E+00-3.47231E-05 0.00000E+00 0.00000E+00 0.00000E+00 0.00000E+00 0.00000E+00 0.00000E+00 0.00000E+00 0.00000E+00 2.53653E-02
      283 -3.15328E-08 0.00000E+00-3.47231E-05 0.00000E+00 0.00000E+00 0.00000E+00 0.00000E+00 0.00000E+00 0.00000E+00 3.17497E-03 0.00000E+00 2.53653E-02
      284  1.36421E-07 6.27385E-07-3.47231E-05 0.00000E+00 0.00000E+00 0.00000E+00 0.00000E+00 0.00000E+00 0.00000E+00 3.01194E-03 1.33873E-03 2.53653E-02
      333  1.32974E-07 1.22836E-06-3.47231E-05 0.00000E+00 0.00000E+00 0.00000E+00 0.00000E+00 0.00000E+00 0.00000E+00 1.41343E-03 2.97653E-03 2.53653E-02
      334  2.99338E-07 1.27091E-06-3.47231E-05 0.00000E+00 0.00000E+00 0.00000E+00 0.00000E+00 0.00000E+00 0.00000E+00 2.70300E-03 2.61677E-03 2.53653E-02
      335  2.89245E-07 1.38892E-06-3.47231E-05 0.00000E+00 0.00000E+00 0.00000E+00 0.00000E+00 0.00000E+00 0.00000E+00 1.90079E-03 4.32529E-03 2.53653E-02
      368  0.00000E+00 1.82290E-06-3.47231E-05 0.00000E+00 0.00000E+00 0.00000E+00 0.00000E+00 0.00000E+00 0.00000E+00 1.94400E-19 3.17682E-03 2.53653E-02
      369  0.00000E+00 1.86781E-06-3.47231E-05 0.00000E+00 0.00000E+00 0.00000E+00 0.00000E+00 0.00000E+00 0.00000E+00 2.91600E-19 4.76437E-03 2.53653E-02
      386 -7.75687E-08 0.00000E+00-3.47231E-05 0.00000E+00 0.00000E+00 0.00000E+00 0.00000E+00 0.00000E+00 0.00000E+00 4.76242E-03 0.00000E+00 2.53653E-02
      403 -1.44140E-07 0.00000E+00-3.47231E-05 0.00000E+00 0.00000E+00 0.00000E+00 0.00000E+00 0.00000E+00 0.00000E+00 6.34986E-03 0.00000E+00 2.53653E-02
      436  4.11718E-07 1.86578E-06-3.47231E-05 0.00000E+00 0.00000E+00 0.00000E+00 0.00000E+00 0.00000E+00 0.00000E+00 2.43021E-03 5.86857E-03 2.53653E-02
      437  0.00000E+00 2.27911E-06-3.47231E-05 0.00000E+00 0.00000E+00 0.00000E+00 0.00000E+00 0.00000E+00 0.00000E+00 3.88800E-19 6.35228E-03 2.53653E-02
      438 -2.63418E-07 0.00000E+00-3.47231E-05 0.00000E+00 0.00000E+00 0.00000E+00 0.00000E+00 0.00000E+00 0.00000E+00 7.25684E-03 0.00000E+00 2.53653E-02
      439 -2.55582E-07 0.00000E+00-3.47231E-05 0.00000E+00 0.00000E+00 0.00000E+00 0.00000E+00 0.00000E+00 0.00000E+00 8.16404E-03 0.00000E+00 2.53653E-02
      440 -1.87289E-07 0.00000E+00-3.47231E-05 0.00000E+00 0.00000E+00 0.00000E+00 0.00000E+00 0.00000E+00 0.00000E+00 9.07121E-03 0.00000E+00 2.53653E-02
      441 -1.49856E-07 0.00000E+00-3.47231E-05 0.00000E+00 0.00000E+00 0.00000E+00 0.00000E+00 0.00000E+00 0.00000E+00 9.97845E-03 0.00000E+00 2.53653E-02
      442 -1.57927E-07 0.00000E+00-3.47231E-05 0.00000E+00 0.00000E+00 0.00000E+00 0.00000E+00 0.00000E+00 0.00000E+00 1.08855E-02 0.00000E+00 2.53653E-02
      443 -1.85035E-07 0.00000E+00-3.47231E-05 0.00000E+00 0.00000E+00 0.00000E+00 0.00000E+00 0.00000E+00 0.00000E+00 1.17927E-02 0.00000E+00 2.53653E-02
      444 -3.36491E-07 0.00000E+00-3.47231E-05 0.00000E+00 0.00000E+00 0.00000E+00 0.00000E+00 0.00000E+00 0.00000E+00 1.26997E-02 0.00000E+00 2.53653E-02
      628  3.63692E-07 1.15778E-06-3.47231E-05 0.00000E+00 0.00000E+00 0.00000E+00 0.00000E+00 0.00000E+00 0.00000E+00 8.39726E-03 3.43356E-03 2.53653E-02
      631  3.19650E-07 1.15882E-06-3.47231E-05 0.00000E+00 0.00000E+00 0.00000E+00 0.00000E+00 0.00000E+00 0.00000E+00 7.55382E-03 3.09936E-03 2.53653E-02
      632  5.56301E-07 1.36725E-06-3.47231E-05 0.00000E+00 0.00000E+00 0.00000E+00 0.00000E+00 0.00000E+00 0.00000E+00 6.41866E-03 6.41227E-03 2.53653E-02
      635  4.79500E-07 1.41952E-06-3.47231E-05 0.00000E+00 0.00000E+00 0.00000E+00 0.00000E+00 0.00000E+00 0.00000E+00 5.77588E-03 5.77202E-03 2.53653E-02
      636  3.81984E-07 1.52419E-06-3.47231E-05 0.00000E+00 0.00000E+00 0.00000E+00 0.00000E+00 0.00000E+00 0.00000E+00 3.43958E-03 8.39572E-03 2.53653E-02
      639  3.52910E-07 1.60570E-06-3.47231E-05 0.00000E+00 0.00000E+00 0.00000E+00 0.00000E+00 0.00000E+00 0.00000E+00 3.10305E-03 7.55331E-03 2.53653E-02
      640  0.00000E+00 2.51923E-06-3.47231E-05 0.00000E+00 0.00000E+00 0.00000E+00 0.00000E+00 0.00000E+00 0.00000E+00 5.55500E-19 9.07392E-03 2.53653E-02
      643  0.00000E+00 2.52106E-06-3.47231E-05 0.00000E+00 0.00000E+00 0.00000E+00 0.00000E+00 0.00000E+00 0.00000E+00 4.99900E-19 8.16682E-03 2.53653E-02
      692  4.35679E-07 1.18057E-06-3.47231E-05 0.00000E+00 0.00000E+00 0.00000E+00 0.00000E+00 0.00000E+00 0.00000E+00 9.24074E-03 3.76778E-03 2.53653E-02
      694  6.13719E-07 1.31170E-06-3.47231E-05 0.00000E+00 0.00000E+00 0.00000E+00 0.00000E+00 0.00000E+00 0.00000E+00 7.06131E-03 7.05241E-03 2.53653E-02
      696  4.54243E-07 1.53484E-06-3.47231E-05 0.00000E+00 0.00000E+00 0.00000E+00 0.00000E+00 0.00000E+00 0.00000E+00 3.77615E-03 9.23813E-03 2.53653E-02
      698  0.00000E+00 2.32184E-06-3.47231E-05 0.00000E+00 0.00000E+00 0.00000E+00 0.00000E+00 0.00000E+00 0.00000E+00 6.11000E-19 9.98092E-03 2.53653E-02
      900  5.10752E-07 1.12477E-06-3.47231E-05 0.00000E+00 0.00000E+00 0.00000E+00 0.00000E+00 0.00000E+00 0.00000E+00 1.09276E-02 4.43612E-03 2.53653E-02
      902  5.10118E-07 1.19259E-06-3.47231E-05 0.00000E+00 0.00000E+00 0.00000E+00 0.00000E+00 0.00000E+00 0.00000E+00 1.00842E-02 4.10199E-03 2.53653E-02
      903  9.63479E-07 1.40759E-06-3.47231E-05 0.00000E+00 0.00000E+00 0.00000E+00 0.00000E+00 0.00000E+00 0.00000E+00 8.34706E-03 8.33301E-03 2.53653E-02
      905  7.30561E-07 1.31621E-06-3.47231E-05 0.00000E+00 0.00000E+00 0.00000E+00 0.00000E+00 0.00000E+00 0.00000E+00 7.70413E-03 7.69262E-03 2.53653E-02
      906  3.90015E-07 1.47996E-06-3.47231E-05 0.00000E+00 0.00000E+00 0.00000E+00 0.00000E+00 0.00000E+00 0.00000E+00 4.44909E-03 1.09230E-02 2.53653E-02
      908  4.91279E-07 1.56123E-06-3.47231E-05 0.00000E+00 0.00000E+00 0.00000E+00 0.00000E+00 0.00000E+00 0.00000E+00 4.11269E-03 1.00807E-02 2.53653E-02
      909  0.00000E+00 2.09106E-06-3.47231E-05 0.00000E+00 0.00000E+00 0.00000E+00 0.00000E+00 0.00000E+00 0.00000E+00 7.22100E-19 1.17950E-02 2.53653E-02
      911  0.00000E+00 2.04288E-06-3.47231E-05 0.00000E+00 0.00000E+00 0.00000E+00 0.00000E+00 0.00000E+00 0.00000E+00 6.66600E-19 1.08877E-02 2.53653E-02
     1012  2.78554E-07 1.15999E-06-3.47231E-05 0.00000E+00 0.00000E+00 0.00000E+00 0.00000E+00 0.00000E+00 0.00000E+00 6.71038E-03 2.76516E-03 2.53653E-02
     1013  4.35157E-07 1.45672E-06-3.47231E-05 0.00000E+00 0.00000E+00 0.00000E+00 0.00000E+00 0.00000E+00 0.00000E+00 5.13324E-03 5.13186E-03 2.53653E-02
     1014  3.07919E-07 1.75204E-06-3.47231E-05 0.00000E+00 0.00000E+00 0.00000E+00 0.00000E+00 0.00000E+00 0.00000E+00 2.76651E-03 6.71095E-03 2.53653E-02
     1015  0.00000E+00 2.43501E-06-3.47231E-05 0.00000E+00 0.00000E+00 0.00000E+00 0.00000E+00 0.00000E+00 0.00000E+00 4.44400E-19 7.25954E-03 2.53653E-02
     1060  1.38170E-07 9.53445E-07-3.47231E-05 0.00000E+00 0.00000E+00 0.00000E+00 0.00000E+00 0.00000E+00 0.00000E+00 1.17706E-02 4.77015E-03 2.53653E-02
     1061  3.87687E-07 1.14550E-06-3.47231E-05 0.00000E+00 0.00000E+00 0.00000E+00 0.00000E+00 0.00000E+00 0.00000E+00 8.98909E-03 8.97295E-03 2.53653E-02
     1062  4.97840E-07 1.95813E-06-3.47231E-05 0.00000E+00 0.00000E+00 0.00000E+00 0.00000E+00 0.00000E+00 0.00000E+00 4.78570E-03 1.17660E-02 2.53653E-02
     1063  0.00000E+00 2.73808E-06-3.47231E-05 0.00000E+00 0.00000E+00 0.00000E+00 0.00000E+00 0.00000E+00 0.00000E+00 7.77700E-19 1.27027E-02 2.53653E-02



 n o d a l   p r i n t   o u t   f o r   t i m e  s t e p     349                              ( at time 4.6692737E+00 )

 nodal point  x-disp     y-disp      z-disp      x-vel       y-vel       z-vel      x-accl      y-accl      z-accl      x-coor      y-coor      z-coor
        1  0.00000E+00 0.00000E+00 0.00000E+00 0.00000E+00 0.00000E+00 0.00000E+00 0.00000E+00 0.00000E+00 0.00000E+00 0.00000E+00 0.00000E+00 0.00000E+00
        2  3.65337E-06 0.00000E+00 0.00000E+00 0.00000E+00 0.00000E+00 0.00000E+00 0.00000E+00 0.00000E+00 0.00000E+00 7.97403E-04 0.00000E+00 0.00000E+00
        3  8.35232E-06 0.00000E+00 0.00000E+00 0.00000E+00 0.00000E+00 0.00000E+00 0.00000E+00 0.00000E+00 0.00000E+00 1.59585E-03 0.00000E+00 0.00000E+00
        4  1.43982E-05 0.00000E+00 0.00000E+00 0.00000E+00 0.00000E+00 0.00000E+00 0.00000E+00 0.00000E+00 0.00000E+00 2.39570E-03 0.00000E+00 0.00000E+00
        5  2.23903E-05 0.00000E+00 0.00000E+00 0.00000E+00 0.00000E+00 0.00000E+00 0.00000E+00 0.00000E+00 0.00000E+00 3.19739E-03 0.00000E+00 0.00000E+00
        6  1.89155E-05 8.47848E-06 0.00000E+00 0.00000E+00 0.00000E+00 0.00000E+00 0.00000E+00 0.00000E+00 0.00000E+00 2.95222E-03 1.22348E-03-1.78000E-18
        7  1.36575E-05 1.62423E-05 0.00000E+00 0.00000E+00 0.00000E+00 0.00000E+00 0.00000E+00 0.00000E+00 0.00000E+00 2.25876E-03 2.26134E-03-1.78000E-18
        8  7.50160E-06 2.11877E-05 0.00000E+00 0.00000E+00 0.00000E+00 0.00000E+00 0.00000E+00 0.00000E+00 0.00000E+00 1.22250E-03 2.95449E-03-1.78000E-18
        9  0.00000E+00 2.16654E-05 0.00000E+00 0.00000E+00 0.00000E+00 0.00000E+00 0.00000E+00 0.00000E+00 0.00000E+00 1.94400E-19 3.19667E-03-1.78000E-18
       10  0.00000E+00 1.37964E-05 0.00000E+00 0.00000E+00 0.00000E+00 0.00000E+00 0.00000E+00 0.00000E+00 0.00000E+00 1.45800E-19 2.39510E-03 0.00000E+00
       11  0.00000E+00 7.60094E-06 0.00000E+00 0.00000E+00 0.00000E+00 0.00000E+00 0.00000E+00 0.00000E+00 0.00000E+00 9.72100E-20 1.59510E-03 0.00000E+00
       12  0.00000E+00 3.27986E-06 0.00000E+00 0.00000E+00 0.00000E+00 0.00000E+00 0.00000E+00 0.00000E+00 0.00000E+00 4.86000E-20 7.97030E-04 0.00000E+00
       13  6.69971E-06 5.93924E-06 0.00000E+00 0.00000E+00 0.00000E+00 0.00000E+00 0.00000E+00 0.00000E+00 0.00000E+00 1.35860E-03 1.31424E-03 0.00000E+00
       14  6.43024E-06 2.61702E-06 0.00000E+00 0.00000E+00 0.00000E+00 0.00000E+00 0.00000E+00 0.00000E+00 0.00000E+00 1.51333E-03 6.72196E-04 0.00000E+00
       15  1.00376E-05 9.61331E-06 0.00000E+00 0.00000E+00 0.00000E+00 0.00000E+00 0.00000E+00 0.00000E+00 0.00000E+00 1.77754E-03 1.74591E-03 0.00000E+00
       16  1.18329E-05 4.35319E-06 0.00000E+00 0.00000E+00 0.00000E+00 0.00000E+00 0.00000E+00 0.00000E+00 0.00000E+00 2.20293E-03 9.24487E-04 0.00000E+00
       17  3.58671E-06 8.50049E-06 0.00000E+00 0.00000E+00 0.00000E+00 0.00000E+00 0.00000E+00 0.00000E+00 0.00000E+00 7.10564E-04 1.49680E-03 0.00000E+00
       18  5.74775E-06 1.36367E-05 0.00000E+00 0.00000E+00 0.00000E+00 0.00000E+00 0.00000E+00 0.00000E+00 0.00000E+00 9.56606E-04 2.17694E-03 0.00000E+00
       19  2.83534E-06 4.11818E-06 0.00000E+00 0.00000E+00 0.00000E+00 0.00000E+00 0.00000E+00 0.00000E+00 0.00000E+00 7.85290E-04 7.57907E-04 0.00000E+00
      179  5.92718E-07 1.16279E-06-4.66927E-05 0.00000E+00 0.00000E+00 0.00000E+00 0.00000E+00 0.00000E+00 0.00000E+00 4.49069E-03 4.49126E-03 2.53533E-02
      180  5.26563E-07 9.20161E-07-4.66927E-05 0.00000E+00 0.00000E+00 0.00000E+00 0.00000E+00 0.00000E+00 0.00000E+00 3.53353E-03 3.47162E-03 2.53533E-02
      181  3.51890E-07 6.31628E-07-4.66927E-05 0.00000E+00 0.00000E+00 0.00000E+00 0.00000E+00 0.00000E+00 0.00000E+00 4.38015E-03 1.83983E-03 2.53533E-02
      182  6.13451E-07 7.96633E-07-4.66927E-05 0.00000E+00 0.00000E+00 0.00000E+00 0.00000E+00 0.00000E+00 0.00000E+00 5.86731E-03 2.43060E-03 2.53533E-02
      247  1.16904E-07 0.00000E+00-4.66927E-05 0.00000E+00 0.00000E+00 0.00000E+00 0.00000E+00 0.00000E+00 0.00000E+00 1.58762E-03 0.00000E+00 2.53533E-02
      248  2.55341E-07 3.50436E-07-4.66927E-05 0.00000E+00 0.00000E+00 0.00000E+00 0.00000E+00 0.00000E+00 0.00000E+00 1.56416E-03 1.50675E-03 2.53533E-02
      249  0.00000E+00 6.92448E-07-4.66927E-05 0.00000E+00 0.00000E+00 0.00000E+00 0.00000E+00 0.00000E+00 0.00000E+00 9.72100E-20 1.58819E-03 2.53533E-02
      250  0.00000E+00 0.00000E+00-4.66927E-05 0.00000E+00 0.00000E+00 0.00000E+00 0.00000E+00 0.00000E+00 0.00000E+00 0.00000E+00 0.00000E+00 2.53533E-02
      283  2.88626E-07 0.00000E+00-4.66927E-05 0.00000E+00 0.00000E+00 0.00000E+00 0.00000E+00 0.00000E+00 0.00000E+00 3.17529E-03 0.00000E+00 2.53533E-02
      284  2.84929E-07 4.29155E-07-4.66927E-05 0.00000E+00 0.00000E+00 0.00000E+00 0.00000E+00 0.00000E+00 0.00000E+00 3.01208E-03 1.33853E-03 2.53533E-02
      333  8.24910E-08 4.42049E-07-4.66927E-05 0.00000E+00 0.00000E+00 0.00000E+00 0.00000E+00 0.00000E+00 0.00000E+00 1.41338E-03 2.97574E-03 2.53533E-02
      334  2.84652E-07 7.89722E-07-4.66927E-05 0.00000E+00 0.00000E+00 0.00000E+00 0.00000E+00 0.00000E+00 0.00000E+00 2.70298E-03 2.61629E-03 2.53533E-02
      335  2.80321E-07 7.14651E-07-4.66927E-05 0.00000E+00 0.00000E+00 0.00000E+00 0.00000E+00 0.00000E+00 0.00000E+00 1.90078E-03 4.32461E-03 2.53533E-02
      368  0.00000E+00 8.35287E-07-4.66927E-05 0.00000E+00 0.00000E+00 0.00000E+00 0.00000E+00 0.00000E+00 0.00000E+00 1.94400E-19 3.17584E-03 2.53533E-02
      369  0.00000E+00 1.03188E-06-4.66927E-05 0.00000E+00 0.00000E+00 0.00000E+00 0.00000E+00 0.00000E+00 0.00000E+00 2.91600E-19 4.76353E-03 2.53533E-02
      386  3.23100E-07 0.00000E+00-4.66927E-05 0.00000E+00 0.00000E+00 0.00000E+00 0.00000E+00 0.00000E+00 0.00000E+00 4.76282E-03 0.00000E+00 2.53533E-02
      403  2.15884E-07 0.00000E+00-4.66927E-05 0.00000E+00 0.00000E+00 0.00000E+00 0.00000E+00 0.00000E+00 0.00000E+00 6.35022E-03 0.00000E+00 2.53533E-02
      436  4.51273E-07 1.39784E-06-4.66927E-05 0.00000E+00 0.00000E+00 0.00000E+00 0.00000E+00 0.00000E+00 0.00000E+00 2.43025E-03 5.86810E-03 2.53533E-02
      437  0.00000E+00 1.54186E-06-4.66927E-05 0.00000E+00 0.00000E+00 0.00000E+00 0.00000E+00 0.00000E+00 0.00000E+00 3.88800E-19 6.35154E-03 2.53533E-02
      438  2.71433E-07 0.00000E+00-4.66927E-05 0.00000E+00 0.00000E+00 0.00000E+00 0.00000E+00 0.00000E+00 0.00000E+00 7.25737E-03 0.00000E+00 2.53533E-02
      439  3.34484E-07 0.00000E+00-4.66927E-05 0.00000E+00 0.00000E+00 0.00000E+00 0.00000E+00 0.00000E+00 0.00000E+00 8.16463E-03 0.00000E+00 2.53533E-02
      440  3.75502E-07 0.00000E+00-4.66927E-05 0.00000E+00 0.00000E+00 0.00000E+00 0.00000E+00 0.00000E+00 0.00000E+00 9.07178E-03 0.00000E+00 2.53533E-02
      441  4.32041E-07 0.00000E+00-4.66927E-05 0.00000E+00 0.00000E+00 0.00000E+00 0.00000E+00 0.00000E+00 0.00000E+00 9.97903E-03 0.00000E+00 2.53533E-02
      442  4.81184E-07 0.00000E+00-4.66927E-05 0.00000E+00 0.00000E+00 0.00000E+00 0.00000E+00 0.00000E+00 0.00000E+00 1.08862E-02 0.00000E+00 2.53533E-02
      443  4.89285E-07 0.00000E+00-4.66927E-05 0.00000E+00 0.00000E+00 0.00000E+00 0.00000E+00 0.00000E+00 0.00000E+00 1.17934E-02 0.00000E+00 2.53533E-02
      444  4.31038E-07 0.00000E+00-4.66927E-05 0.00000E+00 0.00000E+00 0.00000E+00 0.00000E+00 0.00000E+00 0.00000E+00 1.27004E-02 0.00000E+00 2.53533E-02
      628  6.98651E-07 8.64400E-07-4.66927E-05 0.00000E+00 0.00000E+00 0.00000E+00 0.00000E+00 0.00000E+00 0.00000E+00 8.39760E-03 3.43326E-03 2.53533E-02
      631  6.20477E-07 8.27555E-07-4.66927E-05 0.00000E+00 0.00000E+00 0.00000E+00 0.00000E+00 0.00000E+00 0.00000E+00 7.55412E-03 3.09903E-03 2.53533E-02
      632  7.02516E-07 1.28842E-06-4.66927E-05 0.00000E+00 0.00000E+00 0.00000E+00 0.00000E+00 0.00000E+00 0.00000E+00 6.41880E-03 6.41219E-03 2.53533E-02
      635  6.92054E-07 1.27088E-06-4.66927E-05 0.00000E+00 0.00000E+00 0.00000E+00 0.00000E+00 0.00000E+00 0.00000E+00 5.77609E-03 5.77187E-03 2.53533E-02
      636  5.16666E-07 1.64521E-06-4.66927E-05 0.00000E+00 0.00000E+00 0.00000E+00 0.00000E+00 0.00000E+00 0.00000E+00 3.43972E-03 8.39585E-03 2.53533E-02
      639  4.40133E-07 1.51299E-06-4.66927E-05 0.00000E+00 0.00000E+00 0.00000E+00 0.00000E+00 0.00000E+00 0.00000E+00 3.10314E-03 7.55321E-03 2.53533E-02
      640  0.00000E+00 1.81324E-06-4.66927E-05 0.00000E+00 0.00000E+00 0.00000E+00 0.00000E+00 0.00000E+00 0.00000E+00 5.55500E-19 9.07321E-03 2.53533E-02
      643  0.00000E+00 1.83744E-06-4.66927E-05 0.00000E+00 0.00000E+00 0.00000E+00 0.00000E+00 0.00000E+00 0.00000E+00 4.99900E-19 8.16614E-03 2.53533E-02
      692  7.71175E-07 8.93818E-07-4.66927E-05 0.00000E+00 0.00000E+00 0.00000E+00 0.00000E+00 0.00000E+00 0.00000E+00 9.24107E-03 3.76749E-03 2.53533E-02
      694  7.64683E-07 1.32203E-06-4.66927E-05 0.00000E+00 0.00000E+00 0.00000E+00 0.00000E+00 0.00000E+00 0.00000E+00 7.06146E-03 7.05242E-03 2.53533E-02
      696  5.58306E-07 1.64120E-06-4.66927E-05 0.00000E+00 0.00000E+00 0.00000E+00 0.00000E+00 0.00000E+00 0.00000E+00 3.77626E-03 9.23824E-03 2.53533E-02
      698  0.00000E+00 1.94879E-06-4.66927E-05 0.00000E+00 0.00000E+00 0.00000E+00 0.00000E+00 0.00000E+00 0.00000E+00 6.11000E-19 9.98055E-03 2.53533E-02
      900  8.83193E-07 8.69286E-07-4.66927E-05 0.00000E+00 0.00000E+00 0.00000E+00 0.00000E+00 0.00000E+00 0.00000E+00 1.09280E-02 4.43587E-03 2.53533E-02
      902  8.26850E-07 9.00281E-07-4.66927E-05 0.00000E+00 0.00000E+00 0.00000E+00 0.00000E+00 0.00000E+00 0.00000E+00 1.00845E-02 4.10170E-03 2.53533E-02
      903  1.00797E-06 1.46734E-06-4.66927E-05 0.00000E+00 0.00000E+00 0.00000E+00 0.00000E+00 0.00000E+00 0.00000E+00 8.34711E-03 8.33307E-03 2.53533E-02
      905  8.89083E-07 1.40088E-06-4.66927E-05 0.00000E+00 0.00000E+00 0.00000E+00 0.00000E+00 0.00000E+00 0.00000E+00 7.70429E-03 7.69270E-03 2.53533E-02
      906  5.07309E-07 1.63347E-06-4.66927E-05 0.00000E+00 0.00000E+00 0.00000E+00 0.00000E+00 0.00000E+00 0.00000E+00 4.44921E-03 1.09231E-02 2.53533E-02
      908  5.39861E-07 1.57443E-06-4.66927E-05 0.00000E+00 0.00000E+00 0.00000E+00 0.00000E+00 0.00000E+00 0.00000E+00 4.11274E-03 1.00807E-02 2.53533E-02
      909  0.00000E+00 2.18649E-06-4.66927E-05 0.00000E+00 0.00000E+00 0.00000E+00 0.00000E+00 0.00000E+00 0.00000E+00 7.22100E-19 1.17951E-02 2.53533E-02
      911  0.00000E+00 2.09969E-06-4.66927E-05 0.00000E+00 0.00000E+00 0.00000E+00 0.00000E+00 0.00000E+00 0.00000E+00 6.66600E-19 1.08878E-02 2.53533E-02
     1012  5.59411E-07 8.18059E-07-4.66927E-05 0.00000E+00 0.00000E+00 0.00000E+00 0.00000E+00 0.00000E+00 0.00000E+00 6.71066E-03 2.76482E-03 2.53533E-02
     1013  6.52210E-07 1.24842E-06-4.66927E-05 0.00000E+00 0.00000E+00 0.00000E+00 0.00000E+00 0.00000E+00 0.00000E+00 5.13345E-03 5.13165E-03 2.53533E-02
     1014  3.86710E-07 1.51375E-06-4.66927E-05 0.00000E+00 0.00000E+00 0.00000E+00 0.00000E+00 0.00000E+00 0.00000E+00 2.76659E-03 6.71071E-03 2.53533E-02
     1015  0.00000E+00 1.74320E-06-4.66927E-05 0.00000E+00 0.00000E+00 0.00000E+00 0.00000E+00 0.00000E+00 0.00000E+00 4.44400E-19 7.25884E-03 2.53533E-02
     1060  7.43153E-07 7.52303E-07-4.66927E-05 0.00000E+00 0.00000E+00 0.00000E+00 0.00000E+00 0.00000E+00 0.00000E+00 1.17712E-02 4.76995E-03 2.53533E-02
     1061  6.92064E-07 1.44748E-06-4.66927E-05 0.00000E+00 0.00000E+00 0.00000E+00 0.00000E+00 0.00000E+00 0.00000E+00 8.98939E-03 8.97325E-03 2.53533E-02
     1062  6.32729E-07 1.85964E-06-4.66927E-05 0.00000E+00 0.00000E+00 0.00000E+00 0.00000E+00 0.00000E+00 0.00000E+00 4.78583E-03 1.17659E-02 2.53533E-02
     1063  0.00000E+00 2.43689E-06-4.66927E-05 0.00000E+00 0.00000E+00 0.00000E+00 0.00000E+00 0.00000E+00 0.00000E+00 7.77700E-19 1.27024E-02 2.53533E-02



 n o d a l   p r i n t   o u t   f o r   t i m e  s t e p     353                              ( at time 5.0370948E+00 )

 nodal point  x-disp     y-disp      z-disp      x-vel       y-vel       z-vel      x-accl      y-accl      z-accl      x-coor      y-coor      z-coor
        1  0.00000E+00 0.00000E+00 0.00000E+00 0.00000E+00 0.00000E+00 0.00000E+00 0.00000E+00 0.00000E+00 0.00000E+00 0.00000E+00 0.00000E+00 0.00000E+00
        2  3.95134E-06 0.00000E+00 0.00000E+00 0.00000E+00 0.00000E+00 0.00000E+00 0.00000E+00 0.00000E+00 0.00000E+00 7.97701E-04 0.00000E+00 0.00000E+00
        3  8.85201E-06 0.00000E+00 0.00000E+00 0.00000E+00 0.00000E+00 0.00000E+00 0.00000E+00 0.00000E+00 0.00000E+00 1.59635E-03 0.00000E+00 0.00000E+00
        4  1.51251E-05 0.00000E+00 0.00000E+00 0.00000E+00 0.00000E+00 0.00000E+00 0.00000E+00 0.00000E+00 0.00000E+00 2.39643E-03 0.00000E+00 0.00000E+00
        5  2.35777E-05 0.00000E+00 0.00000E+00 0.00000E+00 0.00000E+00 0.00000E+00 0.00000E+00 0.00000E+00 0.00000E+00 3.19858E-03 0.00000E+00 0.00000E+00
        6  2.05323E-05 9.24036E-06 0.00000E+00 0.00000E+00 0.00000E+00 0.00000E+00 0.00000E+00 0.00000E+00 0.00000E+00 2.95383E-03 1.22424E-03-1.78000E-18
        7  1.50816E-05 1.76914E-05 0.00000E+00 0.00000E+00 0.00000E+00 0.00000E+00 0.00000E+00 0.00000E+00 0.00000E+00 2.26018E-03 2.26279E-03-1.78000E-18
        8  8.22188E-06 2.28017E-05 0.00000E+00 0.00000E+00 0.00000E+00 0.00000E+00 0.00000E+00 0.00000E+00 0.00000E+00 1.22322E-03 2.95610E-03-1.78000E-18
        9  0.00000E+00 2.34932E-05 0.00000E+00 0.00000E+00 0.00000E+00 0.00000E+00 0.00000E+00 0.00000E+00 0.00000E+00 1.94400E-19 3.19849E-03-1.78000E-18
       10  0.00000E+00 1.51093E-05 0.00000E+00 0.00000E+00 0.00000E+00 0.00000E+00 0.00000E+00 0.00000E+00 0.00000E+00 1.45800E-19 2.39641E-03 0.00000E+00
       11  0.00000E+00 8.47153E-06 0.00000E+00 0.00000E+00 0.00000E+00 0.00000E+00 0.00000E+00 0.00000E+00 0.00000E+00 9.72100E-20 1.59597E-03 0.00000E+00
       12  0.00000E+00 3.75443E-06 0.00000E+00 0.00000E+00 0.00000E+00 0.00000E+00 0.00000E+00 0.00000E+00 0.00000E+00 4.86000E-20 7.97504E-04 0.00000E+00
       13  7.52685E-06 6.82913E-06 0.00000E+00 0.00000E+00 0.00000E+00 0.00000E+00 0.00000E+00 0.00000E+00 0.00000E+00 1.35943E-03 1.31513E-03 0.00000E+00
       14  7.23550E-06 3.09370E-06 0.00000E+00 0.00000E+00 0.00000E+00 0.00000E+00 0.00000E+00 0.00000E+00 0.00000E+00 1.51414E-03 6.72672E-04 0.00000E+00
       15  1.11349E-05 1.07266E-05 0.00000E+00 0.00000E+00 0.00000E+00 0.00000E+00 0.00000E+00 0.00000E+00 0.00000E+00 1.77863E-03 1.74703E-03 0.00000E+00
       16  1.29543E-05 4.92972E-06 0.00000E+00 0.00000E+00 0.00000E+00 0.00000E+00 0.00000E+00 0.00000E+00 0.00000E+00 2.20405E-03 9.25063E-04 0.00000E+00
       17  3.98964E-06 9.28315E-06 0.00000E+00 0.00000E+00 0.00000E+00 0.00000E+00 0.00000E+00 0.00000E+00 0.00000E+00 7.10967E-04 1.49758E-03 0.00000E+00
       18  6.32001E-06 1.47683E-05 0.00000E+00 0.00000E+00 0.00000E+00 0.00000E+00 0.00000E+00 0.00000E+00 0.00000E+00 9.57179E-04 2.17807E-03 0.00000E+00
       19  3.24776E-06 4.50945E-06 0.00000E+00 0.00000E+00 0.00000E+00 0.00000E+00 0.00000E+00 0.00000E+00 0.00000E+00 7.85702E-04 7.58298E-04 0.00000E+00
      179  6.16167E-07 1.26994E-06-5.03709E-05 0.00000E+00 0.00000E+00 0.00000E+00 0.00000E+00 0.00000E+00 0.00000E+00 4.49072E-03 4.49137E-03 2.53496E-02
      180  5.14016E-07 9.82937E-07-5.03709E-05 0.00000E+00 0.00000E+00 0.00000E+00 0.00000E+00 0.00000E+00 0.00000E+00 3.53351E-03 3.47168E-03 2.53496E-02
      181  2.67791E-07 6.69303E-07-5.03709E-05 0.00000E+00 0.00000E+00 0.00000E+00 0.00000E+00 0.00000E+00 0.00000E+00 4.38007E-03 1.83987E-03 2.53496E-02
      182  5.63871E-07 8.96393E-07-5.03709E-05 0.00000E+00 0.00000E+00 0.00000E+00 0.00000E+00 0.00000E+00 0.00000E+00 5.86726E-03 2.43070E-03 2.53496E-02
      247  3.62911E-08 0.00000E+00-5.03709E-05 0.00000E+00 0.00000E+00 0.00000E+00 0.00000E+00 0.00000E+00 0.00000E+00 1.58754E-03 0.00000E+00 2.53496E-02
      248  2.11184E-07 4.98680E-07-5.03709E-05 0.00000E+00 0.00000E+00 0.00000E+00 0.00000E+00 0.00000E+00 0.00000E+00 1.56411E-03 1.50690E-03 2.53496E-02
      249  0.00000E+00 7.28171E-07-5.03709E-05 0.00000E+00 0.00000E+00 0.00000E+00 0.00000E+00 0.00000E+00 0.00000E+00 9.72100E-20 1.58823E-03 2.53496E-02
      250  0.00000E+00 0.00000E+00-5.03709E-05 0.00000E+00 0.00000E+00 0.00000E+00 0.00000E+00 0.00000E+00 0.00000E+00 0.00000E+00 0.00000E+00 2.53496E-02
      283  1.14102E-07 0.00000E+00-5.03709E-05 0.00000E+00 0.00000E+00 0.00000E+00 0.00000E+00 0.00000E+00 0.00000E+00 3.17511E-03 0.00000E+00 2.53496E-02
      284  2.27736E-07 4.17953E-07-5.03709E-05 0.00000E+00 0.00000E+00 0.00000E+00 0.00000E+00 0.00000E+00 0.00000E+00 3.01203E-03 1.33852E-03 2.53496E-02
      333  1.16217E-07 5.24723E-07-5.03709E-05 0.00000E+00 0.00000E+00 0.00000E+00 0.00000E+00 0.00000E+00 0.00000E+00 1.41342E-03 2.97582E-03 2.53496E-02
      334  2.77953E-07 7.40448E-07-5.03709E-05 0.00000E+00 0.00000E+00 0.00000E+00 0.00000E+00 0.00000E+00 0.00000E+00 2.70298E-03 2.61624E-03 2.53496E-02
      335  2.78111E-07 7.98497E-07-5.03709E-05 0.00000E+00 0.00000E+00 0.00000E+00 0.00000E+00 0.00000E+00 0.00000E+00 1.90078E-03 4.32470E-03 2.53496E-02
      368  0.00000E+00 9.03197E-07-5.03709E-05 0.00000E+00 0.00000E+00 0.00000E+00 0.00000E+00 0.00000E+00 0.00000E+00 1.94400E-19 3.17590E-03 2.53496E-02
      369  0.00000E+00 1.13402E-06-5.03709E-05 0.00000E+00 0.00000E+00 0.00000E+00 0.00000E+00 0.00000E+00 0.00000E+00 2.91600E-19 4.76363E-03 2.53496E-02
      386  2.13765E-07 0.00000E+00-5.03709E-05 0.00000E+00 0.00000E+00 0.00000E+00 0.00000E+00 0.00000E+00 0.00000E+00 4.76271E-03 0.00000E+00 2.53496E-02
      403  2.92421E-07 0.00000E+00-5.03709E-05 0.00000E+00 0.00000E+00 0.00000E+00 0.00000E+00 0.00000E+00 0.00000E+00 6.35029E-03 0.00000E+00 2.53496E-02
      436  4.49947E-07 1.47861E-06-5.03709E-05 0.00000E+00 0.00000E+00 0.00000E+00 0.00000E+00 0.00000E+00 0.00000E+00 2.43025E-03 5.86818E-03 2.53496E-02
      437  0.00000E+00 1.65938E-06-5.03709E-05 0.00000E+00 0.00000E+00 0.00000E+00 0.00000E+00 0.00000E+00 0.00000E+00 3.88800E-19 6.35166E-03 2.53496E-02
      438  2.75294E-07 0.00000E+00-5.03709E-05 0.00000E+00 0.00000E+00 0.00000E+00 0.00000E+00 0.00000E+00 0.00000E+00 7.25738E-03 0.00000E+00 2.53496E-02
      439  3.37289E-07 0.00000E+00-5.03709E-05 0.00000E+00 0.00000E+00 0.00000E+00 0.00000E+00 0.00000E+00 0.00000E+00 8.16464E-03 0.00000E+00 2.53496E-02
      440  3.96214E-07 0.00000E+00-5.03709E-05 0.00000E+00 0.00000E+00 0.00000E+00 0.00000E+00 0.00000E+00 0.00000E+00 9.07180E-03 0.00000E+00 2.53496E-02
      441  4.44582E-07 0.00000E+00-5.03709E-05 0.00000E+00 0.00000E+00 0.00000E+00 0.00000E+00 0.00000E+00 0.00000E+00 9.97904E-03 0.00000E+00 2.53496E-02
      442  4.87814E-07 0.00000E+00-5.03709E-05 0.00000E+00 0.00000E+00 0.00000E+00 0.00000E+00 0.00000E+00 0.00000E+00 1.08862E-02 0.00000E+00 2.53496E-02
      443  4.95502E-07 0.00000E+00-5.03709E-05 0.00000E+00 0.00000E+00 0.00000E+00 0.00000E+00 0.00000E+00 0.00000E+00 1.17934E-02 0.00000E+00 2.53496E-02
      444  4.18036E-07 0.00000E+00-5.03709E-05 0.00000E+00 0.00000E+00 0.00000E+00 0.00000E+00 0.00000E+00 0.00000E+00 1.27004E-02 0.00000E+00 2.53496E-02
      628  6.94454E-07 9.93936E-07-5.03709E-05 0.00000E+00 0.00000E+00 0.00000E+00 0.00000E+00 0.00000E+00 0.00000E+00 8.39759E-03 3.43339E-03 2.53496E-02
      631  6.16225E-07 9.38087E-07-5.03709E-05 0.00000E+00 0.00000E+00 0.00000E+00 0.00000E+00 0.00000E+00 0.00000E+00 7.55412E-03 3.09914E-03 2.53496E-02
      632  7.38777E-07 1.37380E-06-5.03709E-05 0.00000E+00 0.00000E+00 0.00000E+00 0.00000E+00 0.00000E+00 0.00000E+00 6.41884E-03 6.41227E-03 2.53496E-02
      635  7.18378E-07 1.37778E-06-5.03709E-05 0.00000E+00 0.00000E+00 0.00000E+00 0.00000E+00 0.00000E+00 0.00000E+00 5.77612E-03 5.77198E-03 2.53496E-02
      636  5.31986E-07 1.74400E-06-5.03709E-05 0.00000E+00 0.00000E+00 0.00000E+00 0.00000E+00 0.00000E+00 0.00000E+00 3.43973E-03 8.39594E-03 2.53496E-02
      639  4.55072E-07 1.61257E-06-5.03709E-05 0.00000E+00 0.00000E+00 0.00000E+00 0.00000E+00 0.00000E+00 0.00000E+00 3.10316E-03 7.55331E-03 2.53496E-02
      640  0.00000E+00 1.95848E-06-5.03709E-05 0.00000E+00 0.00000E+00 0.00000E+00 0.00000E+00 0.00000E+00 0.00000E+00 5.55500E-19 9.07336E-03 2.53496E-02
      643  0.00000E+00 1.96379E-06-5.03709E-05 0.00000E+00 0.00000E+00 0.00000E+00 0.00000E+00 0.00000E+00 0.00000E+00 4.99900E-19 8.16626E-03 2.53496E-02
      692  7.77029E-07 1.02561E-06-5.03709E-05 0.00000E+00 0.00000E+00 0.00000E+00 0.00000E+00 0.00000E+00 0.00000E+00 9.24108E-03 3.76763E-03 2.53496E-02
      694  8.11387E-07 1.40419E-06-5.03709E-05 0.00000E+00 0.00000E+00 0.00000E+00 0.00000E+00 0.00000E+00 0.00000E+00 7.06151E-03 7.05250E-03 2.53496E-02
      696  5.74127E-07 1.73123E-06-5.03709E-05 0.00000E+00 0.00000E+00 0.00000E+00 0.00000E+00 0.00000E+00 0.00000E+00 3.77627E-03 9.23833E-03 2.53496E-02
      698  0.00000E+00 2.07169E-06-5.03709E-05 0.00000E+00 0.00000E+00 0.00000E+00 0.00000E+00 0.00000E+00 0.00000E+00 6.11000E-19 9.98067E-03 2.53496E-02
      900  9.06391E-07 1.01481E-06-5.03709E-05 0.00000E+00 0.00000E+00 0.00000E+00 0.00000E+00 0.00000E+00 0.00000E+00 1.09280E-02 4.43601E-03 2.53496E-02
      902  8.47597E-07 1.04152E-06-5.03709E-05 0.00000E+00 0.00000E+00 0.00000E+00 0.00000E+00 0.00000E+00 0.00000E+00 1.00845E-02 4.10184E-03 2.53496E-02
      903  1.07433E-06 1.54374E-06-5.03709E-05 0.00000E+00 0.00000E+00 0.00000E+00 0.00000E+00 0.00000E+00 0.00000E+00 8.34717E-03 8.33314E-03 2.53496E-02
      905  9.41125E-07 1.47658E-06-5.03709E-05 0.00000E+00 0.00000E+00 0.00000E+00 0.00000E+00 0.00000E+00 0.00000E+00 7.70434E-03 7.69278E-03 2.53496E-02
      906  5.34624E-07 1.73375E-06-5.03709E-05 0.00000E+00 0.00000E+00 0.00000E+00 0.00000E+00 0.00000E+00 0.00000E+00 4.44923E-03 1.09232E-02 2.53496E-02
      908  5.66761E-07 1.67378E-06-5.03709E-05 0.00000E+00 0.00000E+00 0.00000E+00 0.00000E+00 0.00000E+00 0.00000E+00 4.11277E-03 1.00808E-02 2.53496E-02
      909  0.00000E+00 2.26920E-06-5.03709E-05 0.00000E+00 0.00000E+00 0.00000E+00 0.00000E+00 0.00000E+00 0.00000E+00 7.22100E-19 1.17952E-02 2.53496E-02
      911  0.00000E+00 2.16536E-06-5.03709E-05 0.00000E+00 0.00000E+00 0.00000E+00 0.00000E+00 0.00000E+00 0.00000E+00 6.66600E-19 1.08879E-02 2.53496E-02
     1012  5.61677E-07 8.97388E-07-5.03709E-05 0.00000E+00 0.00000E+00 0.00000E+00 0.00000E+00 0.00000E+00 0.00000E+00 6.71066E-03 2.76490E-03 2.53496E-02
     1013  6.75602E-07 1.33907E-06-5.03709E-05 0.00000E+00 0.00000E+00 0.00000E+00 0.00000E+00 0.00000E+00 0.00000E+00 5.13348E-03 5.13174E-03 2.53496E-02
     1014  3.92407E-07 1.58867E-06-5.03709E-05 0.00000E+00 0.00000E+00 0.00000E+00 0.00000E+00 0.00000E+00 0.00000E+00 2.76659E-03 6.71079E-03 2.53496E-02
     1015  0.00000E+00 1.87073E-06-5.03709E-05 0.00000E+00 0.00000E+00 0.00000E+00 0.00000E+00 0.00000E+00 0.00000E+00 4.44400E-19 7.25897E-03 2.53496E-02
     1060  7.60592E-07 8.88428E-07-5.03709E-05 0.00000E+00 0.00000E+00 0.00000E+00 0.00000E+00 0.00000E+00 0.00000E+00 1.17713E-02 4.77009E-03 2.53496E-02
     1061  7.31639E-07 1.50408E-06-5.03709E-05 0.00000E+00 0.00000E+00 0.00000E+00 0.00000E+00 0.00000E+00 0.00000E+00 8.98943E-03 8.97330E-03 2.53496E-02
     1062  6.47804E-07 1.98934E-06-5.03709E-05 0.00000E+00 0.00000E+00 0.00000E+00 0.00000E+00 0.00000E+00 0.00000E+00 4.78585E-03 1.17660E-02 2.53496E-02
     1063  0.00000E+00 2.64432E-06-5.03709E-05 0.00000E+00 0.00000E+00 0.00000E+00 0.00000E+00 0.00000E+00 0.00000E+00 7.77700E-19 1.27026E-02 2.53496E-02



 n o d a l   p r i n t   o u t   f o r   t i m e  s t e p     448                              ( at time 6.2030092E+00 )

 nodal point  x-disp     y-disp      z-disp      x-vel       y-vel       z-vel      x-accl      y-accl      z-accl      x-coor      y-coor      z-coor
        1  0.00000E+00 0.00000E+00 0.00000E+00 0.00000E+00 0.00000E+00 0.00000E+00 0.00000E+00 0.00000E+00 0.00000E+00 0.00000E+00 0.00000E+00 0.00000E+00
        2  3.14482E-06 0.00000E+00 0.00000E+00 0.00000E+00 0.00000E+00 0.00000E+00 0.00000E+00 0.00000E+00 0.00000E+00 7.96895E-04 0.00000E+00 0.00000E+00
        3  8.63771E-06 0.00000E+00 0.00000E+00 0.00000E+00 0.00000E+00 0.00000E+00 0.00000E+00 0.00000E+00 0.00000E+00 1.59614E-03 0.00000E+00 0.00000E+00
        4  1.71839E-05 0.00000E+00 0.00000E+00 0.00000E+00 0.00000E+00 0.00000E+00 0.00000E+00 0.00000E+00 0.00000E+00 2.39848E-03 0.00000E+00 0.00000E+00
        5  3.15023E-05 0.00000E+00 0.00000E+00 0.00000E+00 0.00000E+00 0.00000E+00 0.00000E+00 0.00000E+00 0.00000E+00 3.20650E-03 0.00000E+00 0.00000E+00
        6  3.46826E-05 1.67975E-05 0.00000E+00 0.00000E+00 0.00000E+00 0.00000E+00 0.00000E+00 0.00000E+00 0.00000E+00 2.96798E-03 1.23180E-03-1.78000E-18
        7  2.73862E-05 2.75175E-05 0.00000E+00 0.00000E+00 0.00000E+00 0.00000E+00 0.00000E+00 0.00000E+00 0.00000E+00 2.27249E-03 2.27262E-03-1.78000E-18
        8  1.53856E-05 3.33710E-05 0.00000E+00 0.00000E+00 0.00000E+00 0.00000E+00 0.00000E+00 0.00000E+00 0.00000E+00 1.23039E-03 2.96667E-03-1.78000E-18
        9  0.00000E+00 3.44737E-05 0.00000E+00 0.00000E+00 0.00000E+00 0.00000E+00 0.00000E+00 0.00000E+00 0.00000E+00 1.94400E-19 3.20947E-03-1.78000E-18
       10  0.00000E+00 2.11660E-05 0.00000E+00 0.00000E+00 0.00000E+00 0.00000E+00 0.00000E+00 0.00000E+00 0.00000E+00 1.45800E-19 2.40247E-03 0.00000E+00
       11  0.00000E+00 1.03009E-05 0.00000E+00 0.00000E+00 0.00000E+00 0.00000E+00 0.00000E+00 0.00000E+00 0.00000E+00 9.72100E-20 1.59780E-03 0.00000E+00
       12  0.00000E+00 3.21666E-06 0.00000E+00 0.00000E+00 0.00000E+00 0.00000E+00 0.00000E+00 0.00000E+00 0.00000E+00 4.86000E-20 7.96967E-04 0.00000E+00
       13  1.64100E-05 1.54685E-05 0.00000E+00 0.00000E+00 0.00000E+00 0.00000E+00 0.00000E+00 0.00000E+00 0.00000E+00 1.36831E-03 1.32377E-03 0.00000E+00
       14  1.68911E-05 9.51696E-06 0.00000E+00 0.00000E+00 0.00000E+00 0.00000E+00 0.00000E+00 0.00000E+00 0.00000E+00 1.52379E-03 6.79096E-04 0.00000E+00
       15  2.22206E-05 2.00641E-05 0.00000E+00 0.00000E+00 0.00000E+00 0.00000E+00 0.00000E+00 0.00000E+00 0.00000E+00 1.78972E-03 1.75636E-03 0.00000E+00
       16  2.59686E-05 1.15826E-05 0.00000E+00 0.00000E+00 0.00000E+00 0.00000E+00 0.00000E+00 0.00000E+00 0.00000E+00 2.21707E-03 9.31716E-04 0.00000E+00
       17  8.52627E-06 1.40865E-05 0.00000E+00 0.00000E+00 0.00000E+00 0.00000E+00 0.00000E+00 0.00000E+00 0.00000E+00 7.15503E-04 1.50239E-03 0.00000E+00
       18  1.23842E-05 2.22692E-05 0.00000E+00 0.00000E+00 0.00000E+00 0.00000E+00 0.00000E+00 0.00000E+00 0.00000E+00 9.63243E-04 2.18557E-03 0.00000E+00
       19  8.18255E-06 7.01042E-06 0.00000E+00 0.00000E+00 0.00000E+00 0.00000E+00 0.00000E+00 0.00000E+00 0.00000E+00 7.90637E-04 7.60799E-04 0.00000E+00
[...]
      179  5.63473E-07 3.56641E-07-9.73893E-04 0.00000E+00 0.00000E+00 0.00000E+00 0.00000E+00 0.00000E+00 0.00000E+00 4.49066E-03 4.49046E-03 2.44261E-02
      180  6.15837E-07 9.40283E-08-9.73893E-04 0.00000E+00 0.00000E+00 0.00000E+00 0.00000E+00 0.00000E+00 0.00000E+00 3.53362E-03 3.47079E-03 2.44261E-02
      181  5.35008E-07-5.10719E-07-9.73893E-04 0.00000E+00 0.00000E+00 0.00000E+00 0.00000E+00 0.00000E+00 0.00000E+00 4.38034E-03 1.83869E-03 2.44261E-02
      182  7.37164E-07-1.02990E-07-9.73893E-04 0.00000E+00 0.00000E+00 0.00000E+00 0.00000E+00 0.00000E+00 0.00000E+00 5.86744E-03 2.42970E-03 2.44261E-02
      247  9.27710E-07 0.00000E+00-9.73893E-04 0.00000E+00 0.00000E+00 0.00000E+00 0.00000E+00 0.00000E+00 0.00000E+00 1.58843E-03 0.00000E+00 2.44261E-02
      248  6.05215E-07-9.47893E-07-9.73893E-04 0.00000E+00 0.00000E+00 0.00000E+00 0.00000E+00 0.00000E+00 0.00000E+00 1.56451E-03 1.50545E-03 2.44261E-02
      249  0.00000E+00-2.41104E-07-9.73893E-04 0.00000E+00 0.00000E+00 0.00000E+00 0.00000E+00 0.00000E+00 0.00000E+00 9.72100E-20 1.58726E-03 2.44261E-02
      250  0.00000E+00 0.00000E+00-9.73893E-04 0.00000E+00 0.00000E+00 0.00000E+00 0.00000E+00 0.00000E+00 0.00000E+00 0.00000E+00 0.00000E+00 2.44261E-02
      283  1.06362E-06 0.00000E+00-9.73893E-04 0.00000E+00 0.00000E+00 0.00000E+00 0.00000E+00 0.00000E+00 0.00000E+00 3.17606E-03 0.00000E+00 2.44261E-02
      284  4.72385E-07-2.53153E-07-9.73893E-04 0.00000E+00 0.00000E+00 0.00000E+00 0.00000E+00 0.00000E+00 0.00000E+00 3.01227E-03 1.33785E-03 2.44261E-02
      333  3.90236E-07 1.57456E-07-9.73893E-04 0.00000E+00 0.00000E+00 0.00000E+00 0.00000E+00 0.00000E+00 0.00000E+00 1.41369E-03 2.97546E-03 2.44261E-02
      334  6.14881E-07-4.95937E-07-9.73893E-04 0.00000E+00 0.00000E+00 0.00000E+00 0.00000E+00 0.00000E+00 0.00000E+00 2.70331E-03 2.61500E-03 2.44261E-02
      335  4.38604E-07 4.44610E-07-9.73893E-04 0.00000E+00 0.00000E+00 0.00000E+00 0.00000E+00 0.00000E+00 0.00000E+00 1.90094E-03 4.32434E-03 2.44261E-02
      368  0.00000E+00 6.09237E-07-9.73893E-04 0.00000E+00 0.00000E+00 0.00000E+00 0.00000E+00 0.00000E+00 0.00000E+00 1.94400E-19 3.17561E-03 2.44261E-02
      369  0.00000E+00 8.93566E-07-9.73893E-04 0.00000E+00 0.00000E+00 0.00000E+00 0.00000E+00 0.00000E+00 0.00000E+00 2.91600E-19 4.76339E-03 2.44261E-02
      386  1.71403E-07 0.00000E+00-9.73893E-04 0.00000E+00 0.00000E+00 0.00000E+00 0.00000E+00 0.00000E+00 0.00000E+00 4.76267E-03 0.00000E+00 2.44261E-02
      403  1.46229E-07 0.00000E+00-9.73893E-04 0.00000E+00 0.00000E+00 0.00000E+00 0.00000E+00 0.00000E+00 0.00000E+00 6.35015E-03 0.00000E+00 2.44261E-02
      436  4.87196E-07 9.79413E-07-9.73893E-04 0.00000E+00 0.00000E+00 0.00000E+00 0.00000E+00 0.00000E+00 0.00000E+00 2.43029E-03 5.86768E-03 2.44261E-02
      437  0.00000E+00 1.21049E-06-9.73893E-04 0.00000E+00 0.00000E+00 0.00000E+00 0.00000E+00 0.00000E+00 0.00000E+00 3.88800E-19 6.35121E-03 2.44261E-02
      438  4.39631E-07 0.00000E+00-9.73893E-04 0.00000E+00 0.00000E+00 0.00000E+00 0.00000E+00 0.00000E+00 0.00000E+00 7.25754E-03 0.00000E+00 2.44261E-02
      439  5.81886E-07 0.00000E+00-9.73893E-04 0.00000E+00 0.00000E+00 0.00000E+00 0.00000E+00 0.00000E+00 0.00000E+00 8.16488E-03 0.00000E+00 2.44261E-02
      440  6.22697E-07 0.00000E+00-9.73893E-04 0.00000E+00 0.00000E+00 0.00000E+00 0.00000E+00 0.00000E+00 0.00000E+00 9.07202E-03 0.00000E+00 2.44261E-02
      441  6.38377E-07 0.00000E+00-9.73893E-04 0.00000E+00 0.00000E+00 0.00000E+00 0.00000E+00 0.00000E+00 0.00000E+00 9.97924E-03 0.00000E+00 2.44261E-02
      442  6.98177E-07 0.00000E+00-9.73893E-04 0.00000E+00 0.00000E+00 0.00000E+00 0.00000E+00 0.00000E+00 0.00000E+00 1.08864E-02 0.00000E+00 2.44261E-02
      443  7.25981E-07 0.00000E+00-9.73893E-04 0.00000E+00 0.00000E+00 0.00000E+00 0.00000E+00 0.00000E+00 0.00000E+00 1.17936E-02 0.00000E+00 2.44261E-02
      444  7.17420E-07 0.00000E+00-9.73893E-04 0.00000E+00 0.00000E+00 0.00000E+00 0.00000E+00 0.00000E+00 0.00000E+00 1.27007E-02 0.00000E+00 2.44261E-02
      628  6.55931E-07 1.38728E-08-9.73893E-04 0.00000E+00 0.00000E+00 0.00000E+00 0.00000E+00 0.00000E+00 0.00000E+00 8.39756E-03 3.43241E-03 2.44261E-02
      631  6.35825E-07 2.92733E-09-9.73893E-04 0.00000E+00 0.00000E+00 0.00000E+00 0.00000E+00 0.00000E+00 0.00000E+00 7.55414E-03 3.09820E-03 2.44261E-02
      632  5.27556E-07 6.17450E-07-9.73893E-04 0.00000E+00 0.00000E+00 0.00000E+00 0.00000E+00 0.00000E+00 0.00000E+00 6.41863E-03 6.41152E-03 2.44261E-02
      635  5.17084E-07 5.96829E-07-9.73893E-04 0.00000E+00 0.00000E+00 0.00000E+00 0.00000E+00 0.00000E+00 0.00000E+00 5.77592E-03 5.77120E-03 2.44261E-02
      636  2.14679E-07 9.28580E-07-9.73893E-04 0.00000E+00 0.00000E+00 0.00000E+00 0.00000E+00 0.00000E+00 0.00000E+00 3.43941E-03 8.39513E-03 2.44261E-02
      639  2.41467E-07 8.99217E-07-9.73893E-04 0.00000E+00 0.00000E+00 0.00000E+00 0.00000E+00 0.00000E+00 0.00000E+00 3.10294E-03 7.55260E-03 2.44261E-02
      640  0.00000E+00 1.71713E-06-9.73893E-04 0.00000E+00 0.00000E+00 0.00000E+00 0.00000E+00 0.00000E+00 0.00000E+00 5.55500E-19 9.07312E-03 2.44261E-02
      643  0.00000E+00 1.52764E-06-9.73893E-04 0.00000E+00 0.00000E+00 0.00000E+00 0.00000E+00 0.00000E+00 0.00000E+00 4.99900E-19 8.16583E-03 2.44261E-02
      692  7.07570E-07 1.16468E-09-9.73893E-04 0.00000E+00 0.00000E+00 0.00000E+00 0.00000E+00 0.00000E+00 0.00000E+00 9.24101E-03 3.76660E-03 2.44261E-02
      694  5.54201E-07 6.06616E-07-9.73893E-04 0.00000E+00 0.00000E+00 0.00000E+00 0.00000E+00 0.00000E+00 0.00000E+00 7.06125E-03 7.05171E-03 2.44261E-02
      696  1.72153E-07 8.53674E-07-9.73893E-04 0.00000E+00 0.00000E+00 0.00000E+00 0.00000E+00 0.00000E+00 0.00000E+00 3.77587E-03 9.23745E-03 2.44261E-02
      698  0.00000E+00 1.98508E-06-9.73893E-04 0.00000E+00 0.00000E+00 0.00000E+00 0.00000E+00 0.00000E+00 0.00000E+00 6.11000E-19 9.98059E-03 2.44261E-02
      900  7.68120E-07-6.16812E-08-9.73893E-04 0.00000E+00 0.00000E+00 0.00000E+00 0.00000E+00 0.00000E+00 0.00000E+00 1.09279E-02 4.43494E-03 2.44261E-02
      902  7.08245E-07-3.24286E-08-9.73893E-04 0.00000E+00 0.00000E+00 0.00000E+00 0.00000E+00 0.00000E+00 0.00000E+00 1.00844E-02 4.10077E-03 2.44261E-02
      903  6.34258E-07 6.60177E-07-9.73893E-04 0.00000E+00 0.00000E+00 0.00000E+00 0.00000E+00 0.00000E+00 0.00000E+00 8.34673E-03 8.33226E-03 2.44261E-02
      905  6.64792E-07 6.74697E-07-9.73893E-04 0.00000E+00 0.00000E+00 0.00000E+00 0.00000E+00 0.00000E+00 0.00000E+00 7.70406E-03 7.69197E-03 2.44261E-02
      906  1.81504E-07 1.09610E-06-9.73893E-04 0.00000E+00 0.00000E+00 0.00000E+00 0.00000E+00 0.00000E+00 0.00000E+00 4.44888E-03 1.09226E-02 2.44261E-02
      908  1.17142E-07 7.36833E-07-9.73893E-04 0.00000E+00 0.00000E+00 0.00000E+00 0.00000E+00 0.00000E+00 0.00000E+00 4.11232E-03 1.00798E-02 2.44261E-02
      909  0.00000E+00 1.33079E-06-9.73893E-04 0.00000E+00 0.00000E+00 0.00000E+00 0.00000E+00 0.00000E+00 0.00000E+00 7.22100E-19 1.17942E-02 2.44261E-02
      911  0.00000E+00 1.96398E-06-9.73893E-04 0.00000E+00 0.00000E+00 0.00000E+00 0.00000E+00 0.00000E+00 0.00000E+00 6.66600E-19 1.08877E-02 2.44261E-02
     1012  6.80881E-07-1.95814E-08-9.73893E-04 0.00000E+00 0.00000E+00 0.00000E+00 0.00000E+00 0.00000E+00 0.00000E+00 6.71078E-03 2.76398E-03 2.44261E-02
     1013  4.75298E-07 4.88429E-07-9.73893E-04 0.00000E+00 0.00000E+00 0.00000E+00 0.00000E+00 0.00000E+00 0.00000E+00 5.13328E-03 5.13089E-03 2.44261E-02
     1014  2.95116E-07 9.50870E-07-9.73893E-04 0.00000E+00 0.00000E+00 0.00000E+00 0.00000E+00 0.00000E+00 0.00000E+00 2.76650E-03 6.71015E-03 2.44261E-02
     1015  0.00000E+00 1.40479E-06-9.73893E-04 0.00000E+00 0.00000E+00 0.00000E+00 0.00000E+00 0.00000E+00 0.00000E+00 4.44400E-19 7.25850E-03 2.44261E-02
     1060  9.94960E-07-2.87417E-08-9.73893E-04 0.00000E+00 0.00000E+00 0.00000E+00 0.00000E+00 0.00000E+00 0.00000E+00 1.17715E-02 4.76917E-03 2.44261E-02
     1061  4.58647E-07 6.56109E-07-9.73893E-04 0.00000E+00 0.00000E+00 0.00000E+00 0.00000E+00 0.00000E+00 0.00000E+00 8.98916E-03 8.97246E-03 2.44261E-02
     1062  8.13716E-07 1.48071E-06-9.73893E-04 0.00000E+00 0.00000E+00 0.00000E+00 0.00000E+00 0.00000E+00 0.00000E+00 4.78601E-03 1.17655E-02 2.44261E-02
     1063  0.00000E+00-2.57888E-07-9.73893E-04 0.00000E+00 0.00000E+00 0.00000E+00 0.00000E+00 0.00000E+00 0.00000E+00 7.77700E-19 1.26997E-02 2.44261E-02



 n o d a l   p r i n t   o u t   f o r   t i m e  s t e p     888                              ( at time 9.9710089E+01 )

 nodal point  x-disp     y-disp      z-disp      x-vel       y-vel       z-vel      x-accl      y-accl      z-accl      x-coor      y-coor      z-coor
        1  0.00000E+00 0.00000E+00 0.00000E+00 0.00000E+00 0.00000E+00 0.00000E+00 0.00000E+00 0.00000E+00 0.00000E+00 0.00000E+00 0.00000E+00 0.00000E+00
        2  9.69474E-04 0.00000E+00 0.00000E+00 0.00000E+00 0.00000E+00 0.00000E+00 0.00000E+00 0.00000E+00 0.00000E+00 1.76322E-03 0.00000E+00 0.00000E+00
        3  1.53879E-03 0.00000E+00 0.00000E+00 0.00000E+00 0.00000E+00 0.00000E+00 0.00000E+00 0.00000E+00 0.00000E+00 3.12629E-03 0.00000E+00 0.00000E+00
        4  1.82230E-03 0.00000E+00 0.00000E+00 0.00000E+00 0.00000E+00 0.00000E+00 0.00000E+00 0.00000E+00 0.00000E+00 4.20360E-03 0.00000E+00 0.00000E+00
        5  2.13220E-03 0.00000E+00 0.00000E+00 0.00000E+00 0.00000E+00 0.00000E+00 0.00000E+00 0.00000E+00 0.00000E+00 5.30720E-03 0.00000E+00 0.00000E+00
        6  1.81600E-03 6.90337E-04 0.00000E+00 0.00000E+00 0.00000E+00 0.00000E+00 0.00000E+00 0.00000E+00 0.00000E+00 4.74930E-03 1.90534E-03-1.78000E-18
        7  1.23951E-03 1.17544E-03 0.00000E+00 0.00000E+00 0.00000E+00 0.00000E+00 0.00000E+00 0.00000E+00 0.00000E+00 3.48461E-03 3.42054E-03-1.78000E-18
        8  7.16791E-04 1.39515E-03 0.00000E+00 0.00000E+00 0.00000E+00 0.00000E+00 0.00000E+00 0.00000E+00 0.00000E+00 1.93179E-03 4.32845E-03-1.78000E-18
        9  0.00000E+00 1.61838E-03 0.00000E+00 0.00000E+00 0.00000E+00 0.00000E+00 0.00000E+00 0.00000E+00 0.00000E+00 1.94400E-19 4.79338E-03-1.78000E-18
       10  0.00000E+00 1.24571E-03 0.00000E+00 0.00000E+00 0.00000E+00 0.00000E+00 0.00000E+00 0.00000E+00 0.00000E+00 1.45800E-19 3.62701E-03 0.00000E+00
       11  0.00000E+00 7.84363E-04 0.00000E+00 0.00000E+00 0.00000E+00 0.00000E+00 0.00000E+00 0.00000E+00 0.00000E+00 9.72100E-20 2.37186E-03 0.00000E+00
       12  0.00000E+00 4.00336E-04 0.00000E+00 0.00000E+00 0.00000E+00 0.00000E+00 0.00000E+00 0.00000E+00 0.00000E+00 4.86000E-20 1.19409E-03 0.00000E+00
       13  1.15791E-03 6.44863E-04 0.00000E+00 0.00000E+00 0.00000E+00 0.00000E+00 0.00000E+00 0.00000E+00 0.00000E+00 2.50981E-03 1.95316E-03 0.00000E+00
       14  1.36240E-03 3.46650E-04 0.00000E+00 0.00000E+00 0.00000E+00 0.00000E+00 0.00000E+00 0.00000E+00 0.00000E+00 2.86930E-03 1.01623E-03 0.00000E+00
       15  1.21654E-03 8.54214E-04 0.00000E+00 0.00000E+00 0.00000E+00 0.00000E+00 0.00000E+00 0.00000E+00 0.00000E+00 2.98404E-03 2.59051E-03 0.00000E+00
       16  1.64168E-03 4.25166E-04 0.00000E+00 0.00000E+00 0.00000E+00 0.00000E+00 0.00000E+00 0.00000E+00 0.00000E+00 3.83278E-03 1.34530E-03 0.00000E+00
       17  6.21526E-04 7.62873E-04 0.00000E+00 0.00000E+00 0.00000E+00 0.00000E+00 0.00000E+00 0.00000E+00 0.00000E+00 1.32850E-03 2.25117E-03 0.00000E+00
       18  6.56691E-04 1.11049E-03 0.00000E+00 0.00000E+00 0.00000E+00 0.00000E+00 0.00000E+00 0.00000E+00 0.00000E+00 1.60755E-03 3.27379E-03 0.00000E+00
       19  8.30180E-04 4.00783E-04 0.00000E+00 0.00000E+00 0.00000E+00 0.00000E+00 0.00000E+00 0.00000E+00 0.00000E+00 1.61263E-03 1.15457E-03 0.00000E+00
      179  3.35176E-07 5.51044E-07-9.97101E-04 0.00000E+00 0.00000E+00 0.00000E+00 0.00000E+00 0.00000E+00 0.00000E+00 4.49044E-03 4.49065E-03 2.44029E-02
      180  5.69960E-07 2.74816E-07-9.97101E-04 0.00000E+00 0.00000E+00 0.00000E+00 0.00000E+00 0.00000E+00 0.00000E+00 3.53357E-03 3.47097E-03 2.44029E-02
      181  5.26722E-07-4.91928E-07-9.97101E-04 0.00000E+00 0.00000E+00 0.00000E+00 0.00000E+00 0.00000E+00 0.00000E+00 4.38033E-03 1.83871E-03 2.44029E-02
      182  5.19798E-07 6.21766E-08-9.97101E-04 0.00000E+00 0.00000E+00 0.00000E+00 0.00000E+00 0.00000E+00 0.00000E+00 5.86722E-03 2.42986E-03 2.44029E-02
      247  4.89248E-07 0.00000E+00-9.97101E-04 0.00000E+00 0.00000E+00 0.00000E+00 0.00000E+00 0.00000E+00 0.00000E+00 1.58799E-03 0.00000E+00 2.44029E-02
      248  2.34967E-07-7.99611E-07-9.97101E-04 0.00000E+00 0.00000E+00 0.00000E+00 0.00000E+00 0.00000E+00 0.00000E+00 1.56413E-03 1.50560E-03 2.44029E-02
      249  0.00000E+00 2.12250E-07-9.97101E-04 0.00000E+00 0.00000E+00 0.00000E+00 0.00000E+00 0.00000E+00 0.00000E+00 9.72100E-20 1.58771E-03 2.44029E-02
      250  0.00000E+00 0.00000E+00-9.97101E-04 0.00000E+00 0.00000E+00 0.00000E+00 0.00000E+00 0.00000E+00 0.00000E+00 0.00000E+00 0.00000E+00 2.44029E-02
      283  1.64644E-07 0.00000E+00-9.97101E-04 0.00000E+00 0.00000E+00 0.00000E+00 0.00000E+00 0.00000E+00 0.00000E+00 3.17516E-03 0.00000E+00 2.44029E-02
      284  3.22407E-07-5.56925E-07-9.97101E-04 0.00000E+00 0.00000E+00 0.00000E+00 0.00000E+00 0.00000E+00 0.00000E+00 3.01212E-03 1.33754E-03 2.44029E-02
      333  1.72953E-07 2.38401E-08-9.97101E-04 0.00000E+00 0.00000E+00 0.00000E+00 0.00000E+00 0.00000E+00 0.00000E+00 1.41347E-03 2.97532E-03 2.44029E-02
      334  2.65497E-07-1.52429E-07-9.97101E-04 0.00000E+00 0.00000E+00 0.00000E+00 0.00000E+00 0.00000E+00 0.00000E+00 2.70297E-03 2.61535E-03 2.44029E-02
      335  4.38145E-07 2.87419E-07-9.97101E-04 0.00000E+00 0.00000E+00 0.00000E+00 0.00000E+00 0.00000E+00 0.00000E+00 1.90094E-03 4.32419E-03 2.44029E-02
      368  0.00000E+00 8.22302E-07-9.97101E-04 0.00000E+00 0.00000E+00 0.00000E+00 0.00000E+00 0.00000E+00 0.00000E+00 1.94400E-19 3.17582E-03 2.44029E-02
      369  0.00000E+00 7.11811E-07-9.97101E-04 0.00000E+00 0.00000E+00 0.00000E+00 0.00000E+00 0.00000E+00 0.00000E+00 2.91600E-19 4.76321E-03 2.44029E-02
      386 -4.49191E-07 0.00000E+00-9.97101E-04 0.00000E+00 0.00000E+00 0.00000E+00 0.00000E+00 0.00000E+00 0.00000E+00 4.76205E-03 0.00000E+00 2.44029E-02
      403 -4.78808E-07 0.00000E+00-9.97101E-04 0.00000E+00 0.00000E+00 0.00000E+00 0.00000E+00 0.00000E+00 0.00000E+00 6.34952E-03 0.00000E+00 2.44029E-02
      436  3.93041E-07 9.97009E-07-9.97101E-04 0.00000E+00 0.00000E+00 0.00000E+00 0.00000E+00 0.00000E+00 0.00000E+00 2.43019E-03 5.86770E-03 2.44029E-02
      437  0.00000E+00 9.18277E-07-9.97101E-04 0.00000E+00 0.00000E+00 0.00000E+00 0.00000E+00 0.00000E+00 0.00000E+00 3.88800E-19 6.35092E-03 2.44029E-02
      438 -1.76600E-07 0.00000E+00-9.97101E-04 0.00000E+00 0.00000E+00 0.00000E+00 0.00000E+00 0.00000E+00 0.00000E+00 7.25692E-03 0.00000E+00 2.44029E-02
      439 -4.37912E-08 0.00000E+00-9.97101E-04 0.00000E+00 0.00000E+00 0.00000E+00 0.00000E+00 0.00000E+00 0.00000E+00 8.16426E-03 0.00000E+00 2.44029E-02
      440 -1.47958E-08 0.00000E+00-9.97101E-04 0.00000E+00 0.00000E+00 0.00000E+00 0.00000E+00 0.00000E+00 0.00000E+00 9.07139E-03 0.00000E+00 2.44029E-02
      441 -2.05925E-08 0.00000E+00-9.97101E-04 0.00000E+00 0.00000E+00 0.00000E+00 0.00000E+00 0.00000E+00 0.00000E+00 9.97858E-03 0.00000E+00 2.44029E-02
      442 -2.23490E-08 0.00000E+00-9.97101E-04 0.00000E+00 0.00000E+00 0.00000E+00 0.00000E+00 0.00000E+00 0.00000E+00 1.08857E-02 0.00000E+00 2.44029E-02
      443 -5.17942E-08 0.00000E+00-9.97101E-04 0.00000E+00 0.00000E+00 0.00000E+00 0.00000E+00 0.00000E+00 0.00000E+00 1.17928E-02 0.00000E+00 2.44029E-02
      444 -2.04687E-07 0.00000E+00-9.97101E-04 0.00000E+00 0.00000E+00 0.00000E+00 0.00000E+00 0.00000E+00 0.00000E+00 1.26998E-02 0.00000E+00 2.44029E-02
      628  2.49548E-07 1.78555E-07-9.97101E-04 0.00000E+00 0.00000E+00 0.00000E+00 0.00000E+00 0.00000E+00 0.00000E+00 8.39715E-03 3.43258E-03 2.44029E-02
      631  2.56609E-07 1.54480E-07-9.97101E-04 0.00000E+00 0.00000E+00 0.00000E+00 0.00000E+00 0.00000E+00 0.00000E+00 7.55376E-03 3.09835E-03 2.44029E-02
      632  3.59127E-07 7.33962E-07-9.97101E-04 0.00000E+00 0.00000E+00 0.00000E+00 0.00000E+00 0.00000E+00 0.00000E+00 6.41846E-03 6.41163E-03 2.44029E-02
      635  3.55173E-07 7.63566E-07-9.97101E-04 0.00000E+00 0.00000E+00 0.00000E+00 0.00000E+00 0.00000E+00 0.00000E+00 5.77576E-03 5.77136E-03 2.44029E-02
      636  1.48078E-07 7.63947E-07-9.97101E-04 0.00000E+00 0.00000E+00 0.00000E+00 0.00000E+00 0.00000E+00 0.00000E+00 3.43935E-03 8.39496E-03 2.44029E-02
      639  1.74528E-07 8.40315E-07-9.97101E-04 0.00000E+00 0.00000E+00 0.00000E+00 0.00000E+00 0.00000E+00 0.00000E+00 3.10287E-03 7.55254E-03 2.44029E-02
      640  0.00000E+00 1.65517E-06-9.97101E-04 0.00000E+00 0.00000E+00 0.00000E+00 0.00000E+00 0.00000E+00 0.00000E+00 5.55500E-19 9.07306E-03 2.44029E-02
      643  0.00000E+00 1.56930E-06-9.97101E-04 0.00000E+00 0.00000E+00 0.00000E+00 0.00000E+00 0.00000E+00 0.00000E+00 4.99900E-19 8.16587E-03 2.44029E-02
      692  2.51117E-07 1.70186E-07-9.97101E-04 0.00000E+00 0.00000E+00 0.00000E+00 0.00000E+00 0.00000E+00 0.00000E+00 9.24055E-03 3.76677E-03 2.44029E-02
      694  3.96560E-07 7.17424E-07-9.97101E-04 0.00000E+00 0.00000E+00 0.00000E+00 0.00000E+00 0.00000E+00 0.00000E+00 7.06110E-03 7.05182E-03 2.44029E-02
      696  1.15960E-07 6.46194E-07-9.97101E-04 0.00000E+00 0.00000E+00 0.00000E+00 0.00000E+00 0.00000E+00 0.00000E+00 3.77582E-03 9.23725E-03 2.44029E-02
      698  0.00000E+00 1.79865E-06-9.97101E-04 0.00000E+00 0.00000E+00 0.00000E+00 0.00000E+00 0.00000E+00 0.00000E+00 6.11000E-19 9.98040E-03 2.44029E-02
      900  2.42050E-07 8.13201E-08-9.97101E-04 0.00000E+00 0.00000E+00 0.00000E+00 0.00000E+00 0.00000E+00 0.00000E+00 1.09273E-02 4.43508E-03 2.44029E-02
      902  2.32619E-07 1.38248E-07-9.97101E-04 0.00000E+00 0.00000E+00 0.00000E+00 0.00000E+00 0.00000E+00 0.00000E+00 1.00839E-02 4.10094E-03 2.44029E-02
      903  4.71309E-07 7.21624E-07-9.97101E-04 0.00000E+00 0.00000E+00 0.00000E+00 0.00000E+00 0.00000E+00 0.00000E+00 8.34657E-03 8.33232E-03 2.44029E-02
      905  4.75002E-07 7.44186E-07-9.97101E-04 0.00000E+00 0.00000E+00 0.00000E+00 0.00000E+00 0.00000E+00 0.00000E+00 7.70388E-03 7.69204E-03 2.44029E-02
      906  1.43938E-07 9.42991E-07-9.97101E-04 0.00000E+00 0.00000E+00 0.00000E+00 0.00000E+00 0.00000E+00 0.00000E+00 4.44884E-03 1.09224E-02 2.44029E-02
      908  8.16016E-08 5.93797E-07-9.97101E-04 0.00000E+00 0.00000E+00 0.00000E+00 0.00000E+00 0.00000E+00 0.00000E+00 4.11228E-03 1.00797E-02 2.44029E-02
      909  0.00000E+00 1.15530E-06-9.97101E-04 0.00000E+00 0.00000E+00 0.00000E+00 0.00000E+00 0.00000E+00 0.00000E+00 7.22100E-19 1.17941E-02 2.44029E-02
      911  0.00000E+00 1.74904E-06-9.97101E-04 0.00000E+00 0.00000E+00 0.00000E+00 0.00000E+00 0.00000E+00 0.00000E+00 6.66600E-19 1.08874E-02 2.44029E-02
     1012  3.27176E-07 1.10455E-07-9.97101E-04 0.00000E+00 0.00000E+00 0.00000E+00 0.00000E+00 0.00000E+00 0.00000E+00 6.71043E-03 2.76411E-03 2.44029E-02
     1013  3.51902E-07 7.31790E-07-9.97101E-04 0.00000E+00 0.00000E+00 0.00000E+00 0.00000E+00 0.00000E+00 0.00000E+00 5.13315E-03 5.13113E-03 2.44029E-02
     1014  2.55160E-07 9.96033E-07-9.97101E-04 0.00000E+00 0.00000E+00 0.00000E+00 0.00000E+00 0.00000E+00 0.00000E+00 2.76646E-03 6.71020E-03 2.44029E-02
     1015  0.00000E+00 1.34512E-06-9.97101E-04 0.00000E+00 0.00000E+00 0.00000E+00 0.00000E+00 0.00000E+00 0.00000E+00 4.44400E-19 7.25845E-03 2.44029E-02
     1060  2.98320E-07 1.80239E-08-9.97101E-04 0.00000E+00 0.00000E+00 0.00000E+00 0.00000E+00 0.00000E+00 0.00000E+00 1.17708E-02 4.76922E-03 2.44029E-02
     1061  3.56954E-08 5.94720E-07-9.97101E-04 0.00000E+00 0.00000E+00 0.00000E+00 0.00000E+00 0.00000E+00 0.00000E+00 8.98874E-03 8.97239E-03 2.44029E-02
     1062  6.67374E-07 1.40293E-06-9.97101E-04 0.00000E+00 0.00000E+00 0.00000E+00 0.00000E+00 0.00000E+00 0.00000E+00 4.78587E-03 1.17654E-02 2.44029E-02
     1063  0.00000E+00 3.06627E-07-9.97101E-04 0.00000E+00 0.00000E+00 0.00000E+00 0.00000E+00 0.00000E+00 0.00000E+00 7.77700E-19 1.27003E-02 2.44029E-02
