 LS-DYNA keyword deck by LS-PrePost                                      
                    ls-dyna smp d R14 R14.1.1s_1_ef50e1 date 06/16/2024



 n o d a l  s t r e s s  c a l c u l a t i o n s   f o r   t i m e  s t e p        1   ( at time 0.00000E+00 )

 node (global)
          stress       sig-xx      sig-yy      sig-zz      sig-xy      sig-yz      sig-zx       plastic
                                                                                                 strain 
       1-
 mid.  surface     5.3602E-05  5.3602E-05  5.3602E-05  0.0000E+00  0.0000E+00  0.0000E+00  0.0000E+00
       2-
 mid.  surface     9.5276E-05  9.5276E-05  9.5276E-05  0.0000E+00  0.0000E+00  0.0000E+00  0.0000E+00
       8-
 mid.  surface     3.1932E-05  3.1932E-05  3.1932E-05  0.0000E+00  0.0000E+00  0.0000E+00  0.0000E+00
       9-
 mid.  surface    -2.9208E-05 -2.9208E-05 -2.9208E-05  0.0000E+00  0.0000E+00  0.0000E+00  0.0000E+00
      10-
 mid.  surface     4.4959E-05  4.4959E-05  4.4959E-05  0.0000E+00  0.0000E+00  0.0000E+00  0.0000E+00
      11-
 mid.  surface     2.9827E-05  2.9827E-05  2.9827E-05  0.0000E+00  0.0000E+00  0.0000E+00  0.0000E+00
      12-
 mid.  surface     5.5756E-05  5.5756E-05  5.5756E-05  0.0000E+00  0.0000E+00  0.0000E+00  0.0000E+00
      17-
 mid.  surface    -2.1580E-05 -2.1580E-05 -2.1580E-05  0.0000E+00  0.0000E+00  0.0000E+00  0.0000E+00
      18-
 mid.  surface     2.1147E-05  2.1147E-05  2.1147E-05  0.0000E+00  0.0000E+00  0.0000E+00  0.0000E+00
      19-
 mid.  surface     7.9568E-05  7.9568E-05  7.9568E-05  0.0000E+00  0.0000E+00  0.0000E+00  0.0000E+00
      20-
 mid.  surface    -2.1451E-05 -2.1451E-05 -2.1451E-05  0.0000E+00  0.0000E+00  0.0000E+00  0.0000E+00
      21-
 mid.  surface    -2.6336E-05 -2.6336E-05 -2.6336E-05  0.0000E+00  0.0000E+00  0.0000E+00  0.0000E+00
      22-
 mid.  surface    -2.2547E-05 -2.2547E-05 -2.2547E-05  0.0000E+00  0.0000E+00  0.0000E+00  0.0000E+00
      23-
 mid.  surface     3.9965E-05  3.9965E-05  3.9965E-05  0.0000E+00  0.0000E+00  0.0000E+00  0.0000E+00
      24-
 mid.  surface    -3.6755E-05 -3.6755E-05 -3.6755E-05  0.0000E+00  0.0000E+00  0.0000E+00  0.0000E+00
      25-
 mid.  surface    -1.1793E-04 -1.1793E-04 -1.1793E-04  0.0000E+00  0.0000E+00  0.0000E+00  0.0000E+00
      26-
 mid.  surface    -2.6337E-05 -2.6337E-05 -2.6337E-05  0.0000E+00  0.0000E+00  0.0000E+00  0.0000E+00
      27-
 mid.  surface     1.7217E-05  1.7217E-05  1.7217E-05  0.0000E+00  0.0000E+00  0.0000E+00  0.0000E+00
      28-
 mid.  surface    -7.0051E-05 -7.0051E-05 -7.0051E-05  0.0000E+00  0.0000E+00  0.0000E+00  0.0000E+00
      29-
 mid.  surface     2.3031E-05  2.3031E-05  2.3031E-05  0.0000E+00  0.0000E+00  0.0000E+00  0.0000E+00
      30-
 mid.  surface     1.0553E-04  1.0553E-04  1.0553E-04  0.0000E+00  0.0000E+00  0.0000E+00  0.0000E+00
      31-
 mid.  surface     2.1940E-06  2.1940E-06  2.1940E-06  0.0000E+00  0.0000E+00  0.0000E+00  0.0000E+00
      52-
 mid.  surface     2.4654E-05  2.4654E-05  2.4654E-05  0.0000E+00  0.0000E+00  0.0000E+00  0.0000E+00
      53-
 mid.  surface     1.0593E-05  1.0593E-05  1.0593E-05  0.0000E+00  0.0000E+00  0.0000E+00  0.0000E+00
      54-
 mid.  surface    -2.6127E-07 -2.6127E-07 -2.6127E-07  0.0000E+00  0.0000E+00  0.0000E+00  0.0000E+00
      55-
 mid.  surface     1.9499E-05  1.9499E-05  1.9499E-05  0.0000E+00  0.0000E+00  0.0000E+00  0.0000E+00
      56-
 mid.  surface     3.6803E-05  3.6803E-05  3.6803E-05  0.0000E+00  0.0000E+00  0.0000E+00  0.0000E+00
      57-
 mid.  surface     6.2769E-05  6.2769E-05  6.2769E-05  0.0000E+00  0.0000E+00  0.0000E+00  0.0000E+00
     124-
 mid.  surface     1.8158E-05  1.8158E-05  1.8158E-05  0.0000E+00  0.0000E+00  0.0000E+00  0.0000E+00
     125-
 mid.  surface     1.3029E-05  1.3029E-05  1.3029E-05  0.0000E+00  0.0000E+00  0.0000E+00  0.0000E+00
     126-
 mid.  surface    -9.8736E-05 -9.8736E-05 -9.8736E-05  0.0000E+00  0.0000E+00  0.0000E+00  0.0000E+00
     127-
 mid.  surface    -8.0053E-05 -8.0053E-05 -8.0053E-05  0.0000E+00  0.0000E+00  0.0000E+00  0.0000E+00
     128-
 mid.  surface     5.3601E-05  5.3601E-05  5.3601E-05  0.0000E+00  0.0000E+00  0.0000E+00  0.0000E+00
     129-
 mid.  surface     9.5276E-05  9.5276E-05  9.5276E-05  0.0000E+00  0.0000E+00  0.0000E+00  0.0000E+00
     148-
 mid.  surface    -1.7321E-05 -1.7321E-05 -1.7321E-05  0.0000E+00  0.0000E+00  0.0000E+00  0.0000E+00
     149-
 mid.  surface    -3.8993E-05 -3.8993E-05 -3.8993E-05  0.0000E+00  0.0000E+00  0.0000E+00  0.0000E+00
     150-
 mid.  surface     3.0263E-05  3.0263E-05  3.0263E-05  0.0000E+00  0.0000E+00  0.0000E+00  0.0000E+00
     164-
 mid.  surface    -6.5754E-05 -6.5754E-05 -6.5754E-05  0.0000E+00  0.0000E+00  0.0000E+00  0.0000E+00
     165-
 mid.  surface    -4.6276E-05 -4.6276E-05 -4.6276E-05  0.0000E+00  0.0000E+00  0.0000E+00  0.0000E+00
     166-
 mid.  surface     2.0005E-05  2.0005E-05  2.0005E-05  0.0000E+00  0.0000E+00  0.0000E+00  0.0000E+00



 n o d a l  s t r a i n  c a l c u l a t i o n s   f o r   t i m e  s t e p        1   ( at time 0.00000E+00 )

 node (global)
          strain       eps-xx      eps-yy      eps-zz      eps-xy      eps-yz      eps-zx       
       1-
 mid.  surface     0.0000E+00  0.0000E+00  0.0000E+00  0.0000E+00  0.0000E+00  0.0000E+00
       2-
 mid.  surface     0.0000E+00  0.0000E+00  0.0000E+00  0.0000E+00  0.0000E+00  0.0000E+00
       8-
 mid.  surface     0.0000E+00  0.0000E+00  0.0000E+00  0.0000E+00  0.0000E+00  0.0000E+00
       9-
 mid.  surface     0.0000E+00  0.0000E+00  0.0000E+00  0.0000E+00  0.0000E+00  0.0000E+00
      10-
 mid.  surface     0.0000E+00  0.0000E+00  0.0000E+00  0.0000E+00  0.0000E+00  0.0000E+00
      11-
 mid.  surface     0.0000E+00  0.0000E+00  0.0000E+00  0.0000E+00  0.0000E+00  0.0000E+00
      12-
 mid.  surface     0.0000E+00  0.0000E+00  0.0000E+00  0.0000E+00  0.0000E+00  0.0000E+00
      17-
 mid.  surface     0.0000E+00  0.0000E+00  0.0000E+00  0.0000E+00  0.0000E+00  0.0000E+00
      18-
 mid.  surface     0.0000E+00  0.0000E+00  0.0000E+00  0.0000E+00  0.0000E+00  0.0000E+00
      19-
 mid.  surface     0.0000E+00  0.0000E+00  0.0000E+00  0.0000E+00  0.0000E+00  0.0000E+00
      20-
 mid.  surface     0.0000E+00  0.0000E+00  0.0000E+00  0.0000E+00  0.0000E+00  0.0000E+00
      21-
 mid.  surface     0.0000E+00  0.0000E+00  0.0000E+00  0.0000E+00  0.0000E+00  0.0000E+00
      22-
 mid.  surface     0.0000E+00  0.0000E+00  0.0000E+00  0.0000E+00  0.0000E+00  0.0000E+00
      23-
 mid.  surface     0.0000E+00  0.0000E+00  0.0000E+00  0.0000E+00  0.0000E+00  0.0000E+00
      24-
 mid.  surface     0.0000E+00  0.0000E+00  0.0000E+00  0.0000E+00  0.0000E+00  0.0000E+00
      25-
 mid.  surface     0.0000E+00  0.0000E+00  0.0000E+00  0.0000E+00  0.0000E+00  0.0000E+00
      26-
 mid.  surface     0.0000E+00  0.0000E+00  0.0000E+00  0.0000E+00  0.0000E+00  0.0000E+00
      27-
 mid.  surface     0.0000E+00  0.0000E+00  0.0000E+00  0.0000E+00  0.0000E+00  0.0000E+00
      28-
 mid.  surface     0.0000E+00  0.0000E+00  0.0000E+00  0.0000E+00  0.0000E+00  0.0000E+00
      29-
 mid.  surface     0.0000E+00  0.0000E+00  0.0000E+00  0.0000E+00  0.0000E+00  0.0000E+00
      30-
 mid.  surface     0.0000E+00  0.0000E+00  0.0000E+00  0.0000E+00  0.0000E+00  0.0000E+00
      31-
 mid.  surface     0.0000E+00  0.0000E+00  0.0000E+00  0.0000E+00  0.0000E+00  0.0000E+00
      52-
 mid.  surface     0.0000E+00  0.0000E+00  0.0000E+00  0.0000E+00  0.0000E+00  0.0000E+00
      53-
 mid.  surface     0.0000E+00  0.0000E+00  0.0000E+00  0.0000E+00  0.0000E+00  0.0000E+00
      54-
 mid.  surface     0.0000E+00  0.0000E+00  0.0000E+00  0.0000E+00  0.0000E+00  0.0000E+00
      55-
 mid.  surface     0.0000E+00  0.0000E+00  0.0000E+00  0.0000E+00  0.0000E+00  0.0000E+00
      56-
 mid.  surface     0.0000E+00  0.0000E+00  0.0000E+00  0.0000E+00  0.0000E+00  0.0000E+00
      57-
 mid.  surface     0.0000E+00  0.0000E+00  0.0000E+00  0.0000E+00  0.0000E+00  0.0000E+00
     124-
 mid.  surface     0.0000E+00  0.0000E+00  0.0000E+00  0.0000E+00  0.0000E+00  0.0000E+00
     125-
 mid.  surface     0.0000E+00  0.0000E+00  0.0000E+00  0.0000E+00  0.0000E+00  0.0000E+00
     126-
 mid.  surface     0.0000E+00  0.0000E+00  0.0000E+00  0.0000E+00  0.0000E+00  0.0000E+00
     127-
 mid.  surface     0.0000E+00  0.0000E+00  0.0000E+00  0.0000E+00  0.0000E+00  0.0000E+00
     128-
 mid.  surface     0.0000E+00  0.0000E+00  0.0000E+00  0.0000E+00  0.0000E+00  0.0000E+00
     129-
 mid.  surface     0.0000E+00  0.0000E+00  0.0000E+00  0.0000E+00  0.0000E+00  0.0000E+00
     148-
 mid.  surface     0.0000E+00  0.0000E+00  0.0000E+00  0.0000E+00  0.0000E+00  0.0000E+00
     149-
 mid.  surface     0.0000E+00  0.0000E+00  0.0000E+00  0.0000E+00  0.0000E+00  0.0000E+00
     150-
 mid.  surface     0.0000E+00  0.0000E+00  0.0000E+00  0.0000E+00  0.0000E+00  0.0000E+00
     164-
 mid.  surface     0.0000E+00  0.0000E+00  0.0000E+00  0.0000E+00  0.0000E+00  0.0000E+00
     165-
 mid.  surface     0.0000E+00  0.0000E+00  0.0000E+00  0.0000E+00  0.0000E+00  0.0000E+00
     166-
 mid.  surface     0.0000E+00  0.0000E+00  0.0000E+00  0.0000E+00  0.0000E+00  0.0000E+00



 n o d a l  s t r e s s  c a l c u l a t i o n s   f o r   t i m e  s t e p       14   ( at time 1.29245E+00 )

 node (global)
          stress       sig-xx      sig-yy      sig-zz      sig-xy      sig-yz      sig-zx       plastic
                                                                                                 strain 
       1-
 mid.  surface    -1.3580E+07 -3.0420E+07 -2.7879E+08  2.5350E+07 -7.1268E+06 -2.9522E+07 -4.0572E-05
       2-
 mid.  surface    -4.5641E+07 -3.7897E+07 -2.6699E+08  1.4911E+07 -1.4508E+06 -8.3663E+06  3.5386E-04
       8-
 mid.  surface    -2.4110E+07  1.9990E+07 -2.1776E+08 -3.7009E+06 -6.5365E+06  2.0703E+06  5.5253E-05
       9-
 mid.  surface    -3.5314E+07 -1.5643E+07 -2.9438E+08 -9.8864E+06 -1.1776E+07  3.6195E+06  1.5094E-04
      10-
 mid.  surface    -3.2604E+07 -1.2668E+07 -2.9378E+08  6.5304E+06 -1.3623E+07  7.4194E+06  1.5798E-04
      11-
 mid.  surface    -1.6464E+07 -1.5935E+07 -2.7643E+08  1.4395E+07 -4.7214E+07 -1.0516E+07  1.0381E-04
      12-
 mid.  surface    -1.8329E+07 -2.2009E+07 -2.7955E+08  9.9815E+06 -4.3572E+07 -2.5973E+07 -3.8508E-05
      17-
 mid.  surface    -1.7392E+06 -1.7855E+07 -2.2589E+08  1.4907E+07 -2.0279E+07 -1.9057E+07  1.5764E-04
      18-
 mid.  surface    -1.7949E+07  9.1897E+06 -2.2310E+08  1.6461E+07 -3.0755E+06 -5.4689E+06  8.1888E-05
      19-
 mid.  surface    -2.4511E+07 -2.7881E+07 -2.4881E+08 -1.5203E+06 -1.3447E+07 -1.4443E+07  2.3503E-04
      20-
 mid.  surface    -1.8672E+06 -1.3763E+07 -2.4754E+08  1.2666E+07 -1.1666E+07 -7.5623E+06  1.6735E-07
      21-
 mid.  surface    -2.0337E+07 -2.4913E+07 -2.5313E+08 -6.3183E+05 -4.7503E+06 -7.4162E+06  1.3074E-04
      22-
 mid.  surface    -1.0957E+07 -1.5495E+07 -2.8475E+08  9.2043E+06 -2.2397E+07 -4.1351E+07 -1.4683E-04
      23-
 mid.  surface    -9.1380E+06 -8.4329E+06 -2.8304E+08  1.3406E+07 -2.8752E+07 -2.6737E+07 -4.4133E-05
      24-
 mid.  surface    -2.7477E+07 -3.2545E+07 -2.2514E+08  5.2001E+06 -2.0157E+07 -1.2562E+07  1.0072E-04
      25-
 mid.  surface    -2.7110E+07 -3.2594E+07 -2.1787E+08 -2.7323E+05 -1.0581E+07 -1.7219E+07  1.4955E-04
      26-
 mid.  surface    -1.9139E+07 -2.1162E+07 -2.3963E+08  5.1674E+06 -3.7126E+07 -6.5712E+07 -1.0593E-05
      27-
 mid.  surface    -1.8312E+07 -1.6562E+07 -2.3552E+08  8.0343E+06 -4.7356E+07 -4.1695E+07  2.9457E-05
      28-
 mid.  surface    -5.0234E+07 -5.3198E+07 -2.3851E+08 -8.5607E+05 -2.7426E+07 -2.2868E+07  0.0000E+00
      29-
 mid.  surface    -3.8262E+07 -4.1664E+07 -2.2033E+08 -1.6467E+06 -1.7016E+07 -3.3251E+07  0.0000E+00
      30-
 mid.  surface    -3.8999E+07 -3.7873E+07 -2.2776E+08  6.9328E+05 -4.7539E+07 -7.7797E+07  0.0000E+00
      31-
 mid.  surface    -4.0058E+07 -3.9004E+07 -2.2733E+08  2.8438E+06 -5.8058E+07 -4.7092E+07  0.0000E+00
      52-
 mid.  surface    -2.6867E+07 -9.6249E+06 -2.9472E+08  6.0629E+06 -2.6459E+07 -1.1801E+07  2.9238E-05
      53-
 mid.  surface    -1.6758E+07  7.2059E+06 -2.3490E+08  1.3282E+07 -1.7317E+07 -6.8991E+06 -1.3173E-05
      54-
 mid.  surface    -3.3466E+07 -2.5722E+07 -2.4595E+08  3.0222E+06 -4.4444E+07 -1.9268E+07  7.0897E-05
      55-
 mid.  surface    -3.1571E+07 -1.9153E+07 -2.1506E+08  5.4864E+06 -2.8161E+07 -9.8771E+06  8.5479E-05
      56-
 mid.  surface    -5.0417E+07 -5.0943E+07 -2.3944E+08 -2.4934E+05 -5.5560E+07 -2.2402E+07  0.0000E+00
      57-
 mid.  surface    -4.8272E+07 -4.5853E+07 -2.3028E+08 -1.4456E+05 -3.7586E+07 -1.5389E+07  0.0000E+00
     124-
 mid.  surface    -3.4961E+07 -3.3698E+07 -2.6104E+08  1.0410E+07  1.1755E+07 -1.3491E+07  2.2654E-04
     125-
 mid.  surface    -1.1884E+07 -2.9950E+07 -2.8853E+08  1.9520E+07  2.9884E+07 -5.0120E+07 -1.6437E-04
     126-
 mid.  surface    -2.5932E+07 -3.3973E+07 -2.1190E+08  1.3431E+06  1.3275E+07 -2.6305E+07  1.5861E-04
     127-
 mid.  surface    -3.1520E+07 -4.5958E+07 -2.5318E+08  7.3253E+06  4.5231E+07 -8.1361E+07 -4.5256E-05
     128-
 mid.  surface    -2.9551E+07 -3.8552E+07 -2.0308E+08 -4.4959E+06  8.6662E+06 -4.0399E+07  0.0000E+00
     129-
 mid.  surface    -6.0809E+07 -7.0508E+07 -2.4333E+08 -7.0473E+05  4.2832E+07 -9.5658E+07  0.0000E+00
     148-
 mid.  surface    -2.0494E+07  1.8936E+07 -2.3199E+08 -2.5666E+06 -1.6889E+07  3.5872E+06 -5.3824E-05
     149-
 mid.  surface    -3.1919E+07 -9.3792E+06 -2.1727E+08 -5.5242E+05 -2.6086E+07  7.1364E+06  4.5547E-05
     150-
 mid.  surface    -4.7507E+07 -3.8039E+07 -2.3121E+08  9.6807E+05 -3.3877E+07  5.6881E+06  0.0000E+00
     164-
 mid.  surface    -2.8762E+07 -1.2326E+07 -2.9550E+08 -7.4521E+06 -2.9363E+07 -1.0747E+07  1.9295E-05
     165-
 mid.  surface    -3.2560E+07 -2.9049E+07 -2.4752E+08 -2.8197E+06 -5.0714E+07 -1.8111E+07  5.2185E-05
     166-
 mid.  surface    -4.8946E+07 -5.6904E+07 -2.3870E+08 -1.9058E+05 -6.1918E+07 -2.1092E+07  0.0000E+00



 n o d a l  s t r a i n  c a l c u l a t i o n s   f o r   t i m e  s t e p       14   ( at time 1.29245E+00 )

 node (global)
          strain       eps-xx      eps-yy      eps-zz      eps-xy      eps-yz      eps-zx       
       1-
 mid.  surface     1.2285E-03  8.8235E-04 -3.6439E-03  4.7209E-04 -1.2503E-04 -5.5609E-04
       2-
 mid.  surface     1.2932E-03  1.3906E-03 -4.3496E-03  3.2476E-04 -3.3326E-05 -2.8307E-04
       8-
 mid.  surface     6.4795E-04  1.5410E-03 -3.2437E-03 -7.3042E-05 -1.1132E-04  3.0070E-05
       9-
 mid.  surface     1.1675E-03  1.5525E-03 -4.3624E-03 -1.7882E-04 -2.6042E-04  5.5008E-05
      10-
 mid.  surface     1.1972E-03  1.5864E-03 -4.3962E-03  1.3773E-04 -2.7778E-04  1.0578E-04
      11-
 mid.  surface     1.3209E-03  1.2860E-03 -4.0764E-03  2.7559E-04 -8.7713E-04 -2.5110E-04
      12-
 mid.  surface     1.1303E-03  1.0334E-03 -3.6839E-03  1.7338E-04 -7.7638E-04 -5.1130E-04
      17-
 mid.  surface     1.3461E-03  1.0625E-03 -3.5761E-03  3.1702E-04 -3.1716E-04 -4.1836E-04
      18-
 mid.  surface     8.5347E-04  1.4194E-03 -3.3748E-03  3.2360E-04 -5.0052E-05 -1.3845E-04
      19-
 mid.  surface     1.2785E-03  1.2278E-03 -3.9381E-03  4.8155E-06 -1.7799E-04 -3.6150E-04
      20-
 mid.  surface     1.2277E-03  1.0112E-03 -3.4900E-03  2.4866E-04 -2.2302E-04 -1.2328E-04
      21-
 mid.  surface     1.1999E-03  1.1237E-03 -3.7418E-03  5.2686E-06 -1.1340E-04 -1.7566E-04
      22-
 mid.  surface     1.0888E-03  1.0050E-03 -3.5726E-03  1.5234E-04 -3.9642E-04 -7.1508E-04
      23-
 mid.  surface     1.2199E-03  1.2016E-03 -3.8514E-03  2.3759E-04 -5.0546E-04 -4.7246E-04
      24-
 mid.  surface     9.5610E-04  8.6632E-04 -3.1771E-03  1.1513E-04 -4.4528E-04 -2.9519E-04
      25-
 mid.  surface     9.9254E-04  8.7735E-04 -3.1889E-03  1.0971E-05 -2.4591E-04 -4.1644E-04
      26-
 mid.  surface     9.5855E-04  9.2335E-04 -3.2122E-03  9.9478E-05 -7.0884E-04 -1.2431E-03
      27-
 mid.  surface     9.7596E-04  1.0070E-03 -3.2684E-03  1.5425E-04 -9.1048E-04 -8.0985E-04
      28-
 mid.  surface     6.7561E-04  6.1905E-04 -2.9175E-03 -1.6355E-05 -5.2344E-04 -4.3644E-04
      29-
 mid.  surface     7.0459E-04  6.3985E-04 -2.7700E-03 -3.1453E-05 -3.2472E-04 -6.3468E-04
      30-
 mid.  surface     7.1146E-04  7.3288E-04 -2.8910E-03  1.3348E-05 -9.0695E-04 -1.4845E-03
      31-
 mid.  surface     6.9969E-04  7.1981E-04 -2.8745E-03  5.4333E-05 -1.1079E-03 -8.9858E-04
      52-
 mid.  surface     1.1081E-03  1.4235E-03 -4.1065E-03  1.1597E-04 -5.1808E-04 -2.2775E-04
      53-
 mid.  surface     8.2788E-04  1.3002E-03 -3.2897E-03  2.5700E-04 -3.4077E-04 -1.1960E-04
      54-
 mid.  surface     8.9688E-04  1.0510E-03 -3.3980E-03  6.3661E-05 -9.0143E-04 -3.9282E-04
      55-
 mid.  surface     7.6141E-04  1.0148E-03 -3.0386E-03  1.1553E-04 -6.0739E-04 -2.1715E-04
      56-
 mid.  surface     6.6658E-04  6.5653E-04 -2.9412E-03 -4.6566E-06 -1.0602E-03 -4.2716E-04
      57-
 mid.  surface     6.2926E-04  6.7540E-04 -2.8443E-03 -2.7479E-06 -7.1732E-04 -2.9367E-04
     124-
 mid.  surface     1.2032E-03  1.2105E-03 -3.9806E-03  2.2363E-04  1.1476E-04 -3.1987E-04
     125-
 mid.  surface     1.1361E-03  8.1319E-04 -3.5184E-03  3.5930E-04  5.3521E-04 -8.6889E-04
     126-
 mid.  surface     9.9945E-04  8.2942E-04 -3.1208E-03  3.8427E-05  1.7426E-04 -5.8561E-04
     127-
 mid.  surface     9.2153E-04  6.5982E-04 -3.1517E-03  1.4064E-04  8.2053E-04 -1.5171E-03
     128-
 mid.  surface     7.3191E-04  5.6022E-04 -2.5802E-03 -8.5785E-05  1.6555E-04 -7.7063E-04
     129-
 mid.  surface     6.3048E-04  4.4490E-04 -2.8535E-03 -1.3316E-05  8.1781E-04 -1.8246E-03
     148-
 mid.  surface     6.5788E-04  1.4216E-03 -3.1894E-03 -5.1443E-05 -2.9204E-04  8.9197E-05
     149-
 mid.  surface     6.7449E-04  1.1206E-03 -3.0233E-03 -6.7057E-06 -5.3175E-04  1.3347E-04
     150-
 mid.  surface     6.0723E-04  7.8792E-04 -2.8986E-03  1.8481E-05 -6.4628E-04  1.0875E-04
     164-
 mid.  surface     1.0923E-03  1.3885E-03 -4.0813E-03 -1.3872E-04 -5.6559E-04 -2.0056E-04
     165-
 mid.  surface     9.1192E-04  9.8533E-04 -3.3662E-03 -4.9947E-05 -1.0060E-03 -3.5265E-04
     166-
 mid.  surface     7.1258E-04  5.6088E-04 -2.9092E-03 -3.4898E-06 -1.1812E-03 -4.0199E-04



 n o d a l  s t r e s s  c a l c u l a t i o n s   f o r   t i m e  s t e p       49   ( at time 2.54839E+00 )

 node (global)
          stress       sig-xx      sig-yy      sig-zz      sig-xy      sig-yz      sig-zx       plastic
                                                                                                 strain 
       1-
 mid.  surface    -6.0107E+07 -1.4170E+07 -3.6644E+08  5.3711E+07 -2.6313E+07  8.7072E+07 -1.0933E-03
       2-
 mid.  surface    -5.6364E+08 -4.7307E+08 -8.1091E+08  3.4767E+07 -2.8815E+07  1.2207E+08  1.5026E-02
       8-
 mid.  surface     4.1986E+07  9.3011E+07 -1.8251E+08 -1.9602E+07  1.1777E+07  1.2549E+06  1.3858E-03
       9-
 mid.  surface    -8.3242E+07 -8.9956E+07 -3.4952E+08 -2.2567E+07  1.2600E+07  7.4633E+06  8.1282E-03
      10-
 mid.  surface    -1.2073E+08 -1.3818E+08 -3.1817E+08  7.7090E+06 -3.8728E+07  1.3438E+07  1.2794E-02
      11-
 mid.  surface     1.9468E+08  1.8457E+08 -9.3073E+07  3.2608E+07 -1.5525E+08 -5.0279E+07  1.6493E-03
      12-
 mid.  surface     1.8213E+08  2.0349E+08  3.0284E+07  1.1171E+07 -1.7194E+08 -4.2529E+07  6.3334E-03
      17-
 mid.  surface     2.0155E+08  1.8728E+08 -3.5238E+07  3.1267E+07 -1.1715E+08 -6.8118E+07  7.9819E-04
      18-
 mid.  surface    -4.3324E+06  2.5373E+07 -1.4970E+08  1.1407E+07 -2.1214E+07 -1.7801E+07  2.6450E-03
      19-
 mid.  surface    -1.6569E+08 -1.4389E+08 -2.7586E+08 -2.2032E+06 -1.2853E+08 -2.5926E+07  1.3763E-02
      20-
 mid.  surface     1.2209E+08  1.1093E+08 -1.4322E+08  2.2966E+07  7.6304E+06  4.1996E+06 -1.0649E-03
      21-
 mid.  surface    -1.1535E+08 -1.0581E+08 -2.6361E+08  2.8628E+06 -1.6290E+07  2.4514E+07  1.3996E-02
      22-
 mid.  surface     1.6321E+08  1.7078E+08 -3.3074E+07  2.0472E+07 -3.2092E+07 -2.5576E+07 -1.2012E-04
      23-
 mid.  surface     1.1107E+08  1.0284E+08 -1.7811E+08  2.5326E+07 -4.6355E+06 -4.4399E+06  5.7645E-03
      24-
 mid.  surface    -1.8156E+07 -1.7649E+07 -2.8243E+08  8.1090E+06 -3.2873E+07 -1.0967E+07  5.1044E-03
      25-
 mid.  surface    -3.9656E+07 -5.8333E+07 -2.2051E+08  3.9559E+06 -4.7126E+07  2.2989E+07  1.2264E-02
      26-
 mid.  surface     1.1360E+08  1.0691E+08 -1.4129E+08  3.0453E+07 -6.2407E+07 -6.9381E+07  3.5277E-04
      27-
 mid.  surface    -1.1290E+06 -8.6777E+05 -2.4716E+08  1.8150E+07 -4.2004E+07 -2.8650E+07  5.8156E-03
      28-
 mid.  surface    -1.8005E+08 -1.7322E+08 -4.0958E+08 -2.2926E+06 -5.8759E+07 -2.0127E+07  1.2692E-03
      29-
 mid.  surface    -1.1418E+08 -1.6053E+08 -3.0143E+08 -1.7447E+07 -6.1585E+07 -1.9383E+07  2.7265E-03
      30-
 mid.  surface    -2.5850E+07 -4.1460E+07 -3.0093E+08  1.6997E+07 -9.5567E+07 -1.2627E+08  7.3147E-04
      31-
 mid.  surface    -1.4100E+08 -1.3578E+08 -3.1717E+08  1.6039E+07 -8.6108E+07 -1.8450E+07  2.0200E-03
      52-
 mid.  surface    -1.1521E+08 -1.2227E+08 -3.5515E+08  5.2766E+06  1.6126E+07  1.1940E+06  1.1821E-02
      53-
 mid.  surface    -2.0929E+07  4.0307E+06 -2.2744E+08  9.7929E+06  1.9492E+07 -1.5206E+06  2.2900E-03
      54-
 mid.  surface    -7.3443E+07 -7.4507E+07 -3.0093E+08  9.7485E+06 -3.6842E+07 -1.7165E+07  7.3348E-03
      55-
 mid.  surface    -4.8139E+07 -3.7962E+07 -3.0369E+08  3.7401E+06 -3.7102E+07 -1.7225E+07  4.5974E-03
      56-
 mid.  surface    -1.5434E+08 -1.5660E+08 -2.5913E+08  1.5147E+07 -6.6604E+07 -5.6807E+06  2.4374E-03
      57-
 mid.  surface    -1.8656E+08 -1.8005E+08 -3.5952E+08 -4.6841E+06 -8.1369E+07 -2.0779E+07  1.9052E-03
     124-
 mid.  surface    -4.3757E+08 -3.8553E+08 -6.2258E+08  1.5413E+07  7.3992E+07 -3.1818E+07  1.7755E-02
     125-
 mid.  surface    -7.8388E+07 -6.3693E+07 -3.4196E+08  3.7156E+07  1.3641E+08 -8.2061E+07 -9.5019E-03
     126-
 mid.  surface    -1.7129E+08 -1.9165E+08 -2.5428E+08 -1.3604E+07  9.9477E+07 -1.7788E+07  1.6630E-02
     127-
 mid.  surface    -8.3065E+07 -1.1503E+08 -3.3833E+08  1.4995E+07  1.9250E+08 -1.3025E+08 -4.9447E-03
     128-
 mid.  surface    -1.0792E+08 -1.6082E+08 -7.7616E+07 -4.5950E+07  1.1890E+08 -1.0945E+08  4.6056E-03
     129-
 mid.  surface    -1.2059E+08 -1.7868E+08 -3.6605E+08 -1.6371E+07  2.0929E+08 -2.5896E+08 -2.5642E-04
     148-
 mid.  surface     1.2439E+07  6.1666E+07 -2.4411E+08 -7.6146E+06  6.1824E+05 -7.1186E+04 -2.3834E-03
     149-
 mid.  surface    -3.1302E+07 -5.9142E+06 -3.1785E+08 -2.7242E+06 -5.0840E+07 -8.8142E+06  2.3288E-03
     150-
 mid.  surface    -1.8087E+08 -1.8739E+08 -3.5448E+08 -3.9551E+06 -1.0254E+08 -8.9813E+06  2.0322E-03
     164-
 mid.  surface    -7.8692E+07 -7.7616E+07 -3.6961E+08 -1.4919E+07 -1.8718E+06 -2.6781E+07  5.7707E-03
     165-
 mid.  surface    -2.7201E+07 -2.6417E+07 -2.8166E+08 -8.0837E+06 -5.1782E+07 -6.2494E+07  6.0590E-03
     166-
 mid.  surface    -8.2218E+07 -9.9248E+07 -1.8174E+08 -1.2687E+06 -7.8320E+07 -6.4974E+07  2.4535E-03



 n o d a l  s t r a i n  c a l c u l a t i o n s   f o r   t i m e  s t e p       49   ( at time 2.54839E+00 )

 node (global)
          strain       eps-xx      eps-yy      eps-zz      eps-xy      eps-yz      eps-zx       
       1-
 mid.  surface     2.4978E-03  5.6896E-03 -1.0160E-02  3.3131E-03 -9.9878E-04  3.9488E-03
       2-
 mid.  surface     2.8021E-03  7.2723E-03 -1.8706E-02  1.5124E-03 -2.2262E-04  4.9801E-03
       8-
 mid.  surface     2.9787E-03  6.3290E-03 -9.5583E-03 -1.2790E-03  9.4399E-04  1.4462E-04
       9-
 mid.  surface     6.4821E-03  6.1446E-03 -1.5188E-02 -1.4073E-03  7.0761E-04  4.1005E-04
      10-
 mid.  surface     6.7194E-03  5.3940E-03 -1.4942E-02  6.7387E-04 -2.1104E-03  9.6261E-04
      11-
 mid.  surface     7.4274E-03  6.7691E-03 -1.2947E-02  2.2129E-03 -9.7944E-03 -3.2000E-03
      12-
 mid.  surface     4.5366E-03  6.1515E-03 -8.8071E-03  1.2049E-03 -9.3788E-03 -4.8261E-03
      17-
 mid.  surface     7.1639E-03  6.1557E-03 -1.1734E-02  2.0700E-03 -7.5038E-03 -5.0292E-03
      18-
 mid.  surface     3.9648E-03  5.7254E-03 -1.0341E-02  8.7602E-04 -1.2486E-03 -1.0565E-03
      19-
 mid.  surface     5.4093E-03  6.0867E-03 -1.4362E-02  2.4439E-05 -5.7914E-03 -4.4117E-03
      20-
 mid.  surface     6.1417E-03  5.3601E-03 -1.1126E-02  1.4133E-03  8.5650E-04  3.5199E-04
      21-
 mid.  surface     5.5614E-03  5.5548E-03 -1.3519E-02  2.5611E-04 -3.9043E-04  6.1059E-04
      22-
 mid.  surface     5.0390E-03  5.5793E-03 -9.2806E-03  1.5142E-03 -1.9765E-03 -1.7418E-03
      23-
 mid.  surface     6.3432E-03  5.8538E-03 -1.2094E-02  1.5886E-03  5.3530E-04 -3.5233E-04
      24-
 mid.  surface     3.8079E-03  3.6529E-03 -8.9769E-03  3.8436E-04 -1.1232E-03 -6.0548E-05
      25-
 mid.  surface     4.8205E-03  3.6089E-03 -1.0000E-02  1.0606E-04 -1.9225E-03  6.7281E-05
      26-
 mid.  surface     4.8203E-03  4.4791E-03 -8.9581E-03  1.5021E-03 -4.1749E-03 -3.5220E-03
      27-
 mid.  surface     3.9656E-03  4.1564E-03 -9.3277E-03  8.5600E-04 -1.8984E-03 -1.4916E-03
      28-
 mid.  surface     1.7837E-03  1.9847E-03 -7.3855E-03 -5.3459E-05 -1.9889E-03 -6.8570E-04
      29-
 mid.  surface     3.2793E-03  1.2339E-03 -7.2452E-03 -4.6771E-04 -2.4508E-03 -5.6421E-04
      30-
 mid.  surface     3.4452E-03  2.9968E-03 -8.1709E-03  9.7292E-04 -6.0831E-03 -3.8764E-03
      31-
 mid.  surface     2.0324E-03  2.4767E-03 -7.3488E-03  6.8667E-04 -4.1691E-03 -1.2221E-03
      52-
 mid.  surface     5.8362E-03  5.3044E-03 -1.4009E-02  4.0668E-04  3.4964E-04 -6.4487E-04
      53-
 mid.  surface     3.8410E-03  5.2903E-03 -1.0304E-02  6.7055E-04  3.9122E-04 -5.3151E-04
      54-
 mid.  surface     3.6955E-03  3.7775E-03 -9.6361E-03  4.6029E-04 -2.3387E-03 -1.1123E-03
      55-
 mid.  surface     3.2390E-03  3.5803E-03 -8.6714E-03  3.0932E-04 -2.3902E-03 -8.7480E-04
      56-
 mid.  surface     1.5168E-03  1.6317E-03 -5.8832E-03  6.4230E-04 -4.0980E-03 -6.6812E-04
      57-
 mid.  surface     1.7732E-03  1.7503E-03 -6.9802E-03 -1.2050E-04 -3.9762E-03 -1.1737E-03
     124-
 mid.  surface     3.2552E-03  5.7507E-03 -1.5883E-02  6.5505E-04  3.4698E-03 -2.7566E-03
     125-
 mid.  surface     3.2272E-03  4.1734E-03 -9.6954E-03  2.2177E-03  7.0276E-03 -4.6342E-03
     126-
 mid.  surface     3.2063E-03  2.6393E-03 -8.8650E-03 -6.0778E-04  4.2273E-03 -3.8080E-03
     127-
 mid.  surface     3.6563E-03  1.7425E-03 -7.9632E-03  5.3160E-04  9.9040E-03 -7.1593E-03
     128-
 mid.  surface     1.6342E-03  1.5933E-04 -3.4572E-03 -1.3719E-03  3.7736E-03 -5.9035E-03
     129-
 mid.  surface     2.3067E-03 -2.8081E-04 -5.1114E-03 -6.1745E-04  9.1060E-03 -9.8436E-03
     148-
 mid.  surface     3.1532E-03  6.1872E-03 -1.0156E-02 -5.1076E-04  2.8900E-04  4.5937E-05
     149-
 mid.  surface     3.0159E-03  4.2602E-03 -8.9731E-03 -4.9379E-05 -3.0299E-03 -7.8289E-05
     150-
 mid.  surface     1.9720E-03  1.5251E-03 -6.9511E-03  8.1265E-05 -5.5045E-03 -2.8452E-04
     164-
 mid.  surface     5.9829E-03  6.0985E-03 -1.4639E-02 -9.2965E-04  3.9365E-05 -1.7709E-03
     165-
 mid.  surface     4.1111E-03  4.2611E-03 -1.0016E-02 -4.6703E-04 -2.8632E-03 -2.8780E-03
     166-
 mid.  surface     2.0865E-03  1.4559E-03 -5.3024E-03  1.9878E-05 -4.8654E-03 -2.7988E-03



 n o d a l  s t r e s s  c a l c u l a t i o n s   f o r   t i m e  s t e p      133   ( at time 3.17785E+00 )

 node (global)
          stress       sig-xx      sig-yy      sig-zz      sig-xy      sig-yz      sig-zx       plastic
                                                                                                 strain 
       1-
 mid.  surface    -1.9655E+08 -6.9879E+07 -6.0994E+08  9.1067E+07  2.3063E+07  4.1047E+08 -6.4844E-03
       2-
 mid.  surface    -1.0012E+09 -8.4880E+08 -1.4033E+09  8.3444E+07 -1.2378E+07  3.9034E+08  1.3085E-02
       8-
 mid.  surface     1.0171E+08  1.4798E+08 -1.6394E+08 -1.7713E+07  4.4645E+07 -3.1496E+06  5.3002E-03
       9-
 mid.  surface    -1.1813E+08 -1.2747E+08 -4.2138E+08 -2.3984E+07  5.6247E+07  2.4442E+06  1.4676E-02
      10-
 mid.  surface    -3.2451E+08 -3.8381E+08 -4.0769E+08 -7.0282E+05 -3.7480E+07  4.7816E+06  2.7865E-02
      11-
 mid.  surface     4.2786E+08  3.9312E+08  8.9244E+07  5.4542E+07 -2.3379E+08 -9.7886E+07  4.7832E-03
      12-
 mid.  surface     3.9748E+08  4.4055E+08  4.2659E+08  4.0257E+06 -2.6897E+08  6.6281E+07  2.5606E-02
      17-
 mid.  surface     4.4540E+08  4.4080E+08  1.8856E+08  4.7233E+07 -2.1125E+08 -1.1939E+08  5.6588E-03
      18-
 mid.  surface    -8.2054E+07 -6.2667E+07 -9.4846E+07 -7.7753E+06 -2.3169E+07 -3.7837E+07  1.6081E-02
      19-
 mid.  surface    -2.3975E+08 -2.0011E+08 -1.9139E+08  3.3740E+06 -2.5140E+08  4.9653E+07  3.6507E-02
      20-
 mid.  surface     2.9671E+08  2.9248E+08  2.2893E+07  3.9555E+07 -1.0840E+06  1.7236E+07  2.8530E-03
      21-
 mid.  surface    -1.6018E+08 -1.4488E+08 -1.8842E+08  1.0840E+07 -9.6994E+07  3.3768E+07  3.2545E-02
      22-
 mid.  surface     3.7249E+08  3.9269E+08  2.9991E+08  2.8054E+07 -7.2019E+07  2.1192E+07  1.4298E-02
      23-
 mid.  surface     2.4686E+08  2.2653E+08 -5.6173E+07  4.5895E+07 -2.3835E+06  2.1139E+07  9.8822E-03
      24-
 mid.  surface     1.6144E+07  2.3986E+07 -2.4731E+08  1.4846E+07 -3.0360E+07 -1.0353E+06  8.6931E-03
      25-
 mid.  surface    -1.1793E+07 -6.2913E+07 -1.7759E+08  1.2271E+07 -1.2244E+08  4.1750E+07  2.3484E-02
      26-
 mid.  surface     3.1561E+08  2.9871E+08  5.2363E+07  6.6521E+07 -7.4375E+07 -1.5128E+07  6.3399E-03
      27-
 mid.  surface     2.0591E+07  1.8142E+07 -2.1702E+08  3.3752E+07 -2.6442E+07 -1.1964E+07  1.0258E-02
      28-
 mid.  surface    -3.0972E+08 -2.8707E+08 -5.3145E+08 -1.2632E+07 -4.1360E+07  4.1425E+06  4.5172E-03
      29-
 mid.  surface    -1.4412E+08 -2.5378E+08 -3.3211E+08 -2.9562E+07 -6.5868E+07 -6.5817E+07  9.1132E-03
      30-
 mid.  surface     5.6040E+07  1.5995E+07 -2.3812E+08  4.9167E+07 -4.6203E+07 -1.3879E+08  2.2537E-03
      31-
 mid.  surface    -2.4107E+08 -2.3064E+08 -3.9109E+08  2.2562E+07 -6.8631E+07  1.8241E+07  6.2408E-03
      52-
 mid.  surface    -2.6268E+08 -2.9879E+08 -4.3790E+08  4.3576E+06  4.4094E+07  2.2052E+07  2.2850E-02
      53-
 mid.  surface    -7.1260E+07 -5.6011E+07 -2.0096E+08 -2.5333E+06  4.0283E+07  1.5639E+07  1.2049E-02
      54-
 mid.  surface    -1.2614E+08 -1.3488E+08 -3.4487E+08  1.4604E+07 -2.0697E+07 -1.6760E+07  1.2706E-02
      55-
 mid.  surface    -8.5201E+07 -8.1413E+07 -3.1839E+08 -2.1839E+06 -2.1059E+07 -1.5238E+07  9.8999E-03
      56-
 mid.  surface    -2.0326E+08 -2.1029E+08 -2.6025E+08  2.2713E+07 -7.7795E+07 -3.7597E+06  7.2589E-03
      57-
 mid.  surface    -2.7324E+08 -2.8069E+08 -3.9363E+08 -8.2662E+06 -8.8096E+07 -1.4194E+07  7.2177E-03
     124-
 mid.  surface    -8.3762E+08 -7.3368E+08 -1.0616E+09  3.9533E+07  1.1727E+08 -1.1721E+08  2.1649E-02
     125-
 mid.  surface    -2.0133E+08 -1.3206E+08 -5.1320E+08  6.3452E+07  2.5358E+08 -9.1710E+07 -1.2075E-02
     126-
 mid.  surface    -3.9730E+08 -4.3134E+08 -3.8374E+08 -3.7898E+07  1.4834E+08 -9.4895E+07  2.7725E-02
     127-
 mid.  surface    -1.6028E+08 -1.8615E+08 -3.9709E+08  1.6347E+07  3.6138E+08 -1.2325E+08 -3.8908E-03
     128-
 mid.  surface    -1.6739E+08 -2.7853E+08  2.1923E+08 -1.1487E+08  2.0807E+08 -3.7425E+08  1.8747E-02
     129-
 mid.  surface    -4.6251E+07 -1.2843E+08 -7.9235E+07 -5.1598E+07  4.2136E+08 -4.5269E+08  2.6293E-04
     148-
 mid.  surface     5.5789E+07  9.2985E+07 -2.3010E+08 -1.2593E+07 -1.7831E+07 -6.7798E+05  8.7626E-04
     149-
 mid.  surface    -3.7284E+07 -1.4189E+07 -3.3854E+08 -8.2600E+06 -5.0066E+07 -2.3088E+07  5.2559E-03
     150-
 mid.  surface    -2.5362E+08 -2.6729E+08 -3.9487E+08 -1.1415E+07 -1.1637E+08 -1.7565E+07  7.1553E-03
     164-
 mid.  surface    -1.0749E+08 -1.1499E+08 -4.2492E+08 -1.7460E+07 -7.3940E+06 -3.0646E+07  1.0950E-02
     165-
 mid.  surface    -3.2581E+07 -2.7801E+07 -3.1328E+08 -1.2133E+07 -4.4397E+07 -7.7563E+07  9.4491E-03
     166-
 mid.  surface    -7.6543E+07 -8.4453E+07 -1.5310E+08 -1.0832E+07 -9.9298E+07 -6.9918E+07  6.9886E-03



 n o d a l  s t r a i n  c a l c u l a t i o n s   f o r   t i m e  s t e p      133   ( at time 3.17785E+00 )

 node (global)
          strain       eps-xx      eps-yy      eps-zz      eps-xy      eps-yz      eps-zx       
       1-
 mid.  surface     1.2493E-03  1.0153E-02 -1.5360E-02  6.0254E-03 -2.1714E-03  1.3674E-02
       2-
 mid.  surface     1.9684E-03  1.1430E-02 -2.8517E-02  2.6828E-03 -7.6880E-04  1.4906E-02
       8-
 mid.  surface     4.9653E-03  9.6524E-03 -1.4248E-02 -1.7951E-03  3.0192E-03 -4.0030E-05
       9-
 mid.  surface     1.0144E-02  9.4259E-03 -2.2848E-02 -2.1881E-03  3.1221E-03  3.4660E-04
      10-
 mid.  surface     1.0736E-02  5.7973E-03 -2.1947E-02  8.0908E-04 -1.9768E-03  1.3770E-03
      11-
 mid.  surface     1.2091E-02  1.0311E-02 -1.8243E-02  4.3138E-03 -1.7844E-02 -7.2128E-03
      12-
 mid.  surface     6.7988E-03  1.0116E-02 -1.1108E-02  2.7811E-03 -1.7598E-02 -9.3998E-03
      17-
 mid.  surface     1.1070E-02  1.0391E-02 -1.6508E-02  3.6423E-03 -1.5055E-02 -1.0074E-02
      18-
 mid.  surface     6.1222E-03  7.5264E-03 -1.4844E-02  6.2687E-04 -6.9083E-04 -1.5987E-03
      19-
 mid.  surface     8.1016E-03  9.3507E-03 -2.0594E-02  8.7048E-04 -1.1963E-02 -8.5560E-03
      20-
 mid.  surface     9.5926E-03  8.9006E-03 -1.5664E-02  2.6725E-03  1.7898E-03  1.2478E-03
      21-
 mid.  surface     8.9157E-03  8.0743E-03 -1.9497E-02  9.0904E-04 -7.5697E-04  1.7785E-03
      22-
 mid.  surface     8.1610E-03  9.1088E-03 -1.2388E-02  3.3141E-03 -3.5089E-03 -2.0805E-03
      23-
 mid.  surface     1.0301E-02  9.0577E-03 -1.7482E-02  3.1463E-03  1.8070E-03  5.9405E-04
      24-
 mid.  surface     5.7756E-03  5.8603E-03 -1.2617E-02  7.4326E-04 -1.2638E-03  2.6148E-04
      25-
 mid.  surface     8.3863E-03  4.7620E-03 -1.4445E-02  4.6582E-04 -3.6317E-03  1.2108E-03
      26-
 mid.  surface     8.4625E-03  7.4976E-03 -1.2853E-02  3.7410E-03 -7.2385E-03 -4.5942E-03
      27-
 mid.  surface     6.1725E-03  6.3590E-03 -1.3410E-02  1.7138E-03 -1.7695E-03 -1.5240E-03
      28-
 mid.  surface     2.2475E-03  3.0666E-03 -1.0651E-02 -4.5905E-04 -2.1229E-03 -2.6899E-04
      29-
 mid.  surface     6.2363E-03  1.1335E-03 -1.0803E-02 -4.9905E-04 -3.6170E-03  1.0487E-03
      30-
 mid.  surface     6.4638E-03  5.5394E-03 -1.2731E-02  3.2747E-03 -1.0034E-02 -3.9980E-03
      31-
 mid.  surface     2.6256E-03  3.4893E-03 -1.0231E-02  1.1376E-03 -5.1596E-03 -4.9966E-04
      52-
 mid.  surface     9.2014E-03  6.4934E-03 -2.0508E-02  6.1517E-04  4.3290E-04 -9.7129E-04
      53-
 mid.  surface     6.0248E-03  7.3059E-03 -1.4906E-02  5.0604E-04  1.8797E-04 -7.1634E-04
      54-
 mid.  surface     5.5337E-03  5.2977E-03 -1.3744E-02  8.1608E-04 -2.9882E-03 -1.7882E-03
      55-
 mid.  surface     5.0145E-03  5.1752E-03 -1.2487E-02  1.9764E-04 -3.4968E-03 -1.5779E-03
      56-
 mid.  surface     1.8979E-03  1.9471E-03 -7.0794E-03  1.1798E-03 -6.3431E-03 -7.8419E-04
      57-
 mid.  surface     2.6987E-03  1.9918E-03 -9.1964E-03 -2.8489E-04 -6.4905E-03 -1.8015E-03
     124-
 mid.  surface     2.4751E-03  8.3991E-03 -2.3317E-02  8.8327E-04  6.1721E-03 -6.0287E-03
     125-
 mid.  surface     2.5526E-03  6.9824E-03 -1.3500E-02  4.1002E-03  1.2474E-02 -7.9969E-03
     126-
 mid.  surface     3.0693E-03  2.3605E-03 -1.1313E-02 -1.9417E-03  8.0483E-03 -7.0018E-03
     127-
 mid.  surface     4.5403E-03  2.3670E-03 -1.0427E-02  4.8856E-04  1.8040E-02 -1.1131E-02
     128-
 mid.  surface     1.4849E-03 -2.2287E-03 -3.6190E-04 -3.5776E-03  7.9198E-03 -1.3571E-02
     129-
 mid.  surface     3.7004E-03 -9.5442E-04 -3.7813E-03 -2.0890E-03  1.6498E-02 -1.8657E-02
     148-
 mid.  surface     5.1264E-03  8.9537E-03 -1.4483E-02 -9.6688E-04 -2.9706E-04  9.0586E-05
     149-
 mid.  surface     4.6494E-03  6.2289E-03 -1.2742E-02 -1.6734E-04 -4.3262E-03 -6.2583E-04
     150-
 mid.  surface     2.8742E-03  1.7785E-03 -9.0385E-03  5.8150E-05 -9.6980E-03 -8.1210E-04
     164-
 mid.  surface     9.1945E-03  8.8633E-03 -2.1214E-02 -1.5075E-03  9.0014E-05 -2.6950E-03
     165-
 mid.  surface     6.1689E-03  6.4362E-03 -1.4449E-02 -7.1170E-04 -3.3928E-03 -4.5871E-03
     166-
 mid.  surface     2.8614E-03  2.2236E-03 -6.6302E-03 -1.1992E-04 -8.2280E-03 -4.0678E-03



 n o d a l  s t r e s s  c a l c u l a t i o n s   f o r   t i m e  s t e p      267   ( at time 4.29920E+00 )

 node (global)
          stress       sig-xx      sig-yy      sig-zz      sig-xy      sig-yz      sig-zx       plastic
                                                                                                 strain 
       1-
 mid.  surface    -1.5616E+08 -1.2392E+08 -4.5067E+08  4.5729E+07 -3.0110E+07  1.4997E+08  1.5725E-03
       2-
 mid.  surface    -1.2309E+09 -1.1773E+09 -1.5280E+09  3.9490E+07 -2.9949E+07  1.7670E+08  2.2280E-02
       8-
 mid.  surface     1.8302E+08  2.1886E+08 -6.8700E+07 -1.7241E+07  8.2138E+06 -3.7040E+05  1.3403E-02
       9-
 mid.  surface    -1.6861E+08 -1.7642E+08 -4.5115E+08 -1.9552E+07  1.3274E+07  3.0681E+06  2.5661E-02
      10-
 mid.  surface    -2.7041E+08 -2.8887E+08 -4.8394E+08  3.0598E+07 -5.8381E+07 -1.7930E+07  4.0681E-02
      11-
 mid.  surface     3.5330E+08  3.7474E+08  7.1389E+07 -7.1583E+06 -1.3536E+08 -4.3058E+07  1.0372E-02
      12-
 mid.  surface     5.8245E+08  5.8254E+08  3.8204E+08 -1.0930E+07 -1.3656E+08  1.6967E+06  3.6400E-02
      17-
 mid.  surface     4.7157E+08  5.2232E+08  2.1955E+08 -1.7538E+06 -1.4822E+08 -6.7726E+07  1.1826E-02
      18-
 mid.  surface     6.3831E+07  7.6039E+07 -1.2660E+08  2.0487E+07 -3.4470E+07 -2.7633E+07  2.8000E-02
      19-
 mid.  surface    -2.1217E+08 -1.8177E+08 -4.0885E+08  4.6090E+06 -1.3576E+08 -3.7135E+07  4.8682E-02
      20-
 mid.  surface     3.8746E+08  3.3906E+08  1.9407E+08  3.5304E+07  3.2350E+07  3.8509E+07  1.1268E-02
      21-
 mid.  surface    -7.6449E+08 -7.6408E+08 -6.3583E+08  1.3214E+06  7.2619E+07  8.2464E+07  3.6792E-02
      22-
 mid.  surface     2.7193E+08  2.7858E+08  2.5706E+08 -9.0632E+04  2.8396E+07  4.6932E+07  2.3362E-02
      23-
 mid.  surface     4.9903E+08  4.6324E+08  2.5653E+08  2.9968E+07  2.8079E+05  4.0662E+06  2.1816E-02
      24-
 mid.  surface     1.5835E+08  1.7762E+08 -2.4393E+08  1.6630E+07 -3.5567E+07 -5.3642E+07  1.4921E-02
      25-
 mid.  surface     1.1474E+08  7.7533E+07 -2.8100E+08  1.3091E+07 -6.2185E+07 -4.4668E+07  2.8570E-02
      26-
 mid.  surface     8.0504E+08  8.1508E+08  2.3093E+08  6.0790E+07 -1.3161E+08 -1.1620E+08  1.6672E-02
      27-
 mid.  surface     8.7509E+08  8.8841E+08  1.8700E+08  5.6404E+07 -1.5978E+08 -1.5860E+08  2.6033E-02
      28-
 mid.  surface    -3.2763E+08 -3.4904E+08 -5.5720E+08 -7.5413E+05 -8.6039E+07 -3.6205E+07  1.0446E-02
      29-
 mid.  surface    -4.6140E+08 -5.3063E+08 -5.2455E+08 -3.0710E+07 -5.5498E+06 -4.2540E+07  1.2154E-02
      30-
 mid.  surface     2.1607E+08  2.5082E+08 -1.5170E+08  4.8688E+07 -1.6388E+08 -1.2091E+08  1.0582E-02
      31-
 mid.  surface    -1.9517E+08 -2.0262E+08 -3.7596E+08  2.0638E+07 -9.3937E+07 -2.8828E+07  1.2594E-02
      52-
 mid.  surface    -1.9043E+08 -2.1037E+08 -5.4189E+08  1.9780E+06 -1.1755E+07 -1.0059E+07  3.4233E-02
      53-
 mid.  surface    -2.0424E+08 -1.9646E+08 -3.7366E+08 -2.2617E+07  3.7099E+07  3.1637E+07  1.9029E-02
      54-
 mid.  surface    -2.8046E+08 -2.6979E+08 -4.4634E+08  1.5877E+06 -1.6385E+07  7.7310E+06  1.8324E-02
      55-
 mid.  surface    -4.9204E+08 -4.6174E+08 -5.2480E+08 -1.4728E+07  2.4400E+07  3.2284E+07  1.1350E-02
      56-
 mid.  surface    -2.2070E+08 -2.2668E+08 -3.6155E+08 -3.3028E+06 -9.0957E+07 -2.0858E+07  1.3315E-02
      57-
 mid.  surface    -3.2314E+08 -3.3594E+08 -5.2414E+08 -9.1955E+06 -9.1338E+07 -3.0033E+07  1.2323E-02
     124-
 mid.  surface    -1.0327E+09 -9.4153E+08 -1.2472E+09  2.3803E+06  7.1563E+07 -6.7161E+07  3.1353E-02
     125-
 mid.  surface    -2.8360E+08 -2.4470E+08 -5.1982E+08 -1.0242E+06  1.3364E+08 -6.6751E+07 -4.0606E-03
     126-
 mid.  surface    -5.5481E+08 -6.5067E+08 -6.1052E+08 -3.0709E+07  1.5528E+08 -3.5900E+07  3.2912E-02
     127-
 mid.  surface     1.4032E+08  1.1459E+08 -2.6198E+08  3.8153E+07  1.1065E+08 -1.1147E+08  5.7598E-03
     128-
 mid.  surface    -1.4067E+09 -1.6019E+09 -7.2803E+08 -1.4683E+08  4.2222E+08  4.7002E+06  7.2671E-03
     129-
 mid.  surface    -6.3627E+08 -7.2005E+08 -6.0436E+08 -6.1449E+07  2.6057E+08 -1.5500E+08 -2.4489E-03
     148-
 mid.  surface     9.2719E+07  1.0251E+08 -1.8293E+08 -8.9586E+06 -1.0398E+07  8.9308E+06  8.2930E-03
     149-
 mid.  surface    -6.7244E+07 -5.9554E+07 -3.6150E+08  2.0954E+05 -2.5347E+07 -4.0287E+06  1.2038E-02
     150-
 mid.  surface    -3.1972E+08 -3.1069E+08 -5.3436E+08  8.7489E+06 -1.0866E+08 -1.6626E+05  1.3090E-02
     164-
 mid.  surface    -1.3976E+08 -1.5409E+08 -4.2501E+08 -1.3408E+06 -2.0009E+07 -1.9516E+07  1.9750E-02
     165-
 mid.  surface    -3.6056E+07 -3.6939E+07 -2.9139E+08 -1.5548E+06 -5.4715E+07 -3.8246E+07  1.6618E-02
     166-
 mid.  surface    -9.8602E+07 -9.1868E+07 -2.1647E+08  7.0566E+05 -1.1353E+08 -2.3468E+07  1.4599E-02



 n o d a l  s t r a i n  c a l c u l a t i o n s   f o r   t i m e  s t e p      267   ( at time 4.29920E+00 )

 node (global)
          strain       eps-xx      eps-yy      eps-zz      eps-xy      eps-yz      eps-zx       
       1-
 mid.  surface     4.7287E-03  1.5360E-02 -2.3328E-02  7.1142E-03 -2.8645E-03  1.6553E-02
       2-
 mid.  surface     5.0246E-03  1.5998E-02 -3.9342E-02  3.2959E-03 -7.6517E-04  1.8913E-02
       8-
 mid.  surface     8.5361E-03  1.4738E-02 -2.1743E-02 -2.7152E-03  3.5445E-03 -9.8257E-06
       9-
 mid.  surface     1.5719E-02  1.4187E-02 -3.3815E-02 -3.1148E-03  3.7219E-03  4.7593E-04
      10-
 mid.  surface     1.6362E-02  1.0671E-02 -3.2117E-02  2.6346E-03 -4.1347E-03  8.4607E-04
      11-
 mid.  surface     1.4960E-02  1.3525E-02 -2.4868E-02  3.6135E-03 -2.3711E-02 -9.3063E-03
      12-
 mid.  surface     1.1480E-02  1.4703E-02 -1.9047E-02  3.0941E-03 -2.1938E-02 -1.0787E-02
      17-
 mid.  surface     1.3877E-02  1.5523E-02 -2.3792E-02  3.1760E-03 -2.0676E-02 -1.2764E-02
      18-
 mid.  surface     1.1105E-02  1.3123E-02 -2.4231E-02  2.1260E-03 -1.8086E-03 -2.6876E-03
      19-
 mid.  surface     1.2232E-02  1.5026E-02 -3.1215E-02  1.6829E-03 -1.5721E-02 -1.0860E-02
      20-
 mid.  surface     1.5925E-02  1.3685E-02 -2.3788E-02  4.6058E-03  3.1696E-03  1.6562E-03
      21-
 mid.  surface     1.3662E-02  1.2824E-02 -2.8789E-02  2.1514E-03 -6.5429E-04  1.4156E-03
      22-
 mid.  surface     1.3151E-02  1.4202E-02 -2.0497E-02  4.2044E-03 -3.6901E-03 -2.2917E-03
      23-
 mid.  surface     1.6688E-02  1.4015E-02 -2.5563E-02  4.7258E-03  2.1383E-03 -4.8568E-04
      24-
 mid.  surface     8.8046E-03  9.7048E-03 -1.9793E-02  9.4812E-04 -2.0203E-03 -4.8796E-05
      25-
 mid.  surface     1.2310E-02  7.2523E-03 -2.0641E-02  8.8484E-05 -5.0691E-03  4.2396E-04
      26-
 mid.  surface     1.1887E-02  1.0968E-02 -1.9843E-02  4.2622E-03 -9.1764E-03 -5.9281E-03
      27-
 mid.  surface     9.4486E-03  1.0388E-02 -2.0737E-02  2.4387E-03 -3.6942E-03 -3.1488E-03
      28-
 mid.  surface     4.8546E-03  4.7693E-03 -1.5457E-02 -3.2544E-04 -5.1940E-03 -1.7223E-03
      29-
 mid.  surface     8.2875E-03  2.1615E-03 -1.4483E-02 -7.8711E-04 -6.0172E-03 -1.2654E-03
      30-
 mid.  surface     8.1990E-03  7.9837E-03 -1.7500E-02  3.7705E-03 -1.3646E-02 -6.5050E-03
      31-
 mid.  surface     4.9852E-03  5.8306E-03 -1.4503E-02  1.8819E-03 -8.7080E-03 -1.8988E-03
      52-
 mid.  surface     1.3819E-02  1.0162E-02 -3.0198E-02  5.0822E-04  8.0262E-04 -7.7324E-04
      53-
 mid.  surface     1.0005E-02  1.1497E-02 -2.3396E-02 -6.6411E-07  5.6971E-04 -2.8698E-04
      54-
 mid.  surface     8.8000E-03  8.7785E-03 -2.0541E-02  1.0262E-03 -4.8926E-03 -2.4987E-03
      55-
 mid.  surface     7.8380E-03  8.6187E-03 -1.8556E-02  3.9978E-04 -5.4836E-03 -2.5621E-03
      56-
 mid.  surface     3.4624E-03  3.5619E-03 -1.0899E-02  9.0302E-04 -9.6968E-03 -1.6540E-03
      57-
 mid.  surface     4.3915E-03  3.3074E-03 -1.3322E-02 -5.9196E-04 -9.5300E-03 -2.7401E-03
     124-
 mid.  surface     4.3596E-03  1.2987E-02 -3.2584E-02  7.0850E-04  9.0641E-03 -8.7525E-03
     125-
 mid.  surface     5.0068E-03  1.0809E-02 -2.0745E-02  3.7824E-03  1.6413E-02 -1.0797E-02
     126-
 mid.  surface     7.2223E-03  3.9007E-03 -1.6761E-02 -1.9564E-03  1.0925E-02 -1.0022E-02
     127-
 mid.  surface     8.8698E-03  4.8377E-03 -1.6633E-02  1.0971E-03  2.2806E-02 -1.4567E-02
     128-
 mid.  surface     3.8071E-03 -1.7406E-03 -2.7758E-03 -4.2696E-03  9.3115E-03 -1.5763E-02
     129-
 mid.  surface     5.9868E-03  1.6931E-05 -8.8493E-03 -3.0562E-03  1.9326E-02 -2.2388E-02
     148-
 mid.  surface     8.8640E-03  1.3103E-02 -2.1934E-02 -1.2443E-03 -9.7673E-04  4.7887E-04
     149-
 mid.  surface     7.9210E-03  9.5142E-03 -1.9773E-02 -7.4442E-05 -5.4320E-03 -5.1951E-04
     150-
 mid.  surface     4.7019E-03  4.1053E-03 -1.4377E-02  5.9103E-04 -1.3352E-02 -5.3662E-04
     164-
 mid.  surface     1.3784E-02  1.2737E-02 -3.0029E-02 -1.4424E-03 -9.1381E-04 -3.7824E-03
     165-
 mid.  surface     9.4082E-03  9.5662E-03 -2.0782E-02 -7.1513E-04 -5.4889E-03 -5.7163E-03
     166-
 mid.  surface     4.6082E-03  4.5236E-03 -1.1123E-02  9.6283E-05 -1.2744E-02 -4.5125E-03



 n o d a l  s t r e s s  c a l c u l a t i o n s   f o r   t i m e  s t e p      290   ( at time 5.55813E+00 )

 node (global)
          stress       sig-xx      sig-yy      sig-zz      sig-xy      sig-yz      sig-zx       plastic
                                                                                                 strain 
       1-
 mid.  surface    -1.7314E+08 -1.4347E+08 -4.5627E+08  3.2247E+07 -2.8523E+07  1.2007E+08  7.9317E-03
       2-
 mid.  surface    -1.5105E+09 -1.4557E+09 -1.8082E+09  3.1980E+07 -2.7791E+07  1.3588E+08  3.0443E-02
       8-
 mid.  surface     2.2949E+08  2.5582E+08 -2.2308E+07 -1.8841E+07 -1.9420E+07  3.0597E+06  2.1041E-02
       9-
 mid.  surface    -2.3551E+08 -2.5192E+08 -5.1545E+08 -1.6242E+07 -1.8193E+07  5.7248E+06  3.5544E-02
      10-
 mid.  surface    -2.8020E+08 -2.9963E+08 -5.2541E+08  1.8769E+07 -5.8187E+07 -9.2799E+06  5.2486E-02
      11-
 mid.  surface     3.6563E+08  3.7133E+08  8.4153E+07 -4.6085E+05 -1.0605E+08 -3.0417E+07  1.8129E-02
      12-
 mid.  surface     6.5048E+08  6.5310E+08  4.2542E+08 -8.9962E+06 -1.1819E+08 -4.5859E+06  4.7179E-02
      17-
 mid.  surface     5.2299E+08  5.5154E+08  2.6394E+08  9.6042E+06 -1.2335E+08 -5.7097E+07  2.0372E-02
      18-
 mid.  surface     1.0739E+08  1.2429E+08 -1.0891E+08  1.0673E+07 -5.4137E+07 -2.1673E+07  3.8744E-02
      19-
 mid.  surface    -2.7899E+08 -2.5499E+08 -4.9687E+08  8.8172E+06 -1.3010E+08 -4.1603E+07  6.0371E-02
      20-
 mid.  surface     9.0033E+08  8.5303E+08  4.6486E+08  4.2761E+07 -1.4433E+07 -1.4875E+06  2.2417E-02
      21-
 mid.  surface    -5.0392E+08 -4.7660E+08 -6.5630E+08  2.2498E+07  2.7198E+07 -3.2944E+06  4.1983E-02
      22-
 mid.  surface     5.0656E+08  5.3497E+08  3.6991E+08  7.0967E+06  2.0601E+07 -1.2125E+07  2.8703E-02
      23-
 mid.  surface     9.7459E+08  9.2859E+08  5.5096E+08  3.0165E+07 -2.1111E+07 -1.7690E+07  3.7192E-02
      24-
 mid.  surface    -2.3435E+08 -2.3040E+08 -3.9727E+08  6.9141E+06 -2.8828E+07  4.3979E+07  1.9896E-02
      25-
 mid.  surface     1.2599E+08  7.3625E+07 -2.6323E+08  2.5424E+07 -3.3955E+07 -6.8036E+07  3.8503E-02
      26-
 mid.  surface     9.1355E+08  8.9750E+08  4.5805E+08  5.0350E+07 -9.7393E+07 -1.5967E+08  3.0185E-02
      27-
 mid.  surface     4.5508E+08  4.4774E+08  1.6571E+08  1.0216E+07 -8.4495E+07 -5.6335E+07  3.7338E-02
      28-
 mid.  surface    -1.2617E+09 -1.2081E+09 -1.0316E+09 -2.1317E+07 -2.9679E+07  1.3597E+08  7.0648E-03
      29-
 mid.  surface    -1.0102E+09 -1.0579E+09 -9.5135E+08 -3.9361E+07  3.1535E+07  6.6053E+07  1.1559E-02
      30-
 mid.  surface     6.4058E+08  6.3009E+08  1.0300E+08  5.2203E+07 -1.8483E+08 -2.1587E+08  2.4413E-02
      31-
 mid.  surface    -5.6138E+08 -5.2556E+08 -5.8051E+08 -3.6135E+06 -7.7421E+07  3.5238E+07  1.4811E-02
      52-
 mid.  surface    -4.1343E+08 -4.2498E+08 -6.8984E+08 -1.6538E+06  8.5930E+06  3.5078E+06  4.3110E-02
      53-
 mid.  surface    -1.4551E+08 -1.2733E+08 -4.0607E+08 -7.8748E+06  1.7245E+07  7.6352E+06  2.6624E-02
      54-
 mid.  surface    -8.0905E+08 -7.8841E+08 -7.2024E+08 -1.7081E+07  1.1968E+07  4.6824E+07  1.4247E-02
      55-
 mid.  surface    -7.8748E+08 -7.7059E+08 -7.2305E+08 -1.7365E+07  2.5142E+07  4.7110E+07  6.4100E-03
      56-
 mid.  surface    -2.4815E+08 -2.4898E+08 -4.1217E+08  2.2539E+05 -9.6733E+07 -2.0821E+07  1.9198E-02
      57-
 mid.  surface    -3.8595E+08 -4.0664E+08 -6.0909E+08 -3.9698E+06 -9.2949E+07 -2.7744E+07  1.7980E-02
     124-
 mid.  surface    -1.2346E+09 -1.1900E+09 -1.4775E+09  4.6894E+06  7.3549E+07 -6.0479E+07  4.1221E-02
     125-
 mid.  surface    -3.1110E+08 -2.9965E+08 -5.7218E+08  6.8808E+05  1.1058E+08 -5.9352E+07  3.3930E-03
     126-
 mid.  surface    -7.7218E+08 -8.2416E+08 -8.0585E+08 -3.7156E+07  1.6732E+08 -9.1226E+06  3.7663E-02
     127-
 mid.  surface     2.0115E+08  1.8569E+08 -2.0142E+08  4.1383E+07  8.4013E+07 -1.1272E+08  1.6677E-02
     128-
 mid.  surface    -2.0728E+09 -2.1849E+09 -1.3916E+09 -1.7181E+08  4.2409E+08  1.1604E+08 -1.3735E-02
     129-
 mid.  surface    -9.5936E+08 -9.9274E+08 -9.2511E+08 -6.4696E+07  2.2874E+08 -8.5690E+07 -1.0839E-02
     148-
 mid.  surface     1.3241E+08  1.5752E+08 -1.3512E+08 -4.8898E+06  1.5264E+06  6.5702E+06  1.5735E-02
     149-
 mid.  surface    -8.6653E+07 -7.6005E+07 -3.7635E+08  3.1461E+06 -2.7510E+07  2.7309E+06  1.8708E-02
     150-
 mid.  surface    -3.9793E+08 -3.9856E+08 -6.2174E+08  1.2130E+07 -1.0317E+08  3.6169E+06  1.9595E-02
     164-
 mid.  surface    -1.6848E+08 -1.6963E+08 -4.4777E+08 -2.3286E+06 -9.5700E+06 -1.6879E+07  2.8854E-02
     165-
 mid.  surface    -4.8183E+07 -4.0831E+07 -3.1041E+08 -5.4795E+06 -4.8724E+07 -2.5966E+07  2.4091E-02
     166-
 mid.  surface    -1.1839E+08 -1.0986E+08 -2.7292E+08  4.4815E+06 -1.0594E+08 -2.1107E+07  2.1097E-02



 n o d a l  s t r a i n  c a l c u l a t i o n s   f o r   t i m e  s t e p      290   ( at time 5.55813E+00 )

 node (global)
          strain       eps-xx      eps-yy      eps-zz      eps-xy      eps-yz      eps-zx       
       1-
 mid.  surface     7.1100E-03  1.9938E-02 -3.0420E-02  8.3791E-03 -3.5214E-03  1.9975E-02
       2-
 mid.  surface     7.1503E-03  2.0739E-02 -5.0093E-02  4.3035E-03 -8.0536E-04  2.2968E-02
       8-
 mid.  surface     1.1725E-02  1.8928E-02 -2.8520E-02 -3.7073E-03  2.2620E-03  3.1171E-04
       9-
 mid.  surface     2.0450E-02  1.7867E-02 -4.3238E-02 -3.9760E-03  2.5263E-03  9.0459E-04
      10-
 mid.  surface     2.1303E-02  1.4924E-02 -4.1634E-02  3.9183E-03 -6.7664E-03  6.0257E-04
      11-
 mid.  surface     1.9004E-02  1.7611E-02 -3.2929E-02  4.1615E-03 -2.8194E-02 -1.0336E-02
      12-
 mid.  surface     1.5481E-02  1.8634E-02 -2.6152E-02  3.2096E-03 -2.6463E-02 -1.2489E-02
      17-
 mid.  surface     1.7299E-02  2.0496E-02 -3.1631E-02  4.0340E-03 -2.5311E-02 -1.4605E-02
      18-
 mid.  surface     1.4871E-02  1.8271E-02 -3.2645E-02  3.1273E-03 -3.6191E-03 -3.3481E-03
      19-
 mid.  surface     1.5921E-02  1.9351E-02 -4.0336E-02  2.3053E-03 -1.9522E-02 -1.3071E-02
      20-
 mid.  surface     2.1672E-02  1.8324E-02 -3.1750E-02  6.1673E-03  4.0853E-03  1.4865E-03
      21-
 mid.  surface     1.7705E-02  1.7158E-02 -3.6897E-02  3.4493E-03 -1.1606E-03  1.1895E-03
      22-
 mid.  surface     1.7085E-02  1.9249E-02 -2.7178E-02  5.3899E-03 -4.9942E-03 -3.2168E-03
      23-
 mid.  surface     2.2596E-02  1.8449E-02 -3.3809E-02  6.2681E-03  2.9614E-03 -1.2346E-03
      24-
 mid.  surface     1.1595E-02  1.3077E-02 -2.6118E-02  9.3809E-04 -2.9572E-03 -2.4834E-04
      25-
 mid.  surface     1.7119E-02  9.9688E-03 -2.7817E-02  2.7731E-04 -6.1229E-03  4.2189E-04
      26-
 mid.  surface     1.6254E-02  1.4877E-02 -2.6505E-02  5.4493E-03 -1.1743E-02 -8.3709E-03
      27-
 mid.  surface     1.2255E-02  1.3922E-02 -2.7279E-02  2.6452E-03 -4.8739E-03 -3.9737E-03
      28-
 mid.  surface     6.0992E-03  6.5977E-03 -1.9202E-02 -6.2840E-04 -7.0691E-03 -3.0014E-03
      29-
 mid.  surface     1.1543E-02  3.2796E-03 -2.0513E-02 -1.2028E-03 -7.9193E-03 -2.7129E-03
      30-
 mid.  surface     1.1418E-02  1.0772E-02 -2.3527E-02  4.7764E-03 -1.7642E-02 -1.0197E-02
      31-
 mid.  surface     6.1645E-03  7.9485E-03 -1.8330E-02  1.7914E-03 -1.1201E-02 -2.5505E-03
      52-
 mid.  surface     1.8126E-02  1.3282E-02 -3.9234E-02  4.4006E-04  1.5837E-03 -8.8837E-04
      53-
 mid.  surface     1.3201E-02  1.5309E-02 -3.0950E-02 -4.1602E-04  1.6129E-03 -2.1732E-04
      54-
 mid.  surface     1.1636E-02  1.1723E-02 -2.6915E-02  1.1634E-03 -6.7408E-03 -3.1061E-03
      55-
 mid.  surface     1.0855E-02  1.1342E-02 -2.4375E-02  6.3195E-04 -7.3591E-03 -3.1288E-03
      56-
 mid.  surface     5.0679E-03  5.3804E-03 -1.4803E-02  9.4501E-04 -1.3004E-02 -2.3039E-03
      57-
 mid.  surface     6.5875E-03  4.8305E-03 -1.8084E-02 -7.1095E-04 -1.2637E-02 -3.6524E-03
     124-
 mid.  surface     7.0593E-03  1.6740E-02 -4.2258E-02  1.0162E-03  1.1666E-02 -1.1177E-02
     125-
 mid.  surface     8.2195E-03  1.4428E-02 -2.8229E-02  3.9748E-03  2.0422E-02 -1.3087E-02
     126-
 mid.  surface     9.8128E-03  5.2027E-03 -2.1693E-02 -2.3101E-03  1.4609E-02 -1.3005E-02
     127-
 mid.  surface     1.1855E-02  7.1811E-03 -2.2704E-02  1.8034E-03  2.8540E-02 -1.7295E-02
     128-
 mid.  surface     4.7176E-03 -2.0014E-03 -2.8306E-03 -5.9531E-03  1.1114E-02 -1.9339E-02
     129-
 mid.  surface     6.8339E-03  9.3387E-04 -1.1363E-02 -3.7980E-03  2.2699E-02 -2.6319E-02
     148-
 mid.  surface     1.1809E-02  1.8143E-02 -2.9256E-02 -1.2428E-03 -3.7222E-04  7.0446E-04
     149-
 mid.  surface     1.1062E-02  1.2674E-02 -2.6328E-02  3.7521E-05 -6.9976E-03 -2.7420E-04
     150-
 mid.  surface     6.8249E-03  5.8508E-03 -1.9459E-02  9.9897E-04 -1.6711E-02 -5.1160E-04
     164-
 mid.  surface     1.7844E-02  1.7452E-02 -3.9149E-02 -1.4419E-03 -8.5804E-04 -4.6698E-03
     165-
 mid.  surface     1.2590E-02  1.2806E-02 -2.7395E-02 -1.0656E-03 -7.4451E-03 -6.5868E-03
     166-
 mid.  surface     6.3096E-03  6.4705E-03 -1.5231E-02  3.8189E-04 -1.5854E-02 -5.3295E-03



 n o d a l  s t r e s s  c a l c u l a t i o n s   f o r   t i m e  s t e p      298   ( at time 6.55576E+00 )

 node (global)
          stress       sig-xx      sig-yy      sig-zz      sig-xy      sig-yz      sig-zx       plastic
                                                                                                 strain 
       1-
 mid.  surface    -1.5266E+08 -1.1606E+08 -4.2613E+08  3.7261E+06 -1.2309E+07  9.6001E+07  1.6246E-02
       2-
 mid.  surface    -1.7326E+09 -1.6698E+09 -2.0205E+09  1.7437E+07 -1.7872E+07  9.7747E+07  4.0008E-02
       8-
 mid.  surface     2.5385E+08  2.5229E+08  2.5025E+06 -1.9679E+07 -3.3186E+07  4.2840E+06  3.0313E-02
       9-
 mid.  surface    -2.6962E+08 -3.0255E+08 -5.4739E+08 -1.6922E+07 -3.0840E+07  6.9958E+06  4.5614E-02
      10-
 mid.  surface    -2.3297E+08 -2.5727E+08 -4.9650E+08  1.4766E+07 -7.9068E+07 -1.3428E+07  6.2478E-02
      11-
 mid.  surface     4.3055E+08  4.2553E+08  1.3102E+08 -5.3740E+06 -1.0353E+08 -3.1215E+07  2.5064E-02
      12-
 mid.  surface     7.0497E+08  7.1710E+08  4.6877E+08 -1.6070E+07 -8.1505E+07 -7.4201E+06  5.6879E-02
      17-
 mid.  surface     5.3258E+08  5.6416E+08  2.7804E+08  1.7334E+06 -1.1957E+08 -4.8967E+07  2.9084E-02
      18-
 mid.  surface     1.4210E+08  1.4618E+08 -8.6785E+07  4.9564E+06 -7.2661E+07 -2.1395E+07  4.9229E-02
      19-
 mid.  surface    -3.7271E+08 -3.2365E+08 -5.8526E+08  7.7963E+06 -1.0712E+08 -3.8066E+07  7.1608E-02
      20-
 mid.  surface     1.0067E+09  9.8216E+08  5.7992E+08  2.6073E+07 -1.4466E+07 -3.8204E+06  3.5051E-02
      21-
 mid.  surface    -4.4525E+08 -4.1267E+08 -6.8312E+08  2.7990E+07  1.7217E+07 -1.9090E+07  5.2779E-02
      22-
 mid.  surface     8.6914E+08  8.9762E+08  5.9934E+08  1.5039E+07 -8.0776E+06 -2.4990E+07  3.9900E-02
      23-
 mid.  surface     1.1354E+09  1.0911E+09  7.0241E+08  1.6619E+07 -2.1056E+07 -1.1696E+07  4.9950E-02
      24-
 mid.  surface    -1.7334E+08 -1.4042E+08 -4.0852E+08 -9.7878E+05 -3.7876E+07  8.2209E+06  2.4084E-02
      25-
 mid.  surface     6.7769E+08  6.0175E+08  1.3210E+08  4.4425E+07  7.2407E+06 -1.5239E+08  5.4362E-02
      26-
 mid.  surface     1.7646E+09  1.7185E+09  1.0498E+09  7.5319E+07 -9.9751E+07 -2.2231E+08  5.0892E-02
      27-
 mid.  surface     3.6115E+08  3.5103E+08  1.3224E+08 -6.4981E+06 -8.4563E+07 -2.6048E+07  4.1923E-02
      28-
 mid.  surface    -2.0590E+09 -1.9919E+09 -1.6202E+09 -2.9319E+07 -1.1781E+08  2.0347E+08 -5.9305E-03
      29-
 mid.  surface    -6.4740E+08 -7.2987E+08 -9.0458E+08 -2.5061E+07 -1.3030E+07 -3.0365E+07  1.7244E-02
      30-
 mid.  surface     1.0246E+08  1.0826E+08 -6.8877E+07  5.1467E+07 -1.3514E+08 -1.1605E+08  3.1489E-02
      31-
 mid.  surface    -1.7759E+09 -1.7141E+09 -1.2929E+09 -2.3876E+07 -1.4602E+08  1.9648E+08  2.1528E-03
      52-
 mid.  surface    -4.7409E+08 -4.9848E+08 -7.6473E+08 -4.8373E+06  1.6947E+07  9.1062E+06  5.1676E-02
      53-
 mid.  surface    -1.6594E+08 -1.5595E+08 -4.2750E+08 -1.5182E+07  1.4821E+07  9.4286E+06  3.5015E-02
      54-
 mid.  surface    -9.5734E+08 -9.3204E+08 -8.7362E+08 -6.4635E+06  2.4898E+07  4.5633E+07  1.0561E-02
      55-
 mid.  surface    -9.0044E+08 -8.8110E+08 -8.3005E+08 -8.3734E+05  2.5703E+07  4.0114E+07  2.3158E-03
      56-
 mid.  surface    -3.1607E+08 -3.0015E+08 -4.7405E+08 -7.9682E+06 -9.2509E+07 -2.0499E+07  2.5568E-02
      57-
 mid.  surface    -4.8150E+08 -4.9562E+08 -6.8135E+08 -9.4550E+06 -8.7319E+07 -3.4336E+07  2.4853E-02
     124-
 mid.  surface    -1.7465E+09 -1.7128E+09 -1.8090E+09 -2.6762E+06  1.1193E+08 -3.5143E+07  4.5879E-02
     125-
 mid.  surface    -1.3281E+06  3.4913E+07 -4.1906E+08  6.7247E+06  3.7473E+07 -6.7831E+07  1.7883E-02
     126-
 mid.  surface    -1.4939E+09 -1.5948E+09 -1.2296E+09 -5.3645E+07  2.5943E+08  9.3691E+06  2.7997E-02
     127-
 mid.  surface    -3.3326E+08 -3.2197E+08 -3.8351E+08  3.3878E+07  1.5917E+08 -4.7543E+07  1.6274E-02
     128-
 mid.  surface    -3.5562E+09 -3.6369E+09 -2.5243E+09 -2.6295E+08  4.7080E+08  2.3309E+08 -4.5288E-02
     129-
 mid.  surface    -3.2837E+09 -3.2079E+09 -2.2724E+09 -1.7147E+08  4.0261E+08  1.6649E+08 -4.3659E-02
     148-
 mid.  surface     1.7621E+08  1.9666E+08 -8.2194E+07 -5.5434E+06 -3.5628E+06  9.6175E+06  2.4112E-02
     149-
 mid.  surface    -1.1242E+08 -1.3040E+08 -4.1587E+08  2.2295E+06 -1.7006E+07  8.7808E+06  2.4706E-02
     150-
 mid.  surface    -4.7832E+08 -4.7246E+08 -6.9002E+08  1.2457E+07 -1.0572E+08  5.4901E+06  2.5113E-02
     164-
 mid.  surface    -1.4739E+08 -1.4345E+08 -4.1407E+08  1.3339E+06 -1.3233E+07 -1.1872E+07  3.7705E-02
     165-
 mid.  surface    -6.4242E+07 -7.2406E+07 -3.4023E+08 -2.7061E+06 -4.5171E+07 -1.7075E+07  2.9789E-02
     166-
 mid.  surface    -1.3038E+08 -1.1933E+08 -2.7486E+08  1.6615E+07 -1.1430E+08 -1.1465E+07  2.6763E-02



 n o d a l  s t r a i n  c a l c u l a t i o n s   f o r   t i m e  s t e p      298   ( at time 6.55576E+00 )

 node (global)
          strain       eps-xx      eps-yy      eps-zz      eps-xy      eps-yz      eps-zx       
       1-
 mid.  surface     1.0039E-02  2.5357E-02 -3.8410E-02  8.3493E-03 -3.5683E-03  2.2437E-02
       2-
 mid.  surface     9.6388E-03  2.6329E-02 -6.1252E-02  4.5530E-03 -5.5929E-04  2.5700E-02
       8-
 mid.  surface     1.6104E-02  2.2828E-02 -3.6626E-02 -4.5911E-03  7.8983E-04  5.1635E-04
       9-
 mid.  surface     2.5568E-02  2.1216E-02 -5.2318E-02 -4.7028E-03  9.8819E-04  1.1395E-03
      10-
 mid.  surface     2.6290E-02  1.9046E-02 -5.0236E-02  4.7240E-03 -9.6867E-03  1.6369E-04
      11-
 mid.  surface     2.2983E-02  2.1356E-02 -3.9921E-02  3.8852E-03 -3.2022E-02 -1.1306E-02
      12-
 mid.  surface     1.9625E-02  2.3325E-02 -3.4267E-02  2.8103E-03 -2.9149E-02 -1.3171E-02
      17-
 mid.  surface     2.0830E-02  2.5563E-02 -4.0113E-02  4.0327E-03 -2.8995E-02 -1.6013E-02
      18-
 mid.  surface     1.9425E-02  2.3182E-02 -4.1789E-02  3.6309E-03 -5.9776E-03 -4.0224E-03
      19-
 mid.  surface     1.9427E-02  2.4967E-02 -5.0695E-02  2.6730E-03 -2.2524E-02 -1.4437E-02
      20-
 mid.  surface     2.6771E-02  2.2798E-02 -3.9885E-02  6.9660E-03  5.2790E-03  1.7002E-03
      21-
 mid.  surface     2.2222E-02  2.2289E-02 -4.6203E-02  4.6793E-03 -1.4229E-03  4.9129E-04
      22-
 mid.  surface     2.1795E-02  2.4765E-02 -3.4580E-02  6.3834E-03 -5.8909E-03 -3.7576E-03
      23-
 mid.  surface     2.8072E-02  2.2439E-02 -4.1738E-02  6.8547E-03  3.7966E-03 -1.5108E-03
      24-
 mid.  surface     1.3870E-02  1.6694E-02 -3.2521E-02  7.8968E-04 -3.5773E-03 -5.5530E-04
      25-
 mid.  surface     2.2166E-02  1.3328E-02 -3.4824E-02  5.9520E-04 -6.3851E-03 -8.2531E-04
      26-
 mid.  surface     2.1142E-02  1.8662E-02 -3.3353E-02  6.6228E-03 -1.3084E-02 -1.0543E-02
      27-
 mid.  surface     1.5297E-02  1.7312E-02 -3.4338E-02  2.2368E-03 -5.5935E-03 -4.5227E-03
      28-
 mid.  surface     7.6910E-03  7.5186E-03 -2.2462E-02 -7.7890E-04 -1.0859E-02 -4.7027E-03
      29-
 mid.  surface     1.4746E-02  4.0646E-03 -2.5012E-02 -1.1519E-03 -9.4742E-03 -5.4642E-03
      30-
 mid.  surface     1.4469E-02  1.2887E-02 -2.9524E-02  6.2241E-03 -2.0661E-02 -1.3420E-02
      31-
 mid.  surface     7.4216E-03  9.3651E-03 -2.1460E-02  1.6974E-03 -1.5281E-02 -3.4610E-03
      52-
 mid.  surface     2.2537E-02  1.6571E-02 -4.7987E-02  1.1107E-04  2.3147E-03 -5.2406E-04
      53-
 mid.  surface     1.7108E-02  1.9325E-02 -3.9138E-02 -9.8287E-04  2.0704E-03  2.2447E-04
      54-
 mid.  surface     1.4723E-02  1.5649E-02 -3.3933E-02  1.3859E-03 -7.6784E-03 -3.8118E-03
      55-
 mid.  surface     1.4123E-02  1.5012E-02 -3.0668E-02  1.3274E-03 -9.0011E-03 -3.9702E-03
      56-
 mid.  surface     6.3418E-03  7.6278E-03 -1.9173E-02  5.9308E-04 -1.5927E-02 -3.2056E-03
      57-
 mid.  surface     8.4935E-03  6.5727E-03 -2.2977E-02 -1.0820E-03 -1.5735E-02 -4.9500E-03
     124-
 mid.  surface     9.8969E-03  2.1561E-02 -5.2761E-02  1.2149E-03  1.4173E-02 -1.3559E-02
     125-
 mid.  surface     1.1439E-02  1.9513E-02 -3.6214E-02  4.1019E-03  2.3224E-02 -1.5030E-02
     126-
 mid.  surface     1.2716E-02  6.9770E-03 -2.7075E-02 -2.4793E-03  1.7472E-02 -1.5852E-02
     127-
 mid.  surface     1.4905E-02  9.9413E-03 -2.8575E-02  2.8821E-03  3.3353E-02 -1.9490E-02
     128-
 mid.  surface     5.1630E-03 -2.1683E-03 -2.6994E-03 -7.4025E-03  1.1548E-02 -2.2349E-02
     129-
 mid.  surface     6.9345E-03  1.6105E-03 -1.3710E-02 -4.3344E-03  2.4339E-02 -2.9472E-02
     148-
 mid.  surface     1.5523E-02  2.2652E-02 -3.6877E-02 -1.4844E-03 -6.0126E-04  1.1653E-03
     149-
 mid.  surface     1.4471E-02  1.5020E-02 -3.2669E-02  7.9911E-05 -7.3386E-03  1.3332E-04
     150-
 mid.  surface     8.2717E-03  8.0748E-03 -2.4179E-02  1.3112E-03 -1.9536E-02 -2.9572E-04
     164-
 mid.  surface     2.1896E-02  2.1656E-02 -4.7068E-02 -1.3416E-03 -1.7409E-03 -5.2440E-03
     165-
 mid.  surface     1.5544E-02  1.5115E-02 -3.3039E-02 -1.1508E-03 -8.6568E-03 -7.1527E-03
     166-
 mid.  surface     7.5619E-03  8.4239E-03 -1.8552E-02  1.1045E-03 -1.9195E-02 -5.6279E-03



 n o d a l  s t r e s s  c a l c u l a t i o n s   f o r   t i m e  s t e p      401   ( at time 7.55339E+00 )

 node (global)
          stress       sig-xx      sig-yy      sig-zz      sig-xy      sig-yz      sig-zx       plastic
                                                                                                 strain 
       1-
 mid.  surface    -2.4780E+09 -2.4147E+09 -1.4804E+09 -1.8337E+07  1.6831E+08  3.4016E+07 -1.0893E-02
       2-
 mid.  surface    -4.3474E+09 -4.3491E+09 -3.3970E+09 -1.9045E+07  1.6709E+08  1.3102E+08  1.3794E-02
       8-
 mid.  surface     3.0278E+08  3.1668E+08  1.1228E+08 -1.5521E+07 -1.0306E+08  5.7904E+06  4.1923E-02
       9-
 mid.  surface    -2.4718E+08 -2.4573E+08 -4.6071E+08 -5.7732E+06 -9.8895E+07  1.0524E+06  5.7569E-02
      10-
 mid.  surface    -2.6185E+08 -2.8233E+08 -5.2019E+08 -4.9132E+06 -9.2901E+07  1.0545E+07  7.2761E-02
      11-
 mid.  surface     3.7894E+08  3.4101E+08  9.8431E+07 -2.7355E+07 -9.9297E+07  7.7523E+06  3.3764E-02
      12-
 mid.  surface    -3.8175E+08 -3.3979E+08  3.9421E+07 -3.0950E+06 -1.4013E+07 -2.9924E+07  4.9749E-02
      17-
 mid.  surface     3.8003E+08  3.7418E+08  1.7847E+08 -2.4176E+07 -1.7334E+08 -5.1708E+07  4.0596E-02
      18-
 mid.  surface     1.4534E+08  1.4916E+08 -5.2922E+07 -4.3930E+06 -1.5448E+08 -7.8962E+06  6.0724E-02
      19-
 mid.  surface    -1.7729E+09 -1.7484E+09 -1.3482E+09 -5.8544E+06 -3.5051E+07 -1.3267E+07  6.6395E-02
      20-
 mid.  surface     6.4448E+08  6.7591E+08  5.8304E+08  1.9225E+07  9.3953E+06  1.9183E+06  3.9716E-02
      21-
 mid.  surface     1.0351E+08  1.8664E+08 -4.2971E+08  3.5479E+07 -1.9239E+07 -2.8854E+07  7.2835E-02
      22-
 mid.  surface     1.6151E+09  1.6291E+09  9.8465E+08  1.6996E+07 -3.0389E+07 -2.9584E+07  5.8688E-02
      23-
 mid.  surface     8.0114E+08  7.4342E+08  6.7821E+08  1.7352E+06  3.4587E+07  2.7779E+07  5.3821E-02
      24-
 mid.  surface     3.6845E+08  3.9128E+08 -2.1228E+08 -7.9207E+06 -9.4598E+07 -1.2556E+07  3.8031E-02
      25-
 mid.  surface     7.7716E+08  7.5187E+08  2.4141E+08  2.1980E+07  7.9186E+07 -1.5416E+08  6.9277E-02
      26-
 mid.  surface     1.7624E+09  1.7202E+09  1.0095E+09  4.0956E+07  4.5871E+06 -1.7208E+08  6.9417E-02
      27-
 mid.  surface     8.0801E+08  7.9036E+08  2.2195E+08 -1.1195E+07 -1.4624E+08 -3.4490E+07  5.5448E-02
      28-
 mid.  surface    -2.0009E+09 -1.9945E+09 -1.5313E+09 -1.2075E+07 -2.7976E+08  1.2912E+08 -1.8126E-02
      29-
 mid.  surface    -5.4442E+08 -5.8797E+08 -7.0806E+08 -2.2692E+07 -7.2783E+07 -6.9568E+07  2.2489E-02
      30-
 mid.  surface    -2.5618E+07  1.3457E+07 -1.5106E+08  2.4133E+07 -1.4002E+08 -1.1161E+08  3.8254E-02
      31-
 mid.  surface    -1.7941E+09 -1.7280E+09 -1.2093E+09  1.2966E+06 -3.1392E+08  1.2603E+08 -7.3459E-03
      52-
 mid.  surface    -9.4543E+08 -9.4981E+08 -9.1082E+08 -7.3256E+06  8.8440E+07  3.4099E+07  5.2572E-02
      53-
 mid.  surface    -5.9595E+08 -5.8444E+08 -5.4066E+08  5.8470E+06  5.8585E+07  2.0792E+07  3.5091E-02
      54-
 mid.  surface    -5.4692E+08 -5.2699E+08 -7.8325E+08  1.8167E+06 -3.9426E+07  2.1473E+06  1.6951E-02
      55-
 mid.  surface    -4.6439E+08 -4.6496E+08 -7.4393E+08  1.1291E+07 -1.9887E+07  4.7363E+06  8.3968E-03
      56-
 mid.  surface    -3.2818E+08 -3.0527E+08 -3.9364E+08 -3.5491E+06 -1.2543E+08 -1.5317E+07  3.3492E-02
      57-
 mid.  surface    -5.3467E+08 -5.5687E+08 -7.0708E+08 -3.7952E+06 -9.6578E+07 -2.5444E+07  3.2494E-02
     124-
 mid.  surface    -5.3893E+08 -5.2833E+08 -1.2844E+09  1.0302E+07  5.2202E+07 -3.1324E+07  6.9114E-02
     125-
 mid.  surface     1.4050E+09  1.4581E+09  3.3097E+08 -4.0760E+06 -3.2790E+07 -8.5027E+07  4.9886E-02
     126-
 mid.  surface    -1.4591E+09 -1.5958E+09 -1.1906E+09 -2.8958E+07  2.8213E+08 -4.4256E+07  2.2281E-02
     127-
 mid.  surface    -3.1560E+08 -3.7979E+08 -3.7149E+08  2.5281E+07  1.8681E+08 -6.4298E+07  1.8145E-02
     128-
 mid.  surface    -3.6074E+09 -3.7168E+09 -2.5424E+09 -1.5114E+08  3.1817E+08  2.2181E+08 -7.2428E-02
     129-
 mid.  surface    -3.5958E+09 -3.6187E+09 -2.5569E+09 -1.1158E+08  2.6695E+08  1.9588E+08 -7.1088E-02
     148-
 mid.  surface     1.7976E+08  1.6399E+08 -7.0987E+07 -4.7702E+06  3.2056E+07  8.3041E+06  3.3659E-02
     149-
 mid.  surface    -1.1527E+08 -9.9320E+07 -3.9495E+08  1.4952E+07 -1.6612E+07  1.5365E+07  3.1809E-02
     150-
 mid.  surface    -5.7329E+08 -5.7984E+08 -7.6507E+08  2.2314E+07 -9.8647E+07  1.1938E+07  3.2021E-02
     164-
 mid.  surface    -2.0648E+08 -2.1215E+08 -4.6599E+08 -9.5246E+06  3.4295E+07 -2.2862E+06  4.7412E-02
     165-
 mid.  surface    -5.5727E+07 -3.1327E+07 -2.9571E+08  8.9906E+06 -4.8688E+07 -8.3356E+06  3.6975E-02
     166-
 mid.  surface    -1.7550E+08 -1.8208E+08 -2.5049E+08  2.1551E+07 -1.2873E+08 -5.0135E+06  3.4645E-02



 n o d a l  s t r a i n  c a l c u l a t i o n s   f o r   t i m e  s t e p      401   ( at time 7.55339E+00 )

 node (global)
          strain       eps-xx      eps-yy      eps-zz      eps-xy      eps-yz      eps-zx       
       1-
 mid.  surface     1.6210E-02  3.1365E-02 -4.5050E-02  9.7155E-03 -4.5702E-03  2.3007E-02
       2-
 mid.  surface     1.6329E-02  2.9402E-02 -7.0217E-02  4.9121E-03 -1.3122E-04  3.0220E-02
       8-
 mid.  surface     1.9746E-02  2.8108E-02 -4.4552E-02 -5.2078E-03 -4.5125E-03  6.2041E-04
       9-
 mid.  surface     2.9739E-02  2.6070E-02 -6.0598E-02 -4.4737E-03 -6.0696E-03  9.4946E-04
      10-
 mid.  surface     3.0780E-02  2.3056E-02 -5.9143E-02  4.3371E-03 -1.5316E-02  8.9448E-04
      11-
 mid.  surface     2.7123E-02  2.3762E-02 -4.7289E-02  2.6514E-03 -3.5999E-02 -1.0567E-02
      12-
 mid.  surface     2.4992E-02  2.9066E-02 -4.1387E-02  4.5329E-03 -3.3193E-02 -1.4412E-02
      17-
 mid.  surface     2.4771E-02  2.8131E-02 -4.8788E-02  2.4717E-03 -3.4637E-02 -1.7291E-02
      18-
 mid.  surface     2.3422E-02  2.8003E-02 -5.0496E-02  3.2342E-03 -1.2735E-02 -3.8057E-03
      19-
 mid.  surface     2.4892E-02  2.8937E-02 -6.1011E-02  3.3069E-03 -2.5754E-02 -1.4261E-02
      20-
 mid.  surface     3.0519E-02  2.8182E-02 -4.7556E-02  7.9995E-03  6.2019E-03  1.0284E-03
      21-
 mid.  surface     2.4061E-02  2.7508E-02 -5.5247E-02  5.2943E-03 -1.5804E-03 -1.4208E-04
      22-
 mid.  surface     2.4689E-02  2.9099E-02 -4.1481E-02  6.5456E-03 -6.3422E-03 -4.3858E-03
      23-
 mid.  surface     3.2984E-02  2.6338E-02 -4.8703E-02  7.4477E-03  5.0138E-03 -1.1603E-03
      24-
 mid.  surface     1.6629E-02  1.9093E-02 -3.8639E-02 -1.6098E-04 -3.6989E-03 -1.4246E-04
      25-
 mid.  surface     2.5937E-02  1.6353E-02 -4.0691E-02  7.2040E-04 -6.8684E-03 -2.0851E-03
      26-
 mid.  surface     2.4648E-02  2.1624E-02 -4.0326E-02  7.1351E-03 -1.2859E-02 -1.1748E-02
      27-
 mid.  surface     1.7519E-02  1.9793E-02 -4.0706E-02  1.2591E-03 -6.5994E-03 -4.9856E-03
      28-
 mid.  surface     9.6944E-03  8.7210E-03 -2.4684E-02 -3.6562E-04 -1.6347E-02 -7.0602E-03
      29-
 mid.  surface     1.6240E-02  5.4414E-03 -2.6184E-02 -1.2370E-03 -1.3534E-02 -8.7785E-03
      30-
 mid.  surface     1.5828E-02  1.4751E-02 -3.3591E-02  6.0325E-03 -2.4292E-02 -1.7185E-02
      31-
 mid.  surface     8.6260E-03  1.1684E-02 -2.3918E-02  2.2937E-03 -2.2011E-02 -6.2648E-03
      52-
 mid.  surface     2.7096E-02  2.1576E-02 -5.6741E-02  4.5361E-04  4.6654E-03 -6.4565E-04
      53-
 mid.  surface     2.1530E-02  2.4383E-02 -4.7193E-02  7.4453E-05  3.8610E-03 -2.3328E-04
      54-
 mid.  surface     1.7336E-02  1.8968E-02 -4.0186E-02  1.0398E-03 -8.6203E-03 -4.7535E-03
      55-
 mid.  surface     1.7292E-02  1.7912E-02 -3.6767E-02  1.2716E-03 -1.0029E-02 -4.4959E-03
      56-
 mid.  surface     7.3293E-03  9.6625E-03 -2.1893E-02  7.6203E-04 -2.0304E-02 -4.1606E-03
      57-
 mid.  surface     1.0126E-02  7.9840E-03 -2.6705E-02 -8.6537E-04 -1.9999E-02 -5.9516E-03
     124-
 mid.  surface     1.0931E-02  2.5627E-02 -6.1412E-02  7.2520E-04  1.8014E-02 -1.5752E-02
     125-
 mid.  surface     1.2628E-02  2.4252E-02 -4.3044E-02  2.7109E-03  2.7031E-02 -1.8943E-02
     126-
 mid.  surface     1.7055E-02  8.8792E-03 -3.2433E-02 -2.3058E-03  2.1331E-02 -1.9363E-02
     127-
 mid.  surface     1.9286E-02  1.1428E-02 -3.4125E-02  3.3264E-03  3.8892E-02 -2.2550E-02
     128-
 mid.  surface     8.8150E-03 -7.5467E-04 -5.3604E-03 -7.9071E-03  1.1991E-02 -2.2328E-02
     129-
 mid.  surface     1.0141E-02  2.4070E-03 -1.8696E-02 -5.7135E-03  2.6186E-02 -2.9716E-02
     148-
 mid.  surface     1.9999E-02  2.5828E-02 -4.4663E-02 -1.7583E-03  1.4711E-03  1.2557E-03
     149-
 mid.  surface     1.7110E-02  1.9000E-02 -3.9086E-02  7.3311E-04 -8.4879E-03  5.3417E-04
     150-
 mid.  surface     9.8528E-03  9.8477E-03 -2.8852E-02  2.0213E-03 -2.3108E-02 -1.9720E-04
     164-
 mid.  surface     2.6048E-02  2.5009E-02 -5.5454E-02 -1.9304E-03 -3.2837E-04 -5.4933E-03
     165-
 mid.  surface     1.8031E-02  1.9211E-02 -3.9198E-02 -7.2564E-04 -1.0192E-02 -7.6468E-03
     166-
 mid.  surface     8.8287E-03  9.8708E-03 -2.1667E-02  1.8101E-03 -2.3779E-02 -6.2202E-03



 n o d a l  s t r e s s  c a l c u l a t i o n s   f o r   t i m e  s t e p      418   ( at time 8.05339E+00 )

 node (global)
          stress       sig-xx      sig-yy      sig-zz      sig-xy      sig-yz      sig-zx       plastic
                                                                                                 strain 
       1-
 mid.  surface    -2.7604E+09 -2.8253E+09 -1.7796E+09  4.8219E+07  2.0174E+08  6.5581E+07 -2.2300E-02
       2-
 mid.  surface    -4.7451E+09 -4.8296E+09 -3.8356E+09  3.4990E+07  1.8503E+08  1.7416E+08  1.7931E-03
       8-
 mid.  surface     2.9135E+08  2.8636E+08  1.1053E+08 -1.6268E+07 -1.0776E+08  9.0741E+06  4.7099E-02
       9-
 mid.  surface    -2.3945E+08 -2.4856E+08 -4.4841E+08  1.6322E+06 -1.1739E+08  7.9416E+05  6.2151E-02
      10-
 mid.  surface    -2.6768E+08 -3.1070E+08 -5.4948E+08 -1.0330E+07 -1.0650E+08  9.0084E+06  7.5988E-02
      11-
 mid.  surface     3.3972E+08  3.1406E+08  8.6241E+07 -3.3614E+07 -7.2496E+07  8.8054E+06  3.8555E-02
      12-
 mid.  surface    -4.5793E+08 -4.9926E+08 -7.1156E+07  1.2426E+07 -1.4126E+06 -1.9050E+07  4.6572E-02
      17-
 mid.  surface     3.2156E+08  2.9105E+08  1.2163E+08 -3.0941E+07 -1.8043E+08 -5.2920E+07  4.6067E-02
      18-
 mid.  surface     1.2523E+08  1.0045E+08 -1.0225E+08 -2.1955E+07 -1.7249E+08 -7.0424E+06  6.5092E-02
      19-
 mid.  surface    -1.9642E+09 -2.0351E+09 -1.6058E+09  7.7744E+06 -5.2051E+07  1.1132E+07  6.3074E-02
      20-
 mid.  surface     6.5797E+08  6.8689E+08  6.0732E+08  2.0376E+07  9.0113E+06 -9.9777E+06  4.3070E-02
      21-
 mid.  surface     8.7916E+07  2.7182E+08 -4.3535E+08  1.8073E+07 -2.7607E+07 -2.6957E+07  8.0836E-02
      22-
 mid.  surface     1.6744E+09  1.7679E+09  1.0759E+09 -1.0776E+07 -3.8012E+07 -2.3388E+07  6.7137E-02
      23-
 mid.  surface     7.8171E+08  6.9420E+08  6.7044E+08  7.6928E+06  4.0509E+07  3.2722E+07  5.7236E-02
      24-
 mid.  surface     4.2607E+08  4.4874E+08 -1.3895E+08 -1.5824E+07 -1.2493E+08 -3.1837E+07  4.4175E-02
      25-
 mid.  surface     5.8279E+08  5.1836E+08  2.5802E+08  2.2805E+07  2.0603E+08 -6.7271E+07  7.3982E-02
      26-
 mid.  surface     1.5099E+09  1.4067E+09  9.8631E+08  4.0086E+07  1.1029E+08 -8.9546E+07  7.6516E-02
      27-
 mid.  surface     8.2336E+08  7.6981E+08  2.2514E+08 -3.2509E+07 -1.6569E+08 -3.4157E+07  6.1269E-02
      28-
 mid.  surface    -2.1639E+09 -2.0736E+09 -1.6659E+09 -3.4986E+07 -3.0564E+08  1.2412E+08 -2.8637E-02
      29-
 mid.  surface    -1.3019E+09 -1.3993E+09 -1.0037E+09 -5.3691E+07  1.1295E+08  9.8270E+07  1.7907E-02
      30-
 mid.  surface    -8.1041E+08 -8.5480E+08 -4.4326E+08 -1.2447E+06  3.6794E+07  3.4991E+07  3.5107E-02
      31-
 mid.  surface    -1.9564E+09 -1.8273E+09 -1.3459E+09 -4.7823E+07 -3.4969E+08  1.2052E+08 -1.6710E-02
      52-
 mid.  surface    -9.6538E+08 -9.7350E+08 -9.3105E+08 -7.4424E+06  1.0127E+08  3.8664E+07  5.2373E-02
      53-
 mid.  surface    -6.0653E+08 -5.9019E+08 -5.4230E+08  4.7251E+06  6.7311E+07  1.4376E+07  3.4787E-02
      54-
 mid.  surface    -5.5234E+08 -5.1880E+08 -7.8126E+08 -1.6146E+06 -2.6764E+07  2.0528E+06  2.0471E-02
      55-
 mid.  surface    -4.3854E+08 -4.2244E+08 -7.1545E+08  1.1719E+07  8.4945E+06  3.4408E+06  1.1309E-02
      56-
 mid.  surface    -3.2897E+08 -2.8190E+08 -3.4160E+08  7.0484E+06 -1.3442E+08 -1.5019E+06  3.9724E-02
      57-
 mid.  surface    -5.5289E+08 -5.6804E+08 -7.2869E+08  9.5576E+06 -8.5622E+07 -1.4863E+07  3.7418E-02
     124-
 mid.  surface    -4.6941E+08 -3.8852E+08 -1.1906E+09 -2.2883E+07  5.2008E+07 -5.4032E+07  8.0307E-02
     125-
 mid.  surface     1.6058E+09  1.7243E+09  5.7881E+08 -6.0058E+07 -4.5833E+07 -1.0578E+08  6.6509E-02
     126-
 mid.  surface    -5.6407E+08 -6.6798E+08 -8.2436E+08  2.3909E+07  1.3832E+08 -2.3656E+08  2.9231E-02
     127-
 mid.  surface     5.6621E+08  5.5428E+08  2.7165E+07  9.4345E+07  5.7264E+06 -2.4885E+08  2.9709E-02
     128-
 mid.  surface    -2.2612E+09 -2.2420E+09 -2.2205E+09 -1.2775E+08 -9.2851E+07 -9.8775E+07 -7.2268E-02
     129-
 mid.  surface    -2.3980E+09 -2.2463E+09 -2.3160E+09 -3.3800E+07 -1.8768E+08 -1.3154E+08 -7.1007E-02
     148-
 mid.  surface     1.9166E+08  1.7874E+08 -5.0394E+07 -1.5325E+06  3.0470E+07  7.1005E+06  3.8291E-02
     149-
 mid.  surface    -1.1357E+08 -9.1002E+07 -4.0103E+08  1.5864E+07 -6.4397E+06  2.2774E+07  3.4801E-02
     150-
 mid.  surface    -5.8806E+08 -5.9752E+08 -7.5752E+08  8.0829E+06 -9.6795E+07  9.4024E+06  3.5500E-02
     164-
 mid.  surface    -2.2518E+08 -2.1766E+08 -4.7378E+08 -1.5206E+07  2.9022E+07  2.2649E+06  5.2091E-02
     165-
 mid.  surface    -7.8808E+07 -5.4270E+07 -3.2907E+08  8.7437E+06 -3.0987E+07  2.5410E+06  4.0587E-02
     166-
 mid.  surface    -1.6245E+08 -1.8963E+08 -2.1861E+08  1.5059E+07 -1.2370E+08 -9.6947E+06  3.8701E-02



 n o d a l  s t r a i n  c a l c u l a t i o n s   f o r   t i m e  s t e p      418   ( at time 8.05339E+00 )

 node (global)
          strain       eps-xx      eps-yy      eps-zz      eps-xy      eps-yz      eps-zx       
       1-
 mid.  surface     1.7850E-02  3.3919E-02 -4.7905E-02  9.9318E-03 -4.7452E-03  2.2978E-02
       2-
 mid.  surface     1.7799E-02  3.1931E-02 -7.4431E-02  4.4547E-03  2.6293E-04  3.1655E-02
       8-
 mid.  surface     2.1529E-02  2.9865E-02 -4.8301E-02 -5.5063E-03 -6.1366E-03  7.5249E-04
       9-
 mid.  surface     3.1474E-02  2.7405E-02 -6.3594E-02 -4.1922E-03 -8.5449E-03  9.0146E-04
      10-
 mid.  surface     3.2689E-02  2.3975E-02 -6.2273E-02  4.0489E-03 -1.7878E-02  9.9140E-04
      11-
 mid.  surface     2.8801E-02  2.5586E-02 -5.1181E-02  2.0302E-03 -3.7087E-02 -1.0518E-02
      12-
 mid.  surface     2.7607E-02  3.1205E-02 -4.4780E-02  4.3158E-03 -3.4318E-02 -1.5235E-02
      17-
 mid.  surface     2.6956E-02  2.9318E-02 -5.3128E-02  1.7505E-03 -3.6823E-02 -1.7778E-02
      18-
 mid.  surface     2.5541E-02  2.9495E-02 -5.4673E-02  2.4834E-03 -1.5487E-02 -3.7111E-03
      19-
 mid.  surface     2.7656E-02  3.0182E-02 -6.5516E-02  2.7117E-03 -2.7572E-02 -1.4413E-02
      20-
 mid.  surface     3.2811E-02  3.1133E-02 -5.1964E-02  8.6286E-03  6.3456E-03  4.4864E-04
      21-
 mid.  surface     2.4093E-02  3.0504E-02 -5.9044E-02  5.6507E-03 -1.9617E-03  1.5763E-04
      22-
 mid.  surface     2.5184E-02  3.1791E-02 -4.4115E-02  6.3102E-03 -7.3455E-03 -4.4040E-03
      23-
 mid.  surface     3.5773E-02  2.8333E-02 -5.2666E-02  8.1108E-03  5.3672E-03 -1.0138E-03
      24-
 mid.  surface     1.7602E-02  2.0283E-02 -4.1330E-02 -7.3641E-04 -3.5186E-03  5.8662E-05
      25-
 mid.  surface     2.9050E-02  1.8186E-02 -4.5101E-02  1.1425E-03 -6.4562E-03 -2.3985E-03
      26-
 mid.  surface     2.7521E-02  2.3276E-02 -4.4587E-02  7.8909E-03 -1.2855E-02 -1.3181E-02
      27-
 mid.  surface     1.8683E-02  2.0785E-02 -4.3750E-02  3.0878E-04 -6.3017E-03 -4.7790E-03
      28-
 mid.  surface     8.9779E-03  8.4173E-03 -2.3188E-02 -7.8573E-04 -1.9036E-02 -8.3691E-03
      29-
 mid.  surface     1.8874E-02  6.6345E-03 -2.8934E-02 -7.8285E-04 -1.6150E-02 -1.1792E-02
      30-
 mid.  surface     1.9017E-02  1.5831E-02 -3.7918E-02  7.1247E-03 -2.6665E-02 -2.0654E-02
      31-
 mid.  surface     8.0961E-03  1.1538E-02 -2.3166E-02  1.1947E-03 -2.4677E-02 -7.3005E-03
      52-
 mid.  surface     2.9062E-02  2.3402E-02 -6.0093E-02  5.4940E-04  4.9749E-03 -5.9411E-04
      53-
 mid.  surface     2.3302E-02  2.6433E-02 -5.0488E-02  3.3010E-04  4.6570E-03 -2.5797E-04
      54-
[...]
      31-
 mid.  surface     3.2752E-01  3.9757E-01 -6.9746E-01  9.4524E-02 -5.6862E-01 -1.8319E-01
      52-
 mid.  surface     4.0527E-01  3.4037E-01 -7.2312E-01  2.2872E-02  3.1220E-02  4.6448E-02
      53-
 mid.  surface     4.2606E-01  3.6312E-01 -7.5844E-01 -2.2676E-02  2.3675E-01  1.2378E-01
      54-
 mid.  surface     3.8848E-01  2.5001E-01 -7.7954E-01 -3.9917E-02 -6.0670E-03 -2.8711E-02
      55-
 mid.  surface     4.0495E-01  1.1244E-01 -4.8754E-01 -7.1021E-02  4.6591E-01  1.2813E-01
      56-
 mid.  surface     3.0334E-01  6.1184E-01 -1.0265E+00  1.4741E-01 -8.5740E-01 -4.3339E-01
      57-
 mid.  surface     2.4198E-01  3.5527E-01 -4.6036E-01  7.6052E-02 -2.0530E-01 -1.7971E-01
     124-
 mid.  surface     3.4215E-01  4.1847E-01 -8.7584E-01  3.7300E-02  5.2341E-02  1.1064E-01
     125-
 mid.  surface     3.8577E-01  4.5067E-01 -8.0539E-01  4.6266E-03  3.2852E-02 -1.3419E-01
     126-
 mid.  surface     4.2925E-01  3.1147E-01 -8.5104E-01 -2.4614E-02  2.3007E-01 -2.2164E-02
     127-
 mid.  surface     4.8272E-01  3.1773E-01 -7.4320E-01 -1.1771E-01  1.7252E-01 -1.8824E-01
     128-
 mid.  surface     3.1727E-01  1.0666E-01 -5.1912E-01 -4.3108E-02  1.4684E-01 -2.1830E-01
     129-
 mid.  surface     3.6529E-01  2.0098E-01 -3.8755E-01 -4.7653E-02  6.7086E-02 -4.1760E-01
     148-
 mid.  surface     4.4731E-01  4.0841E-01 -7.8310E-01 -4.4733E-02  2.0129E-01 -1.3255E-02
     149-
 mid.  surface     4.2455E-01  1.6180E-01 -5.2657E-01  9.8672E-03  3.3455E-01 -3.0615E-02
     150-
 mid.  surface     2.2547E-01  7.8815E-01 -8.4159E-01 -8.9778E-03 -3.2985E-01  3.4059E-02
     164-
 mid.  surface     4.3474E-01  3.5806E-01 -7.7946E-01 -1.2153E-02  4.6676E-02 -8.0576E-02
     165-
 mid.  surface     3.7819E-01  4.3113E-01 -9.2172E-01  2.2104E-03 -3.2716E-01 -7.9199E-02
     166-
 mid.  surface     2.5376E-01  1.0079E+00 -1.3897E+00  2.4843E-03 -1.0045E+00 -1.9139E-01



 n o d a l  s t r e s s  c a l c u l a t i o n s   f o r   t i m e  s t e p     1167   ( at time 9.73074E+01 )

 node (global)
          stress       sig-xx      sig-yy      sig-zz      sig-xy      sig-yz      sig-zx       plastic
                                                                                                 strain 
       1-
 mid.  surface    -6.2088E+08 -5.2146E+08 -1.2805E+09  4.8310E+07 -2.9636E+07 -1.7399E+06  2.1856E+00
       2-
 mid.  surface     2.1257E+08  2.5131E+08  1.8872E+08  2.4510E+07 -1.1756E+07  6.9388E+06  2.3700E+00
       8-
 mid.  surface    -8.3567E+08 -8.3412E+08 -1.2171E+09  7.1876E+07 -9.2691E+07 -1.9452E+07  2.8176E-01
       9-
 mid.  surface     3.2506E+09  3.1783E+09  6.2041E+08 -1.2264E+07 -2.9901E+08  2.6131E+07  2.5103E+00
      10-
 mid.  surface     1.6912E+09  1.7280E+09  3.7184E+09 -8.3064E+06 -7.5645E+07  2.5845E+07 -2.1203E+00
      11-
 mid.  surface     1.0362E+09  1.0766E+09  3.3837E+09  2.4378E+07 -3.3595E+07 -7.1331E+06 -4.7207E+00
      12-
 mid.  surface    -3.4086E+08 -3.4708E+08  8.0302E+08  1.6671E+07 -1.6523E+06 -2.4072E+07 -1.2027E+00
      17-
 mid.  surface    -7.0414E+08 -7.6339E+08 -3.3854E+09  1.2315E+07 -3.0207E+07  1.1380E+07  1.0368E+00
      18-
 mid.  surface    -1.6028E+09 -1.6545E+09 -1.1085E+09  1.2545E+07  1.4353E+07 -2.4271E+07 -1.0761E+00
      19-
 mid.  surface    -9.2161E+08 -9.1697E+08 -1.3390E+09 -2.4516E+07  1.8743E+06  1.3047E+07  1.7211E+00
      20-
 mid.  surface    -6.4300E+08 -6.9326E+08 -3.0526E+09  2.9031E+07 -1.3604E+07 -7.6504E+06  1.4919E+00
      21-
 mid.  surface    -1.0319E+08 -1.1694E+08 -5.7663E+08 -2.4115E+07  9.9912E+06  1.5346E+07  9.5582E-01
      22-
 mid.  surface    -1.5268E+08 -1.8573E+08 -1.7111E+08 -1.2215E+07  5.5285E+06 -3.7977E+07 -4.8617E-01
      23-
 mid.  surface     4.6255E+08  4.8302E+08  1.0089E+09  8.2983E+06 -1.0606E+06  1.1103E+07 -6.7460E-01
      24-
 mid.  surface    -2.5839E+08 -2.9335E+08 -1.2229E+09  1.3630E+07  3.1613E+07  1.2976E+07  3.8805E-01
      25-
 mid.  surface     1.0317E+09  9.7700E+08  9.4080E+08 -1.1908E+07  2.6016E+07  2.3883E+07  3.7786E-01
      26-
 mid.  surface    -1.3309E+09 -1.3479E+09 -1.9804E+09  3.6340E+06 -1.0934E+07 -9.1869E+07  1.2273E+00
      27-
 mid.  surface    -5.8314E+08 -5.7207E+08 -1.1368E+09 -2.6133E+06  1.5847E+07 -1.8292E+07  1.1312E+00
      28-
 mid.  surface    -8.1986E+08 -8.5637E+08 -8.5095E+08 -9.6627E+06  2.2339E+07  5.5893E+07  1.0844E+00
      29-
 mid.  surface     4.1466E+08  3.8631E+08  5.2306E+08 -4.0590E+07  6.3098E+06 -6.7632E+07  3.1944E-01
      30-
 mid.  surface    -2.0103E+09 -2.0063E+09 -2.0268E+09 -2.1172E+07 -1.6782E+07 -1.3940E+08  1.0664E+00
      31-
 mid.  surface    -1.8641E+09 -1.8284E+09 -1.8772E+09  9.7754E+06 -2.0087E+07 -5.5449E+07  1.1786E+00
      52-
 mid.  surface     1.3784E+06  7.9122E+07  1.5803E+09 -2.3929E+07  2.6378E+07  3.2389E+07  9.4364E-02
      53-
 mid.  surface    -1.6753E+09 -1.6849E+09 -2.5637E+09  2.1588E+07  5.0412E+07 -1.7416E+07  4.8275E-01
      54-
 mid.  surface     1.0430E+09  1.0607E+09  1.6114E+09 -2.9997E+07  3.6068E+07 -2.5494E+07  1.4546E-01
      55-
 mid.  surface    -2.8796E+08 -3.0559E+08 -8.3230E+08  1.1861E+07  5.1650E+07 -1.9830E+07  6.2429E-01
      56-
 mid.  surface    -1.0024E+09 -1.0431E+09 -1.5067E+09 -3.1406E+06 -1.1074E+08 -8.6171E+07  9.7090E-01
      57-
 mid.  surface    -3.4644E+09 -3.5078E+09 -3.0536E+09 -6.5433E+06 -6.7094E+07 -7.0298E+07  1.6296E+00
     124-
 mid.  surface     3.6282E+08  3.7161E+08  4.0414E+08 -1.3200E+07 -1.5233E+07  1.6800E+07  5.4494E-01
     125-
 mid.  surface    -9.5888E+08 -8.7699E+08 -1.5132E+09  1.5788E+07 -3.9025E+07  1.1452E+07  1.1409E+00
     126-
 mid.  surface    -1.2137E+07 -1.1738E+07  7.9412E+08  1.5018E+07 -2.0897E+07  7.9538E+07 -1.7137E-01
     127-
 mid.  surface    -2.0347E+09 -1.9797E+09 -2.7492E+09  3.7214E+07 -5.3862E+07  1.6319E+06  1.4033E+00
     128-
 mid.  surface     1.4003E+09  1.3698E+09  1.8760E+09 -2.6215E+07  3.6933E+07  6.6584E+07 -7.1797E-01
     129-
 mid.  surface    -2.9178E+09 -2.8868E+09 -3.5150E+09  2.5513E+07 -3.8805E+07 -7.8713E+07  9.1287E-01
     148-
 mid.  surface    -1.3705E+09 -1.3171E+09 -2.3685E+09  1.7499E+07 -1.9837E+06 -3.9519E+07  6.3239E-01
     149-
 mid.  surface     2.1596E+09  2.1954E+09  1.3203E+09  1.4068E+07  1.1343E+08  7.5004E+07  1.0606E+00
     150-
 mid.  surface    -2.0252E+09 -2.0163E+09 -1.3774E+09  2.5159E+07 -1.0951E+08  1.7118E+08  3.7525E-01
     164-
 mid.  surface    -2.5365E+08 -2.4131E+08  1.3944E+08 -3.5649E+07 -1.2700E+07 -6.5364E+06  5.5532E-01
     165-
 mid.  surface     2.8266E+09  2.8546E+09  2.9031E+09 -5.9257E+06  3.1927E+07  4.8088E+07 -1.3105E-01
     166-
 mid.  surface     2.4598E+09  2.4908E+09  4.6184E+08  3.0630E+07 -2.0908E+08  7.0245E+07  1.4397E-01



 n o d a l  s t r a i n  c a l c u l a t i o n s   f o r   t i m e  s t e p     1167   ( at time 9.73074E+01 )

 node (global)
          strain       eps-xx      eps-yy      eps-zz      eps-xy      eps-yz      eps-zx       
       1-
 mid.  surface     5.1109E-01  4.6451E-01 -8.4127E-01  4.2420E-02 -1.3449E-02  4.8480E-03
       2-
 mid.  surface     4.9880E-01  4.0651E-01 -9.2107E-01 -1.6214E-02  9.8774E-03  1.0041E-01
       8-
 mid.  surface     4.5351E-01  5.2154E-01 -9.9608E-01  1.4684E-02 -2.2505E-01  3.5012E-03
       9-
 mid.  surface     4.6401E-01  4.3873E-01 -1.0208E+00  3.2348E-02 -2.0107E-01 -9.2054E-02
      10-
 mid.  surface     4.0650E-01  2.4630E-01 -5.9884E-01 -6.3430E-04 -2.4055E-01  8.0786E-03
      11-
 mid.  surface     3.7084E-01  3.4725E-01 -7.5226E-01 -4.2303E-02 -7.1519E-02  5.4897E-02
      12-
 mid.  surface     4.2126E-01  4.7737E-01 -8.6285E-01  5.5443E-02 -4.4758E-02 -5.4913E-02
      17-
 mid.  surface     4.0821E-01  3.8118E-01 -8.6564E-01 -8.8887E-02 -1.4927E-01  4.4377E-02
      18-
 mid.  surface     4.1169E-01  3.6687E-01 -7.2696E-01 -1.9418E-02 -2.9528E-01  5.9059E-02
      19-
 mid.  surface     4.4543E-01  3.9857E-01 -9.0720E-01  1.1558E-02 -4.4479E-02 -1.6880E-03
      20-
 mid.  surface     3.9720E-01  4.3564E-01 -8.1677E-01 -4.4324E-02  3.7430E-02  5.2480E-02
      21-
 mid.  surface     3.3415E-01  4.1443E-01 -8.5037E-01  2.6195E-02  6.4610E-02  3.4380E-02
      22-
 mid.  surface     3.7167E-01  4.3329E-01 -8.0531E-01  1.0229E-02  5.7066E-02  4.1270E-02
      23-
 mid.  surface     4.0150E-01  3.9925E-01 -7.7191E-01 -2.3806E-02  1.5644E-01  2.1225E-02
      24-
 mid.  surface     4.6637E-01  3.4828E-01 -7.6253E-01  2.9247E-02  5.0087E-01  3.3370E-01
      25-
 mid.  surface     3.3162E-01  3.3613E-01 -7.9707E-01  4.8248E-02  1.7451E-01  1.0907E-01
      26-
 mid.  surface     3.8945E-01  3.9616E-01 -6.4749E-01  3.1445E-02 -1.1913E-01 -1.6281E-01
      27-
 mid.  surface     4.5637E-01  3.7098E-01 -8.1774E-01  7.4851E-02  2.3410E-01  1.1319E-01
      28-
 mid.  surface     3.0104E-01  2.6110E-01 -5.2310E-01 -6.1509E-02  2.4504E-01  3.2669E-01
      29-
 mid.  surface     3.4486E-01  1.9426E-01 -7.1245E-01 -6.7482E-02 -9.3775E-02  8.2175E-02
      30-
 mid.  surface     3.5710E-01  3.1328E-01 -5.7263E-01 -1.5238E-02 -6.3953E-01 -2.8634E-01
      31-
 mid.  surface     3.3550E-01  4.0684E-01 -7.1124E-01  9.6805E-02 -5.6098E-01 -1.6746E-01
      52-
 mid.  surface     4.1662E-01  3.5342E-01 -7.5483E-01  2.3130E-02  2.0517E-02  4.9604E-02
      53-
 mid.  surface     4.3566E-01  3.7349E-01 -7.7903E-01 -2.1822E-02  2.4476E-01  1.3520E-01
      54-
 mid.  surface     4.0139E-01  2.6311E-01 -8.1769E-01 -3.7661E-02 -9.8940E-03 -3.0045E-02
      55-
 mid.  surface     4.1638E-01  1.2007E-01 -5.0920E-01 -7.1907E-02  4.5762E-01  1.2530E-01
      56-
 mid.  surface     3.1476E-01  6.3502E-01 -1.0542E+00  1.6020E-01 -8.6479E-01 -4.4023E-01
      57-
 mid.  surface     2.4961E-01  3.6486E-01 -4.7336E-01  7.5911E-02 -2.0461E-01 -1.6982E-01
     124-
 mid.  surface     3.5180E-01  4.2690E-01 -8.9514E-01  3.9029E-02  5.8379E-02  1.0596E-01
     125-
 mid.  surface     3.9446E-01  4.6019E-01 -8.2528E-01  3.7885E-03  3.0339E-02 -1.2392E-01
     126-
 mid.  surface     4.4279E-01  3.1907E-01 -8.6802E-01 -2.5883E-02  2.3183E-01 -1.8410E-02
     127-
 mid.  surface     4.9274E-01  3.2011E-01 -7.5937E-01 -1.2029E-01  1.7425E-01 -1.8704E-01
     128-
 mid.  surface     3.2393E-01  1.1779E-01 -5.2693E-01 -3.9120E-02  1.5503E-01 -2.4621E-01
     129-
 mid.  surface     3.7761E-01  2.0407E-01 -4.1063E-01 -5.5026E-02  6.5573E-02 -4.1035E-01
     148-
 mid.  surface     4.5914E-01  4.2724E-01 -8.1483E-01 -4.3565E-02  1.9148E-01 -1.0509E-02
     149-
 mid.  surface     4.3789E-01  1.6342E-01 -5.4317E-01  6.9434E-03  3.3134E-01 -3.5959E-02
     150-
 mid.  surface     2.3253E-01  8.0266E-01 -8.8025E-01 -1.0403E-02 -3.2999E-01  3.6078E-02
     164-
 mid.  surface     4.4732E-01  3.7540E-01 -8.0799E-01 -1.3228E-02  6.7913E-02 -7.4451E-02
     165-
 mid.  surface     3.9303E-01  4.3792E-01 -9.3875E-01  2.0557E-03 -3.2921E-01 -8.5508E-02
     166-
 mid.  surface     2.6226E-01  1.0365E+00 -1.4208E+00  1.1389E-02 -1.0073E+00 -1.8697E-01



 n o d a l  s t r e s s  c a l c u l a t i o n s   f o r   t i m e  s t e p     1175   ( at time 1.00000E+02 )

 node (global)
          stress       sig-xx      sig-yy      sig-zz      sig-xy      sig-yz      sig-zx       plastic
                                                                                                 strain 
       1-
 mid.  surface    -6.2439E+08 -4.2022E+08 -7.6365E+08 -4.2395E+06 -1.3809E+06  7.5024E+07  2.1813E+00
       2-
 mid.  surface    -5.4269E+07  2.7617E+07  6.6117E+08 -6.7021E+05 -8.6238E+05  5.4682E+07  2.3104E+00
       8-
 mid.  surface    -5.0118E+08 -5.2751E+08 -8.9586E+08 -6.5910E+06 -1.2157E+07  8.3983E+05  3.0598E-01
       9-
 mid.  surface     5.7808E+09  5.5781E+09  3.0684E+09  3.1319E+07 -1.9687E+08  6.1001E+07  2.6470E+00
      10-
 mid.  surface     8.3145E+08  9.6391E+08  2.6692E+09  6.4382E+06 -4.1570E+07  2.8112E+07 -2.2298E+00
      11-
 mid.  surface     3.3499E+08  4.2757E+08  1.6108E+09  1.7109E+07 -7.3560E+07  4.9898E+07 -4.7834E+00
      12-
 mid.  surface     3.4975E+08  2.4947E+08  7.8175E+08  3.2993E+07 -4.1889E+06  3.4292E+07 -1.2136E+00
      17-
 mid.  surface     2.7915E+08  1.4872E+08 -2.2342E+09 -2.9793E+07 -1.4409E+08  2.1233E+07  1.1787E+00
      18-
 mid.  surface    -2.3979E+09 -2.3814E+09 -1.6511E+09 -1.4338E+07 -1.2599E+07 -3.7091E+07 -1.1132E+00
      19-
 mid.  surface    -4.0562E+08 -5.3087E+08 -5.4792E+08 -4.1023E+07 -7.0181E+06  1.9631E+07  1.7367E+00
      20-
 mid.  surface     4.8008E+08  4.3418E+08 -2.0784E+09 -3.1006E+07 -6.2616E+07 -2.8168E+07  1.6341E+00
      21-
 mid.  surface    -2.8579E+08 -4.5231E+08 -5.1767E+08 -1.9533E+07 -4.0396E+06  5.1298E+07  9.7650E-01
      22-
 mid.  surface    -3.2138E+08 -4.5718E+08 -2.9612E+08  8.8009E+06  2.1570E+07  4.8019E+07 -4.6670E-01
      23-
 mid.  surface     2.9336E+08  4.5511E+08  4.0667E+08  6.3038E+06  2.3103E+07  4.9166E+07 -6.8739E-01
      24-
 mid.  surface     3.8175E+08  3.1609E+08 -1.2680E+09 -1.5179E+07  2.4698E+07 -7.0313E+07  4.9785E-01
      25-
 mid.  surface     2.6025E+08  1.1885E+08  1.0439E+09  4.0018E+07  6.7878E+07  1.4463E+07  3.3307E-01
      26-
 mid.  surface    -1.2761E+09 -1.2680E+09 -1.2590E+09  3.5587E+07  3.7170E+07 -6.1010E+07  1.2440E+00
      27-
 mid.  surface    -9.4442E+07 -1.4296E+07 -1.0063E+09 -1.2690E+07  5.3581E+07 -8.7349E+07  1.1904E+00
      28-
 mid.  surface     8.6697E+07 -9.9762E+07 -9.7915E+08 -2.1631E+07 -1.1154E+08 -3.5593E+07  1.1460E+00
      29-
 mid.  surface    -1.4730E+09 -1.5487E+09 -2.9387E+07  1.5302E+07  3.3389E+06  4.8185E+07  2.3508E-01
      30-
 mid.  surface    -2.8539E+09 -2.8131E+09 -2.6882E+09 -1.0458E+07 -1.5000E+08 -5.6909E+07  1.0749E+00
      31-
 mid.  surface    -7.7661E+08 -6.9993E+08 -1.4975E+09 -3.9808E+07 -1.3502E+08 -5.9887E+07  1.2226E+00
      52-
 mid.  surface    -2.6610E+08 -1.3161E+08  1.0861E+09  2.4660E+07 -4.6294E+07  2.4213E+07  1.1402E-02
      53-
 mid.  surface    -1.5386E+09 -1.5578E+09 -2.4448E+09  1.5580E+07 -2.5401E+07 -2.3660E+07  5.5271E-01
      54-
 mid.  surface     1.0424E+08  1.5184E+08  1.2248E+09 -2.0369E+07  2.0399E+08 -6.9032E+07  6.4558E-02
      55-
 mid.  surface    -5.9536E+08 -6.8234E+08 -1.3780E+09 -1.4107E+07  1.5208E+08 -1.3191E+07  6.7827E-01
      56-
 mid.  surface    -9.9649E+08 -1.0654E+09 -9.6141E+08 -2.4251E+07  3.7228E+07 -4.3714E+07  9.6100E-01
      57-
 mid.  surface    -2.3642E+09 -2.5824E+09 -3.5376E+09  3.7721E+06 -1.8369E+08 -3.5174E+07  1.7167E+00
     124-
 mid.  surface     7.8643E+07  9.2882E+07  9.6524E+07 -2.7269E+07 -2.6141E+07  5.8291E+07  5.3353E-01
     125-
 mid.  surface    -6.9465E+07  1.3150E+08 -1.4499E+09 -2.0067E+07  2.2921E+05  2.3854E+07  1.2103E+00
     126-
 mid.  surface     1.1578E+09  1.2876E+09  7.2679E+08 -1.6640E+07  3.4673E+07  6.0899E+07 -1.7055E-01
     127-
 mid.  surface     5.1345E+08  8.6075E+08 -1.7588E+09 -1.7420E+06 -2.0433E+07 -1.2493E+08  1.5305E+00
     128-
 mid.  surface     5.8387E+08  5.3928E+08  1.2061E+09 -1.6240E+07 -5.7084E+07 -2.7113E+07 -7.4645E-01
     129-
 mid.  surface    -1.4678E+09 -1.2528E+09 -3.4475E+09  4.8392E+07 -2.1134E+08 -2.8474E+08  1.0680E+00
     148-
 mid.  surface    -4.5760E+08 -5.2534E+08 -2.2528E+09  2.6851E+07 -2.0371E+08  1.1818E+07  7.4546E-01
     149-
 mid.  surface     1.5839E+09  1.5835E+09  1.0121E+09 -1.6459E+07  1.1468E+08  5.1499E+07  1.0936E+00
     150-
 mid.  surface    -4.7397E+08 -4.6366E+08 -1.5959E+09 -2.9791E+07 -2.8319E+08  6.3196E+07  4.9479E-01
     164-
 mid.  surface     1.6136E+09  1.5666E+09  1.1568E+09  2.7015E+07 -3.0308E+08 -4.8513E+06  5.6948E-01
     165-
 mid.  surface     1.6521E+09  1.7237E+09  3.2900E+09 -3.1952E+07  1.8960E+08  3.0488E+07 -2.6256E-01
     166-
 mid.  surface     2.4369E+09  2.4884E+09  2.0569E+09 -2.5277E+07 -1.7652E+07  8.5316E+07  1.6988E-01



 n o d a l  s t r a i n  c a l c u l a t i o n s   f o r   t i m e  s t e p     1175   ( at time 1.00000E+02 )

 node (global)
          strain       eps-xx      eps-yy      eps-zz      eps-xy      eps-yz      eps-zx       
       1-
 mid.  surface     5.2355E-01  4.7869E-01 -9.0952E-01  3.6954E-02 -3.3467E-02 -1.6719E-04
       2-
 mid.  surface     5.2642E-01  4.2249E-01 -9.7974E-01 -1.6539E-02 -1.1731E-02  1.1340E-01
       8-
 mid.  surface     4.7034E-01  5.3032E-01 -1.0277E+00  1.4593E-02 -2.3507E-01  8.7122E-03
       9-
 mid.  surface     4.7811E-01  4.3984E-01 -1.0097E+00  3.4678E-02 -2.1419E-01 -9.1486E-02
      10-
 mid.  surface     4.2214E-01  2.6395E-01 -6.3246E-01 -3.0234E-03 -2.4873E-01  1.2574E-02
      11-
 mid.  surface     3.8944E-01  3.5846E-01 -7.9534E-01 -3.7842E-02 -6.7018E-02  6.6791E-02
      12-
 mid.  surface     4.3390E-01  4.9238E-01 -8.6618E-01  5.1252E-02 -4.0686E-02 -5.8278E-02
      17-
 mid.  surface     4.2659E-01  3.8843E-01 -8.9301E-01 -8.6737E-02 -1.5026E-01  5.3964E-02
      18-
 mid.  surface     4.2638E-01  3.8500E-01 -7.6426E-01 -2.2258E-02 -3.0208E-01  6.4666E-02
      19-
 mid.  surface     4.6073E-01  4.1429E-01 -9.0905E-01  8.2843E-03 -4.8719E-02  7.9288E-03
      20-
 mid.  surface     4.1205E-01  4.4534E-01 -8.3504E-01 -4.5044E-02  2.4803E-02  5.5604E-02
      21-
 mid.  surface     3.4119E-01  4.2728E-01 -8.7139E-01  2.3872E-02  8.5498E-02  5.7380E-02
      22-
 mid.  surface     3.7939E-01  4.4516E-01 -8.2522E-01  1.2439E-02  7.3370E-02  2.8513E-02
      23-
 mid.  surface     4.1652E-01  4.0731E-01 -8.0222E-01 -2.4131E-02  1.6657E-01  5.2828E-02
      24-
 mid.  surface     4.7592E-01  3.5385E-01 -7.8023E-01  2.1566E-02  4.9139E-01  3.2683E-01
      25-
 mid.  surface     3.3712E-01  3.4528E-01 -8.4271E-01  4.8753E-02  1.9297E-01  1.1250E-01
      26-
 mid.  surface     4.0629E-01  4.0348E-01 -6.8517E-01  3.2407E-02 -1.1041E-01 -1.5483E-01
      27-
 mid.  surface     4.6933E-01  3.7235E-01 -8.2661E-01  6.8390E-02  2.3954E-01  1.2643E-01
      28-
 mid.  surface     3.0818E-01  2.6201E-01 -5.2129E-01 -7.0995E-02  2.8695E-01  3.6701E-01
      29-
 mid.  surface     3.5134E-01  2.1963E-01 -7.6255E-01 -5.8068E-02 -9.5413E-02  9.8167E-02
      30-
 mid.  surface     3.7095E-01  3.4137E-01 -6.1285E-01 -1.4896E-02 -6.4926E-01 -2.7651E-01
      31-
 mid.  surface     3.4549E-01  4.0867E-01 -6.9063E-01  9.5322E-02 -5.5378E-01 -1.4902E-01
      52-
 mid.  surface     4.3422E-01  3.6151E-01 -7.7439E-01  2.3933E-02  2.9481E-02  3.0217E-02
      53-
 mid.  surface     4.5002E-01  3.8906E-01 -8.0275E-01 -2.2065E-02  2.3827E-01  1.3353E-01
      54-
 mid.  surface     4.1956E-01  2.7529E-01 -8.5118E-01 -3.4999E-02 -9.6302E-03 -4.3538E-02
      55-
 mid.  surface     4.3353E-01  1.3226E-01 -5.3610E-01 -7.1692E-02  4.5185E-01  1.2594E-01
      56-
 mid.  surface     3.3019E-01  6.6193E-01 -1.0934E+00  1.6867E-01 -8.6413E-01 -4.2833E-01
      57-
 mid.  surface     2.6427E-01  3.7778E-01 -4.9421E-01  7.7254E-02 -2.0546E-01 -1.6420E-01
     124-
 mid.  surface     3.5082E-01  4.4127E-01 -8.9872E-01  4.2031E-02  6.5785E-02  8.9007E-02
     125-
 mid.  surface     4.0402E-01  4.7289E-01 -8.3027E-01  5.2453E-03  3.8378E-02 -9.5422E-02
     126-
 mid.  surface     4.5774E-01  3.2215E-01 -8.6298E-01 -2.7662E-02  2.3108E-01  2.7717E-04
     127-
 mid.  surface     5.1569E-01  3.2618E-01 -7.5027E-01 -1.2510E-01  1.4800E-01 -2.1279E-01
     128-
 mid.  surface     3.5235E-01  1.4242E-01 -5.7014E-01 -3.8896E-02  1.6456E-01 -2.7484E-01
     129-
 mid.  surface     4.0557E-01  2.3146E-01 -4.6600E-01 -6.1218E-02  4.6881E-02 -4.7205E-01
     148-
 mid.  surface     4.7353E-01  4.4177E-01 -8.5464E-01 -4.2132E-02  2.1270E-01 -1.3202E-02
     149-
 mid.  surface     4.5303E-01  1.6807E-01 -5.5998E-01  4.4599E-03  3.3668E-01 -2.8346E-02
     150-
 mid.  surface     2.4447E-01  8.1263E-01 -8.7652E-01 -9.6130E-03 -3.4971E-01  2.8223E-02
     164-
 mid.  surface     4.5963E-01  3.8047E-01 -8.1529E-01 -1.1699E-02  4.9997E-02 -7.3551E-02
     165-
 mid.  surface     4.1047E-01  4.4634E-01 -9.7842E-01  2.1053E-03 -2.9941E-01 -7.4661E-02
     166-
 mid.  surface     2.7827E-01  1.0692E+00 -1.4911E+00  1.7262E-02 -1.0049E+00 -2.0284E-01
