 LS-DYNA keyword deck by LS-PrePost                                      
                    ls-dyna smp d R14 R14.1.1s_1_ef50e1 date 06/16/2024



 e l e m e n t   s t r e s s   c a l c u l a t i o n s   f o r   t i m e  s t e p        1   ( at time 0.00000E+00 )

 element  materl
     ipt  stress       sig-xx      sig-yy      sig-zz      sig-xy      sig-yz      sig-zx                       yield
           state                                                                                  effsg      function
      13-      1
       1          -1.9509E-06 -1.9509E-06 -1.9509E-06  0.0000E+00  0.0000E+00  0.0000E+00    0.0000E+00    0.0000E+00
      14-      1
       1          -5.8528E-06 -5.8528E-06 -5.8528E-06  0.0000E+00  0.0000E+00  0.0000E+00    0.0000E+00    0.0000E+00
      15-      1
       1          -1.9509E-06 -1.9509E-06 -1.9509E-06  0.0000E+00  0.0000E+00  0.0000E+00    0.0000E+00    0.0000E+00
      21-      1
       1           0.0000E+00  0.0000E+00  0.0000E+00  0.0000E+00  0.0000E+00  0.0000E+00    0.0000E+00    0.0000E+00
      22-      1
       1           0.0000E+00  0.0000E+00  0.0000E+00  0.0000E+00  0.0000E+00  0.0000E+00    0.0000E+00    0.0000E+00
      23-      1
       1          -1.9509E-06 -1.9509E-06 -1.9509E-06  0.0000E+00  0.0000E+00  0.0000E+00    0.0000E+00    0.0000E+00
      53-      1
       1          -1.9509E-06 -1.9509E-06 -1.9509E-06  0.0000E+00  0.0000E+00  0.0000E+00    0.0000E+00    0.0000E+00
      54-      1
       1           0.0000E+00  0.0000E+00  0.0000E+00  0.0000E+00  0.0000E+00  0.0000E+00    0.0000E+00    0.0000E+00
      55-      1
       1          -1.9509E-06 -1.9509E-06 -1.9509E-06  0.0000E+00  0.0000E+00  0.0000E+00    0.0000E+00    0.0000E+00
      93-      1
       1          -3.9019E-06 -3.9019E-06 -3.9019E-06  0.0000E+00  0.0000E+00  0.0000E+00    0.0000E+00    0.0000E+00
      94-      1
       1          -3.9019E-06 -3.9019E-06 -3.9019E-06  0.0000E+00  0.0000E+00  0.0000E+00    0.0000E+00    0.0000E+00
      95-      1
       1          -1.9509E-06 -1.9509E-06 -1.9509E-06  0.0000E+00  0.0000E+00  0.0000E+00    0.0000E+00    0.0000E+00



 e l e m e n t   s t r a i n   c a l c u l a t i o n s   f o r   t i m e  s t e p        1   ( at time  0.00000E+00 )

 element  strain       eps-xx      eps-yy      eps-zz      eps-xy      eps-yz      eps-zx                            yield
 num/ipt   state
      13-      1
      1            0.0000E+00  0.0000E+00  0.0000E+00  0.0000E+00  0.0000E+00  0.0000E+00
      14-      1
      1            0.0000E+00  0.0000E+00  0.0000E+00  0.0000E+00  0.0000E+00  0.0000E+00
      15-      1
      1            0.0000E+00  0.0000E+00  0.0000E+00  0.0000E+00  0.0000E+00  0.0000E+00
      21-      1
      1            0.0000E+00  0.0000E+00  0.0000E+00  0.0000E+00  0.0000E+00  0.0000E+00
      22-      1
      1            0.0000E+00  0.0000E+00  0.0000E+00  0.0000E+00  0.0000E+00  0.0000E+00
      23-      1
      1            0.0000E+00  0.0000E+00  0.0000E+00  0.0000E+00  0.0000E+00  0.0000E+00
      53-      1
      1            0.0000E+00  0.0000E+00  0.0000E+00  0.0000E+00  0.0000E+00  0.0000E+00
      54-      1
      1            0.0000E+00  0.0000E+00  0.0000E+00  0.0000E+00  0.0000E+00  0.0000E+00
      55-      1
      1            0.0000E+00  0.0000E+00  0.0000E+00  0.0000E+00  0.0000E+00  0.0000E+00
      93-      1
      1            0.0000E+00  0.0000E+00  0.0000E+00  0.0000E+00  0.0000E+00  0.0000E+00
      94-      1
      1            0.0000E+00  0.0000E+00  0.0000E+00  0.0000E+00  0.0000E+00  0.0000E+00
      95-      1
      1            0.0000E+00  0.0000E+00  0.0000E+00  0.0000E+00  0.0000E+00  0.0000E+00



 e l e m e n t   s t r e s s   c a l c u l a t i o n s   f o r   t i m e  s t e p       14   ( at time 1.29245E+00 )

 element  materl
     ipt  stress       sig-xx      sig-yy      sig-zz      sig-xy      sig-yz      sig-zx                       yield
           state                                                                                  effsg      function
      13-      1
       1          -2.3435E+07 -2.7828E+07 -2.7344E+08  1.0347E+07 -7.7448E+06 -1.1156E+07    2.4959E+08    6.5311E-05
      14-      1
       1          -2.1894E+07 -2.5242E+07 -2.5385E+08  7.5257E+06 -2.1953E+07 -3.1982E+07    2.4025E+08    2.0234E-05
      15-      1
       1          -2.4366E+07 -2.6161E+07 -2.1546E+08  2.5917E+06 -3.1299E+07 -4.6357E+07    2.1350E+08    0.0000E+00
      21-      1
       1          -2.8599E+07 -1.9886E+07 -2.7301E+08  9.2981E+06 -1.0932E+07 -7.5678E+06    2.5047E+08    6.1737E-05
      22-      1
       1          -2.6544E+07 -2.0492E+07 -2.5458E+08  6.9512E+06 -3.1328E+07 -2.1681E+07    2.4066E+08    1.7213E-05
      23-      1
       1          -2.7402E+07 -2.5894E+07 -2.1735E+08  2.8256E+06 -4.5344E+07 -3.1365E+07    2.1333E+08    0.0000E+00
      53-      1
       1          -1.6635E+07 -3.4443E+07 -2.7294E+08  5.0512E+06 -2.5174E+06 -1.2924E+07    2.4908E+08    6.1588E-05
      54-      1
       1          -1.6582E+07 -3.0148E+07 -2.5281E+08  3.5855E+06 -7.0421E+06 -3.6809E+07    2.3882E+08    2.3915E-05
      55-      1
       1          -2.0557E+07 -2.6976E+07 -2.1541E+08  1.1533E+06 -1.0225E+07 -5.3604E+07    2.1376E+08    0.0000E+00
      93-      1
       1          -3.2916E+07 -1.3841E+07 -2.7238E+08  3.3851E+06 -1.2116E+07 -2.3059E+06    2.5053E+08    5.3159E-05
      94-      1
       1          -3.0491E+07 -1.6239E+07 -2.5541E+08  2.6811E+06 -3.4844E+07 -6.7246E+06    2.4041E+08    1.4051E-05
      95-      1
       1          -2.9735E+07 -2.3642E+07 -2.2051E+08  1.4123E+06 -5.0963E+07 -1.0078E+07    2.1376E+08    0.0000E+00



 e l e m e n t   s t r a i n   c a l c u l a t i o n s   f o r   t i m e  s t e p       14   ( at time  1.29245E+00 )

 element  strain       eps-xx      eps-yy      eps-zz      eps-xy      eps-yz      eps-zx                            yield
 num/ipt   state
      13-      1
      1            1.1885E-03  1.1026E-03 -3.8342E-03  2.0705E-04 -1.5937E-04 -2.2771E-04
      14-      1
      1            1.0433E-03  9.7931E-04 -3.4528E-03  1.4625E-04 -4.2911E-04 -6.2252E-04
      15-      1
      1            8.0595E-04  7.7164E-04 -2.8411E-03  4.9460E-05 -5.9728E-04 -8.8464E-04
      21-      1
      1            1.0650E-03  1.2388E-03 -3.8318E-03  1.8555E-04 -2.2398E-04 -1.5398E-04
      22-      1
      1            9.5298E-04  1.0703E-03 -3.4565E-03  1.3483E-04 -6.1005E-04 -4.2076E-04
      23-      1
      1            7.7021E-04  7.9900E-04 -2.8548E-03  5.3956E-05 -8.6531E-04 -5.9854E-04
      53-      1
      1            1.3169E-03  9.6346E-04 -3.8203E-03  1.0064E-04 -5.0111E-05 -2.6050E-04
      54-      1
      1            1.1442E-03  8.8149E-04 -3.4491E-03  6.9662E-05 -1.3696E-04 -7.1703E-04
      55-      1
      1            8.6401E-04  7.4164E-04 -2.8548E-03  2.1970E-05 -1.9513E-04 -1.0229E-03
      93-      1
      1            9.5792E-04  1.3355E-03 -3.8102E-03  6.6868E-05 -2.4483E-04 -4.6373E-05
      94-      1
      1            8.7595E-04  1.1508E-03 -3.4624E-03  5.1774E-05 -6.7468E-04 -1.2991E-04
      95-      1
      1            7.4116E-04  8.5750E-04 -2.8996E-03  2.6973E-05 -9.7255E-04 -1.9231E-04



 e l e m e n t   s t r e s s   c a l c u l a t i o n s   f o r   t i m e  s t e p       49   ( at time 2.54839E+00 )

 element  materl
     ipt  stress       sig-xx      sig-yy      sig-zz      sig-xy      sig-yz      sig-zx                       yield
           state                                                                                  effsg      function
      13-      1
       1          -6.3946E+07 -6.3420E+07 -2.9325E+08  7.4129E+06 -7.5528E+06 -8.9071E+06    2.3081E+08    7.1866E-03
      14-      1
       1          -2.9778E+07 -3.0577E+07 -2.7293E+08  5.2736E+06 -2.4356E+07 -3.3800E+07    2.5342E+08    4.3228E-03
      15-      1
       1          -2.1984E+07 -2.7991E+07 -2.4293E+08  4.8977E+05 -4.1109E+07 -6.2366E+07    2.5351E+08    1.7312E-03
      21-      1
       1          -4.7067E+07 -4.8397E+07 -2.9356E+08  6.7241E+06 -1.0664E+07 -7.1360E+06    2.4711E+08    6.9323E-03
      22-      1
       1          -2.5724E+07 -2.5667E+07 -2.7441E+08  6.2127E+06 -3.5545E+07 -2.4510E+07    2.5994E+08    4.0500E-03
      23-      1
       1          -3.4498E+07 -3.6618E+07 -2.5346E+08  4.0308E+06 -5.9720E+07 -4.3220E+07    2.5266E+08    1.6842E-03
      53-      1
       1          -4.3832E+07 -5.5759E+07 -2.8921E+08  1.0582E+07 -2.7601E+06 -7.4057E+06    2.4073E+08    5.9149E-03
      54-      1
       1          -2.2806E+07 -3.3154E+07 -2.5197E+08  6.7058E+06 -7.6970E+06 -3.1705E+07    2.3148E+08    5.1109E-03
      55-      1
       1          -8.1158E+06 -1.7879E+07 -1.9570E+08  1.3546E+06 -1.1927E+07 -5.7187E+07    2.0903E+08    2.2550E-03
      93-      1
       1          -3.1805E+07 -2.0845E+07 -2.9142E+08  3.4380E+06 -1.1672E+07 -2.5025E+06    2.6613E+08    5.4727E-03
      94-      1
       1          -3.3672E+07 -2.3173E+07 -2.7521E+08  3.6151E+06 -3.8539E+07 -8.5311E+06    2.5632E+08    4.2026E-03
      95-      1
       1          -4.5232E+07 -4.0114E+07 -2.5762E+08  3.4521E+06 -6.4834E+07 -1.5298E+07    2.4407E+08    1.7345E-03



 e l e m e n t   s t r a i n   c a l c u l a t i o n s   f o r   t i m e  s t e p       49   ( at time  2.54839E+00 )

 element  strain       eps-xx      eps-yy      eps-zz      eps-xy      eps-yz      eps-zx                            yield
 num/ipt   state
      13-      1
      1            5.2635E-03  5.2889E-03 -1.2606E-02  5.6878E-04 -7.2460E-04 -7.5624E-04
      14-      1
      1            4.5031E-03  4.4760E-03 -1.0598E-02  3.3947E-04 -1.6349E-03 -2.1916E-03
      15-      1
      1            3.0690E-03  2.8208E-03 -7.2931E-03  4.0513E-05 -1.9491E-03 -3.0136E-03
      21-      1
      1            5.4848E-03  5.3550E-03 -1.2745E-02  4.9583E-04 -8.6474E-04 -5.6622E-04
      22-      1
      1            4.5227E-03  4.5233E-03 -1.0629E-02  3.8433E-04 -2.2060E-03 -1.5437E-03
      23-      1
      1            2.8955E-03  2.7975E-03 -7.2454E-03  1.9383E-04 -2.7933E-03 -2.0410E-03
      53-      1
      1            5.4944E-03  4.6315E-03 -1.2019E-02  7.4405E-04 -1.7316E-04 -6.5883E-04
      54-      1
      1            4.7677E-03  4.0800E-03 -1.0350E-02  4.2378E-04 -3.9179E-04 -2.2267E-03
      55-      1
      1            3.2494E-03  2.7289E-03 -7.0508E-03  5.9136E-05 -4.9769E-04 -3.2025E-03
      93-      1
      1            5.0808E-03  5.8311E-03 -1.2604E-02  2.3507E-04 -8.0422E-04 -1.7227E-04
      94-      1
      1            4.2687E-03  4.9223E-03 -1.0807E-02  2.2348E-04 -2.3719E-03 -5.3472E-04
      95-      1
      1            2.7156E-03  2.9501E-03 -7.3063E-03  1.5798E-04 -3.0743E-03 -7.2859E-04



 e l e m e n t   s t r e s s   c a l c u l a t i o n s   f o r   t i m e  s t e p      133   ( at time 3.17785E+00 )

 element  materl
     ipt  stress       sig-xx      sig-yy      sig-zz      sig-xy      sig-yz      sig-zx                       yield
           state                                                                                  effsg      function
      13-      1
       1          -9.9301E+07 -9.5901E+07 -2.8164E+08  4.4733E+06 -6.6621E+06 -6.3774E+06    1.8492E+08    1.6040E-02
      14-      1
       1          -3.1128E+07 -3.3798E+07 -2.5795E+08  3.3264E+06 -2.5422E+07 -3.0307E+07    2.3575E+08    1.0191E-02
      15-      1
       1          -5.3389E+06 -1.6939E+07 -2.2974E+08 -2.0982E+06 -4.2354E+07 -6.0332E+07    2.5338E+08    5.3104E-03
      21-      1
       1          -5.8952E+07 -7.3304E+07 -2.9435E+08  4.6378E+06 -1.0374E+07 -6.8821E+06    2.2972E+08    1.4220E-02
      22-      1
       1          -1.9042E+07 -2.9215E+07 -2.7037E+08  6.5758E+06 -3.7611E+07 -2.5409E+07    2.5889E+08    9.3268E-03
      23-      1
       1          -2.4793E+07 -3.2871E+07 -2.4542E+08  4.9520E+06 -6.0117E+07 -4.5035E+07    2.5290E+08    5.0771E-03
      53-      1
       1          -6.3925E+07 -6.4408E+07 -2.5528E+08  1.6478E+07 -4.4299E+06 -1.6652E+06    1.9341E+08    1.4123E-02
      54-      1
       1          -1.6805E+07 -2.2716E+07 -2.0471E+08  1.2421E+07 -1.3089E+07 -1.8014E+07    1.9021E+08    1.2038E-02
      55-      1
       1           2.0333E+07  1.0832E+07 -1.2977E+08  3.4728E+06 -1.4280E+07 -3.8632E+07    1.6224E+08    8.1054E-03
      93-      1
       1          -2.0720E+07 -2.0547E+07 -2.9261E+08  1.6021E+06 -1.2436E+07 -2.7110E+06    2.7289E+08    1.1119E-02
      94-      1
       1          -2.8098E+07 -2.2433E+07 -2.7145E+08  4.1346E+06 -3.9833E+07 -8.6978E+06    2.5626E+08    9.3721E-03
      95-      1
       1          -4.9064E+07 -4.3579E+07 -2.5024E+08  3.4462E+06 -6.2191E+07 -1.5423E+07    2.3229E+08    5.5322E-03



 e l e m e n t   s t r a i n   c a l c u l a t i o n s   f o r   t i m e  s t e p      133   ( at time  3.17785E+00 )

 element  strain       eps-xx      eps-yy      eps-zz      eps-xy      eps-yz      eps-zx                            yield
 num/ipt   state
      13-      1
      1            7.6563E-03  7.8850E-03 -1.7882E-02  7.0394E-04 -1.2097E-03 -1.0950E-03
      14-      1
      1            6.8344E-03  6.7263E-03 -1.5139E-02  4.2827E-04 -2.6755E-03 -3.2040E-03
      15-      1
      1            4.7644E-03  4.1769E-03 -1.0153E-02 -3.0274E-05 -2.8428E-03 -4.2581E-03
      21-      1
      1            8.6102E-03  7.5967E-03 -1.8314E-02  6.2242E-04 -1.3347E-03 -8.7797E-04
      22-      1
      1            7.1501E-03  6.6254E-03 -1.5337E-02  5.9647E-04 -3.3787E-03 -2.3449E-03
      23-      1
      1            4.4400E-03  4.0840E-03 -9.9778E-03  3.1548E-04 -3.9385E-03 -2.9408E-03
      53-      1
      1            7.7975E-03  7.0939E-03 -1.6777E-02  1.5785E-03 -2.9704E-04 -9.2042E-04
      54-      1
      1            6.8725E-03  5.9785E-03 -1.4063E-02  9.2489E-04 -5.8782E-04 -3.0982E-03
      55-      1
      1            4.8302E-03  3.9732E-03 -9.2982E-03  1.3885E-04 -6.2226E-04 -4.3245E-03
      93-      1
      1            8.0378E-03  8.5888E-03 -1.8294E-02  2.4853E-04 -1.1892E-03 -2.5647E-04
      94-      1
      1            6.5837E-03  7.3088E-03 -1.5477E-02  3.5085E-04 -3.5008E-03 -7.8137E-04
      95-      1
      1            4.0266E-03  4.3864E-03 -1.0059E-02  2.2654E-04 -4.3730E-03 -1.0621E-03



 e l e m e n t   s t r e s s   c a l c u l a t i o n s   f o r   t i m e  s t e p      267   ( at time 4.29920E+00 )

 element  materl
     ipt  stress       sig-xx      sig-yy      sig-zz      sig-xy      sig-yz      sig-zx                       yield
           state                                                                                  effsg      function
      13-      1
       1          -6.2228E+07 -6.1397E+07 -3.1339E+08  6.4443E+06 -7.2665E+06 -6.9316E+06    2.5243E+08    2.5444E-02
      14-      1
       1          -5.2597E+07 -5.4676E+07 -2.8305E+08  7.5284E+06 -2.1343E+07 -3.2856E+07    2.3960E+08    1.7608E-02
      15-      1
       1           4.6488E+06 -2.6797E+06 -2.3401E+08  1.6200E+06 -4.4439E+07 -6.0297E+07    2.6852E+08    1.1079E-02
      21-      1
       1          -4.9975E+07 -5.4749E+07 -3.1612E+08  4.2737E+06 -8.8521E+06 -6.8088E+06    2.6461E+08    2.3502E-02
      22-      1
       1          -4.8950E+07 -5.1251E+07 -2.8378E+08  6.2062E+06 -3.3134E+07 -1.7665E+07    2.4281E+08    1.7019E-02
      23-      1
       1          -9.1773E+06 -1.6681E+07 -2.4487E+08  3.7597E+06 -6.2289E+07 -4.2193E+07    2.6620E+08    1.1077E-02
      53-      1
       1          -4.7341E+07 -5.5456E+07 -3.1115E+08  5.5397E+06 -2.3497E+06 -4.9977E+06    2.6019E+08    2.2845E-02
      54-      1
       1           6.7646E+06 -3.2063E+06 -2.4993E+08  6.7178E+06 -2.9585E+06 -3.1952E+07    2.5818E+08    1.9859E-02
      55-      1
       1           1.1464E+07 -1.7021E+06 -1.8132E+08  3.6154E+05 -1.7729E+06 -5.5274E+07    2.0971E+08    1.3607E-02
      93-      1
       1          -1.0332E+07 -1.0783E+07 -2.9164E+08 -1.1675E+05 -1.1522E+07 -2.1871E+06    2.8182E+08    2.0156E-02
      94-      1
       1          -1.7598E+07 -1.1919E+07 -2.8165E+08  3.5525E+06 -4.0555E+07 -6.9179E+06    2.7636E+08    1.7284E-02
      95-      1
       1          -3.8223E+07 -3.2488E+07 -2.6461E+08  3.5767E+06 -7.0148E+07 -1.3617E+07    2.6065E+08    1.1561E-02



 e l e m e n t   s t r a i n   c a l c u l a t i o n s   f o r   t i m e  s t e p      267   ( at time  4.29920E+00 )

 element  strain       eps-xx      eps-yy      eps-zz      eps-xy      eps-yz      eps-zx                            yield
 num/ipt   state
      13-      1
      1            1.1840E-02  1.2199E-02 -2.6205E-02  9.9986E-04 -1.4646E-03 -1.4009E-03
      14-      1
      1            1.0995E-02  1.1000E-02 -2.2978E-02  9.2156E-04 -4.1858E-03 -5.0753E-03
      15-      1
      1            7.4422E-03  6.6935E-03 -1.5257E-02  9.4102E-05 -4.2462E-03 -6.1425E-03
      21-      1
      1            1.3050E-02  1.1761E-02 -2.6904E-02  8.1174E-04 -1.7547E-03 -1.1768E-03
      22-      1
      1            1.1291E-02  1.0639E-02 -2.3161E-02  1.0245E-03 -5.3075E-03 -3.5310E-03
      23-      1
      1            7.1992E-03  6.6489E-03 -1.5153E-02  4.6046E-04 -5.9553E-03 -4.2713E-03
      53-      1
      1            1.2142E-02  1.0982E-02 -2.5166E-02  1.7396E-03 -3.3418E-04 -1.2007E-03
      54-      1
      1            1.0810E-02  9.4669E-03 -2.1510E-02  1.1409E-03 -6.2065E-04 -4.4442E-03
      55-      1
      1            7.6509E-03  6.5006E-03 -1.4435E-02  2.7471E-04 -1.0956E-03 -6.4338E-03
      93-      1
      1            1.2649E-02  1.3115E-02 -2.7348E-02  2.4075E-04 -1.7437E-03 -3.5295E-04
      94-      1
      1            1.0270E-02  1.1251E-02 -2.3065E-02  5.0941E-04 -5.1857E-03 -1.0583E-03
      95-      1
      1            6.5328E-03  7.1284E-03 -1.5277E-02  3.5467E-04 -6.7115E-03 -1.4923E-03



 e l e m e n t   s t r e s s   c a l c u l a t i o n s   f o r   t i m e  s t e p      290   ( at time 5.55813E+00 )

 element  materl
     ipt  stress       sig-xx      sig-yy      sig-zz      sig-xy      sig-yz      sig-zx                       yield
           state                                                                                  effsg      function
      13-      1
       1          -6.4078E+07 -6.3836E+07 -3.2967E+08  8.0277E+06 -7.0264E+06 -5.6533E+06    2.6653E+08    3.4688E-02
      14-      1
       1          -2.1075E+08 -2.1492E+08 -3.5176E+08  1.8173E+06 -6.2602E+06 -1.0011E+07    1.4050E+08    2.1776E-02
      15-      1
       1          -4.1397E+07 -4.2456E+07 -2.5306E+08 -8.7158E+05 -4.1932E+07 -4.9817E+07    2.3938E+08    1.6428E-02
      21-      1
       1          -6.4661E+07 -6.7026E+07 -3.3834E+08  4.6231E+06 -8.5771E+06 -5.8084E+06    2.7322E+08    3.2462E-02
      22-      1
       1          -1.1738E+08 -1.1447E+08 -3.2283E+08  3.1744E+06 -2.6902E+07 -1.2571E+07    2.1329E+08    2.2548E-02
      23-      1
       1          -1.5757E+07 -1.8988E+07 -2.5865E+08  2.7169E+06 -6.1474E+07 -4.0021E+07    2.7274E+08    1.6759E-02
      53-      1
       1          -6.7178E+07 -7.6604E+07 -3.4275E+08  7.2460E+06 -1.4359E+06 -5.4221E+06    2.7144E+08    3.1335E-02
      54-      1
       1           4.1262E+06 -8.7986E+06 -2.6327E+08  8.4411E+06 -3.1512E+06 -3.2473E+07    2.6761E+08    2.7821E-02
      55-      1
       1           4.4323E+06 -1.0285E+07 -2.0094E+08 -5.5048E+05 -9.3456E+05 -5.5518E+07    2.2050E+08    1.9242E-02
      93-      1
       1          -2.3186E+07 -2.0687E+07 -3.0675E+08  5.5591E+03 -1.0081E+07 -2.0577E+06    2.8538E+08    2.8550E-02
      94-      1
       1          -2.5012E+07 -1.8272E+07 -2.9695E+08  3.4386E+06 -3.8651E+07 -6.3807E+06    2.8367E+08    2.4886E-02
      95-      1
       1          -3.9760E+07 -3.5834E+07 -2.7776E+08  2.7290E+06 -7.0282E+07 -1.1983E+07    2.6993E+08    1.7367E-02



 e l e m e n t   s t r a i n   c a l c u l a t i o n s   f o r   t i m e  s t e p      290   ( at time  5.55813E+00 )

 element  strain       eps-xx      eps-yy      eps-zz      eps-xy      eps-yz      eps-zx                            yield
 num/ipt   state
      13-      1
      1            1.5807E-02  1.6198E-02 -3.4291E-02  1.4897E-03 -1.6947E-03 -1.5502E-03
      14-      1
      1            1.4877E-02  1.5057E-02 -3.0218E-02  1.3957E-03 -5.5150E-03 -6.7395E-03
      15-      1
      1            1.0089E-02  9.2549E-03 -2.0306E-02  5.2680E-05 -5.6321E-03 -8.1259E-03
      21-      1
      1            1.7106E-02  1.5679E-02 -3.5136E-02  1.1482E-03 -2.0175E-03 -1.3888E-03
      22-      1
      1            1.4944E-02  1.4316E-02 -3.0410E-02  1.3516E-03 -6.7788E-03 -4.6096E-03
      23-      1
      1            9.7076E-03  9.0525E-03 -2.0183E-02  5.0291E-04 -7.7353E-03 -5.4656E-03
      53-      1
      1            1.6166E-02  1.4326E-02 -3.2898E-02  2.1385E-03 -3.6595E-04 -1.3806E-03
      54-      1
      1            1.4510E-02  1.2683E-02 -2.8547E-02  1.4949E-03 -7.4719E-04 -5.6341E-03
      55-      1
      1            1.0383E-02  8.9705E-03 -1.9497E-02  3.7678E-04 -1.5645E-03 -8.4769E-03
      93-      1
      1            1.6581E-02  1.7317E-02 -3.5686E-02  2.7965E-04 -2.1405E-03 -4.2959E-04
      94-      1
      1            1.3697E-02  1.4963E-02 -3.0362E-02  6.3175E-04 -6.6327E-03 -1.2922E-03
      95-      1
      1            9.0132E-03  9.6312E-03 -2.0357E-02  4.1953E-04 -8.8077E-03 -1.8494E-03



 e l e m e n t   s t r e s s   c a l c u l a t i o n s   f o r   t i m e  s t e p      298   ( at time 6.55576E+00 )

 element  materl
     ipt  stress       sig-xx      sig-yy      sig-zz      sig-xy      sig-yz      sig-zx                       yield
           state                                                                                  effsg      function
      13-      1
       1          -6.3496E+07 -5.7208E+07 -3.3243E+08  3.2380E+06 -4.1036E+06 -4.8122E+06    2.7241E+08    4.3774E-02
      14-      1
       1          -2.2561E+08 -2.3289E+08 -3.7050E+08 -3.2571E+05 -4.1626E+06 -1.0710E+07    1.4278E+08    2.5699E-02
      15-      1
       1          -1.0286E+08 -9.9574E+07 -2.7584E+08 -2.3035E+06 -4.3073E+07 -4.3132E+07    2.0412E+08    2.0906E-02
      21-      1
       1          -7.2139E+07 -7.6995E+07 -3.4818E+08 -1.0416E+06 -6.7327E+06 -4.7837E+06    2.7403E+08    4.1276E-02
      22-      1
       1          -1.3063E+08 -1.3342E+08 -3.4321E+08  1.9909E+06 -2.5281E+07 -1.3721E+07    2.1702E+08    2.8237E-02
      23-      1
       1          -2.1223E+07 -2.6861E+07 -2.6182E+08  3.8973E+06 -6.2957E+07 -4.0642E+07    2.7102E+08    2.2727E-02
      53-      1
       1          -6.5436E+07 -6.0849E+07 -3.4449E+08  3.2400E+06  1.4500E+06 -3.7128E+06    2.8152E+08    4.0412E-02
      54-      1
       1          -4.0069E+07 -4.4804E+07 -2.7790E+08  9.1743E+06  5.1523E+06 -2.7116E+07    2.4083E+08    3.5190E-02
      55-      1
       1          -5.4147E+07 -6.2902E+07 -2.2530E+08 -1.1810E+06  4.7641E+06 -5.6701E+07    1.9388E+08    2.3439E-02
      93-      1
       1          -2.5811E+07 -3.4654E+07 -3.1640E+08 -2.9313E+06 -8.8142E+06 -1.5117E+06    2.8674E+08    3.7264E-02
      94-      1
       1          -2.5958E+07 -2.2527E+07 -3.0585E+08  2.4086E+06 -3.9419E+07 -5.9868E+06    2.9000E+08    3.2271E-02
      95-      1
       1          -4.2473E+07 -3.4028E+07 -2.8080E+08  3.3413E+06 -7.1364E+07 -1.1485E+07    2.7312E+08    2.2924E-02



 e l e m e n t   s t r a i n   c a l c u l a t i o n s   f o r   t i m e  s t e p      298   ( at time  6.55576E+00 )

 element  strain       eps-xx      eps-yy      eps-zz      eps-xy      eps-yz      eps-zx                            yield
 num/ipt   state
      13-      1
      1            1.9789E-02  2.0578E-02 -4.2686E-02  1.5553E-03 -1.6876E-03 -1.6904E-03
      14-      1
      1            1.9108E-02  1.9180E-02 -3.7828E-02  1.6811E-03 -6.4619E-03 -8.0630E-03
      15-      1
      1            1.2883E-02  1.1933E-02 -2.5307E-02  1.0557E-04 -6.8086E-03 -1.0250E-02
      21-      1
      1            2.1254E-02  1.9562E-02 -4.3345E-02  9.9549E-04 -2.1614E-03 -1.5229E-03
      22-      1
      1            1.8901E-02  1.8043E-02 -3.7956E-02  1.5230E-03 -8.0706E-03 -5.5339E-03
      23-      1
      1            1.2289E-02  1.1454E-02 -2.5255E-02  7.0017E-04 -9.5937E-03 -6.6665E-03
      53-      1
      1            2.0323E-02  1.8948E-02 -4.1660E-02  2.2152E-03 -1.7998E-04 -1.4778E-03
      54-      1
      1            1.8484E-02  1.6740E-02 -3.6407E-02  2.0224E-03 -8.9785E-04 -6.7611E-03
      55-      1
      1            1.3022E-02  1.1357E-02 -2.4064E-02  7.4533E-04 -2.0361E-03 -1.0684E-02
      93-      1
      1            2.1080E-02  2.1204E-02 -4.4250E-02  9.3819E-05 -2.4461E-03 -4.5446E-04
      94-      1
      1            1.7250E-02  1.8629E-02 -3.7681E-02  7.1516E-04 -7.9542E-03 -1.4563E-03
      95-      1
      1            1.1224E-02  1.2263E-02 -2.5230E-02  5.4368E-04 -1.0743E-02 -2.1515E-03



 e l e m e n t   s t r e s s   c a l c u l a t i o n s   f o r   t i m e  s t e p      401   ( at time 7.55339E+00 )

 element  materl
     ipt  stress       sig-xx      sig-yy      sig-zz      sig-xy      sig-yz      sig-zx                       yield
           state                                                                                  effsg      function
      13-      1
       1          -8.2484E+07 -7.5685E+07 -3.4281E+08 -1.0084E+05 -9.8904E+06 -5.6377E+06    2.6453E+08    5.2794E-02
      14-      1
       1          -2.3272E+08 -2.3559E+08 -3.7276E+08 -9.9090E+05 -1.2731E+07 -1.7537E+07    1.4363E+08    2.9205E-02
      15-      1
       1          -9.9436E+07 -9.7392E+07 -2.5693E+08 -8.5059E+05 -4.7858E+07 -4.6794E+07    1.9640E+08    2.5819E-02
      21-      1
       1          -7.4977E+07 -8.4282E+07 -3.3670E+08 -4.6253E+05 -1.2122E+07 -4.7214E+06    2.5819E+08    5.1021E-02
      22-      1
       1          -1.1428E+08 -1.1503E+08 -3.2166E+08  1.7220E+06 -3.7347E+07 -1.6391E+07    2.1875E+08    3.3809E-02
      23-      1
       1          -2.8981E+07 -2.9285E+07 -2.4865E+08  5.4251E+06 -6.2192E+07 -4.0746E+07    2.5468E+08    2.8894E-02
      53-      1
       1          -3.3453E+07 -3.9011E+07 -3.1670E+08  6.3767E+06 -3.3011E+06 -7.2700E+06    2.8107E+08    4.8974E-02
      54-      1
       1          -5.0149E+07 -5.0534E+07 -2.8007E+08  3.2724E+06  7.2857E+06 -2.7620E+07    2.3507E+08    4.1539E-02
      55-      1
       1          -4.9859E+07 -5.9940E+07 -2.1833E+08 -6.4484E+06  2.4046E+06 -5.9435E+07    1.9372E+08    2.8135E-02
      93-      1
       1          -5.1222E+07 -5.5709E+07 -3.1526E+08 -2.3190E+06 -1.1520E+07 -2.2010E+06    2.6265E+08    4.7393E-02
      94-      1
       1          -1.6471E+07 -1.2209E+07 -2.9552E+08  1.8607E+06 -4.4536E+07 -7.1478E+06    2.9187E+08    3.9416E-02
      95-      1
       1          -4.9745E+07 -3.9001E+07 -2.7503E+08  3.5070E+06 -7.2508E+07 -1.3273E+07    2.6387E+08    2.8587E-02



 e l e m e n t   s t r a i n   c a l c u l a t i o n s   f o r   t i m e  s t e p      401   ( at time  7.55339E+00 )

 element  strain       eps-xx      eps-yy      eps-zz      eps-xy      eps-yz      eps-zx                            yield
 num/ipt   state
      13-      1
      1            2.3424E-02  2.4516E-02 -5.0530E-02  1.4855E-03 -2.1858E-03 -1.9137E-03
      14-      1
      1            2.2496E-02  2.2868E-02 -4.4580E-02  1.5592E-03 -7.0881E-03 -9.1601E-03
      15-      1
      1            1.5403E-02  1.4411E-02 -3.0152E-02  1.8444E-04 -7.9314E-03 -1.2267E-02
      21-      1
      1            2.5566E-02  2.3307E-02 -5.1445E-02  9.8765E-04 -2.7582E-03 -1.6883E-03
      22-      1
      1            2.2622E-02  2.1852E-02 -4.4869E-02  1.6118E-03 -9.6968E-03 -6.3725E-03
      23-      1
      1            1.4441E-02  1.3742E-02 -2.9695E-02  9.6745E-04 -1.1577E-02 -7.8860E-03
      53-      1
      1            2.4665E-02  2.2809E-02 -4.9519E-02  2.5319E-03 -3.6904E-04 -1.8151E-03
      54-      1
      1            2.1567E-02  2.0049E-02 -4.2866E-02  2.0743E-03 -9.1829E-04 -7.6337E-03
      55-      1
      1            1.5713E-02  1.3782E-02 -2.8965E-02  5.7877E-04 -2.3164E-03 -1.2812E-02
      93-      1
      1            2.5339E-02  2.5286E-02 -5.2859E-02 -1.0836E-05 -3.0544E-03 -5.4988E-04
      94-      1
      1            2.0610E-02  2.2211E-02 -4.4511E-02  7.8238E-04 -9.4390E-03 -1.6828E-03
      95-      1
      1            1.3203E-02  1.4693E-02 -2.9681E-02  6.7504E-04 -1.2762E-02 -2.5373E-03



 e l e m e n t   s t r e s s   c a l c u l a t i o n s   f o r   t i m e  s t e p      418   ( at time 8.05339E+00 )

 element  materl
     ipt  stress       sig-xx      sig-yy      sig-zz      sig-xy      sig-yz      sig-zx                       yield
           state                                                                                  effsg      function
      13-      1
       1          -8.6179E+07 -7.7758E+07 -3.4622E+08 -8.1712E+06 -1.3693E+07 -6.3916E+06    2.6602E+08    5.6921E-02
      14-      1
       1          -2.3337E+08 -2.4250E+08 -3.7807E+08 -1.2816E+06 -7.5041E+06 -1.5944E+07    1.4366E+08    3.1079E-02
      15-      1
       1          -1.0434E+08 -1.0214E+08 -2.5051E+08  3.9493E+05 -4.8291E+07 -4.8898E+07    1.8937E+08    2.8617E-02
      21-      1
       1          -7.8083E+07 -9.2393E+07 -3.4289E+08 -4.6056E+06 -1.1319E+07 -3.7420E+06    2.5889E+08    5.5222E-02
      22-      1
       1          -1.1255E+08 -1.1185E+08 -3.2374E+08  1.1559E+06 -3.2987E+07 -1.6475E+07    2.2098E+08    3.6439E-02
      23-      1
       1          -3.9882E+07 -3.5276E+07 -2.4779E+08  3.2051E+06 -5.9875E+07 -4.1305E+07    2.4517E+08    3.2301E-02
      53-      1
       1          -3.4277E+07 -2.0081E+07 -3.0803E+08 -2.5499E+06 -5.9660E+06 -8.9541E+06    2.8177E+08    5.3009E-02
      54-      1
       1          -5.2529E+07 -4.8348E+07 -2.8293E+08  7.3878E+06  1.2032E+07 -1.7868E+07    2.3584E+08    4.4910E-02
      55-      1
       1          -4.7763E+07 -5.1869E+07 -2.1102E+08 -5.0858E+06  5.3103E+05 -6.0200E+07    1.9222E+08    3.0729E-02
      93-      1
       1          -5.9449E+07 -6.7725E+07 -3.2306E+08 -2.9922E+06 -9.1381E+06 -2.1093E+06    2.6013E+08    5.1539E-02
      94-      1
       1          -1.9029E+07 -1.5139E+07 -3.0452E+08 -6.6211E+05 -3.8141E+07 -7.2318E+06    2.9521E+08    4.2783E-02
      95-      1
       1          -5.4043E+07 -4.4604E+07 -2.7396E+08  1.3270E+06 -7.3884E+07 -1.4546E+07    2.5989E+08    3.1751E-02



 e l e m e n t   s t r a i n   c a l c u l a t i o n s   f o r   t i m e  s t e p      418   ( at time  8.05339E+00 )

 element  strain       eps-xx      eps-yy      eps-zz      eps-xy      eps-yz      eps-zx                            yield
 num/ipt   state
      13-      1
      1            2.5102E-02  2.6399E-02 -5.4145E-02  1.1716E-03 -2.4355E-03 -2.0215E-03
      14-      1
      1            2.4423E-02  2.4815E-02 -4.8177E-02  1.4889E-03 -7.3543E-03 -9.5749E-03
      15-      1
      1            1.6916E-02  1.5617E-02 -3.2688E-02  3.1581E-04 -8.5445E-03 -1.3623E-02
      21-      1
      1            2.7523E-02  2.4862E-02 -5.5048E-02  8.1775E-04 -2.9151E-03 -1.7178E-03
      22-      1
      1            2.4401E-02  2.3611E-02 -4.8327E-02  1.6554E-03 -1.0368E-02 -6.7343E-03
      23-      1
      1            1.5487E-02  1.4994E-02 -3.2073E-02  1.0202E-03 -1.2553E-02 -8.5705E-03
      53-      1
      1            2.6249E-02  2.5052E-02 -5.3229E-02  2.3016E-03 -4.9710E-04 -1.9485E-03
      54-      1
      1            2.3191E-02  2.1928E-02 -4.6403E-02  2.3152E-03 -7.5864E-04 -7.6820E-03
      55-      1
      1            1.7204E-02  1.5314E-02 -3.1565E-02  7.3895E-04 -2.6866E-03 -1.4092E-02
      93-      1
      1            2.7185E-02  2.6882E-02 -5.6444E-02 -8.5522E-05 -3.1280E-03 -5.8449E-04
      94-      1
      1            2.2226E-02  2.3911E-02 -4.7903E-02  7.2888E-04 -9.8697E-03 -1.7857E-03
      95-      1
      1            1.4296E-02  1.5976E-02 -3.2101E-02  6.6893E-04 -1.3906E-02 -2.7843E-03



 e l e m e n t   s t r e s s   c a l c u l a t i o n s   f o r   t i m e  s t e p      441   ( at time 9.05339E+00 )

 element  materl
     ipt  stress       sig-xx      sig-yy      sig-zz      sig-xy      sig-yz      sig-zx                       yield
           state                                                                                  effsg      function
      13-      1
       1          -8.8419E+07 -7.7814E+07 -3.6683E+08 -1.9727E+07 -1.9179E+07 -7.1833E+06    2.8810E+08    6.6219E-02
      14-      1
       1          -2.5552E+08 -2.6382E+08 -4.0237E+08 -6.6543E+05 -7.2245E+06 -1.7577E+07    1.4662E+08    3.5022E-02
      15-      1
       1          -9.0843E+07 -9.7675E+07 -2.6337E+08  3.3626E+06 -4.4715E+07 -4.9087E+07    2.0468E+08    3.3168E-02
      21-      1
       1          -4.7941E+07 -7.0576E+07 -3.3223E+08 -1.5010E+07 -1.1985E+07 -5.8561E+06    2.7587E+08    6.4627E-02
      22-      1
       1          -2.1071E+08 -2.0816E+08 -3.4810E+08  1.1307E+05 -2.5755E+07 -1.7391E+07    1.4876E+08    4.1554E-02
      23-      1
       1          -1.5751E+07 -1.2439E+07 -2.4969E+08  4.3378E+06 -6.2798E+07 -4.3845E+07    2.7049E+08    3.8221E-02
      53-      1
       1          -6.3958E+07 -4.6980E+07 -3.1061E+08 -9.6436E+06 -4.9275E+06 -1.7873E+07    2.5812E+08    6.1266E-02
      54-      1
       1          -7.9982E+07 -7.5564E+07 -2.8781E+08  4.3598E+06  6.3763E+06 -2.2140E+07    2.1396E+08    5.1231E-02
      55-      1
       1          -5.2592E+07 -6.7443E+07 -2.0880E+08 -2.6908E+06 -2.6774E+06 -4.2741E+07    1.6681E+08    3.4992E-02
      93-      1
       1          -3.8650E+07 -6.2871E+07 -3.2821E+08 -5.3918E+06 -8.8679E+06 -4.2740E+06    2.7892E+08    6.0575E-02
      94-      1
       1          -1.8762E+07 -1.1179E+07 -3.0384E+08  3.1705E+06 -4.2145E+07 -8.6399E+06    2.9845E+08    5.0978E-02
      95-      1
       1          -4.0049E+07 -2.6967E+07 -2.7721E+08  1.5638E+05 -7.4998E+07 -1.6147E+07    2.7780E+08    3.8187E-02



 e l e m e n t   s t r a i n   c a l c u l a t i o n s   f o r   t i m e  s t e p      441   ( at time  9.05339E+00 )

 element  strain       eps-xx      eps-yy      eps-zz      eps-xy      eps-yz      eps-zx                            yield
 num/ipt   state
      13-      1
      1            2.9132E-02  3.0864E-02 -6.2775E-02  5.6848E-04 -3.0540E-03 -2.2625E-03
      14-      1
      1            2.8308E-02  2.8847E-02 -5.5904E-02  1.4181E-03 -8.1597E-03 -1.0554E-02
      15-      1
      1            2.0110E-02  1.8061E-02 -3.7951E-02  5.8265E-04 -9.5515E-03 -1.5572E-02
      21-      1
      1            3.2251E-02  2.8701E-02 -6.3345E-02  3.5495E-04 -3.2619E-03 -1.9369E-03
      22-      1
      1            2.8780E-02  2.8045E-02 -5.6586E-02  1.6013E-03 -1.1908E-02 -7.7046E-03
      23-      1
      1            1.8015E-02  1.7634E-02 -3.7030E-02  1.2137E-03 -1.4194E-02 -9.6596E-03
      53-      1
      1            3.0892E-02  3.0047E-02 -6.2352E-02  1.9587E-03 -5.1839E-04 -2.3998E-03
      54-      1
      1            2.6992E-02  2.5759E-02 -5.3565E-02  2.3864E-03 -4.7994E-04 -8.4404E-03
      55-      1
      1            2.0781E-02  1.8206E-02 -3.7031E-02  7.9149E-04 -2.8581E-03 -1.6177E-02
      93-      1
      1            3.1765E-02  3.0639E-02 -6.4709E-02 -2.4201E-04 -3.4118E-03 -7.0288E-04
      94-      1
      1            2.6027E-02  2.8145E-02 -5.5932E-02  9.2272E-04 -1.1209E-02 -2.0756E-03
      95-      1
      1            1.6802E-02  1.8995E-02 -3.7497E-02  7.1866E-04 -1.5978E-02 -3.2560E-03



 e l e m e n t   s t r e s s   c a l c u l a t i o n s   f o r   t i m e  s t e p      475   ( at time 1.00534E+01 )

 element  materl
     ipt  stress       sig-xx      sig-yy      sig-zz      sig-xy      sig-yz      sig-zx                       yield
           state                                                                                  effsg      function
      13-      1
       1          -9.6309E+07 -9.3880E+07 -3.9394E+08 -1.6995E+07 -1.4497E+07 -6.3787E+06    3.0155E+08    7.4447E-02
      14-      1
       1          -2.5938E+08 -2.5878E+08 -4.0260E+08 -2.4570E+06 -6.3005E+06 -1.9942E+07    1.4808E+08    3.9060E-02
      15-      1
       1          -6.4568E+07 -6.9742E+07 -2.5143E+08  1.1508E+06 -3.6773E+07 -4.7825E+07    2.1189E+08    3.9366E-02
      21-      1
       1          -6.9532E+07 -7.0850E+07 -3.4317E+08 -1.8162E+07 -1.2286E+07  4.8177E+06    2.7574E+08    7.4689E-02
      22-      1
       1          -2.1026E+08 -2.0989E+08 -3.4948E+08 -2.1564E+06 -2.4122E+07 -2.0988E+07    1.5005E+08    4.5942E-02
      23-      1
       1           1.1134E+07  9.7573E+06 -2.3151E+08  1.9839E+05 -6.1152E+07 -3.8820E+07    2.7255E+08    4.6301E-02
      53-      1
       1          -6.6175E+07 -4.9187E+07 -2.8228E+08 -1.6136E+06  3.7825E+06 -1.3357E+07    2.2638E+08    6.8712E-02
      54-      1
       1          -5.9804E+07 -5.4288E+07 -2.6701E+08  4.2045E+06  4.5702E+06 -3.1685E+07    2.1733E+08    5.7080E-02
      55-      1
       1          -4.0002E+07 -5.7934E+07 -1.7804E+08 -9.0148E+06 -2.2906E+06 -2.1067E+07    1.3599E+08    3.9546E-02
      93-      1
       1          -1.7732E+07 -4.8963E+07 -2.9091E+08 -4.4552E+06 -5.5886E+06  5.5676E+06    2.5945E+08    7.3894E-02
      94-      1
       1          -1.2260E+08 -1.2099E+08 -2.9347E+08  2.7724E+06 -4.2582E+07 -8.5696E+06    1.8750E+08    5.9358E-02
      95-      1
       1          -1.2642E+07 -8.0315E+06 -2.4888E+08  1.8059E+06 -7.1095E+07 -1.1188E+07    2.6920E+08    4.5559E-02



 e l e m e n t   s t r a i n   c a l c u l a t i o n s   f o r   t i m e  s t e p      475   ( at time  1.00534E+01 )

 element  strain       eps-xx      eps-yy      eps-zz      eps-xy      eps-yz      eps-zx                            yield
 num/ipt   state
      13-      1
      1            3.2969E-02  3.4673E-02 -7.0679E-02  3.7821E-05 -3.2364E-03 -2.3437E-03
      14-      1
      1            3.1921E-02  3.2822E-02 -6.3599E-02  1.2865E-03 -8.9737E-03 -1.1026E-02
      15-      1
      1            2.3406E-02  2.0941E-02 -4.3909E-02  7.6069E-04 -1.0953E-02 -1.7788E-02
      21-      1
      1            3.6434E-02  3.3051E-02 -7.2060E-02 -4.6375E-04 -3.6113E-03 -1.6041E-03
      22-      1
      1            3.2723E-02  3.2769E-02 -6.4748E-02  1.2927E-03 -1.3792E-02 -8.1281E-03
      23-      1
      1            2.0930E-02  2.0518E-02 -4.2522E-02  1.4307E-03 -1.6765E-02 -1.0977E-02
      53-      1
      1            3.5171E-02  3.5109E-02 -7.0990E-02  2.0261E-03 -2.7639E-04 -2.5685E-03
      54-      1
      1            3.0970E-02  2.9495E-02 -6.0260E-02  2.3287E-03 -2.5069E-04 -9.4503E-03
      55-      1
      1            2.4248E-02  2.1244E-02 -4.2699E-02  2.6185E-04 -2.6576E-03 -1.8254E-02
      93-      1
      1            3.7674E-02  3.4985E-02 -7.4663E-02 -5.5548E-04 -3.4422E-03 -3.8249E-04
      94-      1
      1            3.0991E-02  3.3067E-02 -6.4551E-02  9.5956E-04 -1.3713E-02 -2.3138E-03
      95-      1
      1            1.9156E-02  2.1712E-02 -4.2223E-02  9.7672E-04 -1.8596E-02 -3.6423E-03



 e l e m e n t   s t r e s s   c a l c u l a t i o n s   f o r   t i m e  s t e p      578   ( at time 1.12011E+01 )

 element  materl
     ipt  stress       sig-xx      sig-yy      sig-zz      sig-xy      sig-yz      sig-zx                       yield
           state                                                                                  effsg      function
      13-      1
       1          -1.2656E+08 -1.1524E+08 -4.0807E+08 -1.9015E+06 -1.5160E+07 -5.4105E+06    2.8871E+08    8.4801E-02
      14-      1
       1          -2.6733E+08 -2.7342E+08 -4.1431E+08 -5.4922E+06  1.2181E+07 -8.0661E+06    1.4654E+08    4.3509E-02
      15-      1
       1          -4.5841E+07 -4.0147E+07 -2.1028E+08 -4.3123E+05 -3.8703E+07 -5.0725E+07    2.0055E+08    4.5913E-02
      21-      1
       1          -7.7737E+07 -8.4221E+07 -3.5726E+08 -1.0356E+07 -1.5151E+07  2.1685E+06    2.7818E+08    8.4048E-02
      22-      1
       1          -2.3232E+08 -2.2475E+08 -3.7962E+08 -2.6854E+06 -1.0972E+06 -1.1651E+07    1.5265E+08    5.0383E-02
      23-      1
       1          -5.8844E+06  3.3066E+06 -2.1154E+08  1.3552E+05 -5.4229E+07 -4.2705E+07    2.4200E+08    5.5374E-02
      53-      1
       1          -8.1723E+07 -7.8845E+07 -2.2683E+08 -3.1704E+06  1.1670E+07 -2.5870E+07    1.5469E+08    7.8838E-02
      54-      1
       1          -2.0395E+08 -1.9789E+08 -3.2784E+08  2.2980E+06  1.2407E+07 -4.7038E+06    1.2915E+08    6.0979E-02
      55-      1
       1          -2.4215E+07 -4.6337E+07 -1.4962E+08 -5.1378E+06 -5.3953E+06 -2.4946E+07    1.2440E+08    4.2736E-02
      93-      1
       1          -1.4066E+07 -3.3699E+07 -2.9314E+08 -3.8111E+06 -1.1709E+07  2.3592E+06    2.7067E+08    8.3911E-02
      94-      1
       1          -1.8209E+08 -1.7633E+08 -3.3002E+08 -1.6279E+06 -6.0938E+06 -3.2556E+06    1.5140E+08    6.3893E-02
      95-      1
       1          -6.2258E+07 -5.2060E+07 -2.2801E+08  1.7053E+05 -7.1039E+07 -1.4054E+07    2.1213E+08    5.4039E-02



 e l e m e n t   s t r a i n   c a l c u l a t i o n s   f o r   t i m e  s t e p      578   ( at time  1.12011E+01 )

 element  strain       eps-xx      eps-yy      eps-zz      eps-xy      eps-yz      eps-zx                            yield
 num/ipt   state
      13-      1
      1            3.7419E-02  3.9697E-02 -8.0483E-02  1.1357E-04 -3.3535E-03 -2.4925E-03
      14-      1
      1            3.6242E-02  3.7451E-02 -7.1674E-02  1.1203E-03 -9.7742E-03 -1.1722E-02
      15-      1
      1            2.7391E-02  2.4888E-02 -5.0588E-02  9.7352E-04 -1.1377E-02 -2.0757E-02
      21-      1
      1            4.0813E-02  3.7012E-02 -8.0586E-02 -7.7555E-04 -4.1030E-03 -1.4225E-03
      22-      1
      1            3.6943E-02  3.7642E-02 -7.3425E-02  1.2135E-03 -1.6156E-02 -8.5382E-03
      23-      1
      1            2.3963E-02  2.4123E-02 -4.9185E-02  1.6624E-03 -1.9036E-02 -1.2627E-02
      53-      1
      1            4.3385E-02  4.4265E-02 -8.5587E-02  2.4841E-03  2.2634E-04 -3.3701E-03
      54-      1
      1            3.4440E-02  3.3841E-02 -6.6005E-02  2.4699E-03  9.5233E-05 -1.1069E-02
      55-      1
      1            2.7270E-02  2.3393E-02 -4.7021E-02  6.5257E-04 -2.3372E-03 -2.0487E-02
      93-      1
      1            4.2620E-02  3.9076E-02 -8.3641E-02 -6.5380E-04 -3.7328E-03 -1.9815E-04
      94-      1
      1            3.5540E-02  3.8125E-02 -7.3352E-02  1.0510E-03 -1.6006E-02 -2.2320E-03
      95-      1
      1            2.1975E-02  2.5331E-02 -4.8602E-02  1.1713E-03 -2.1278E-02 -4.0750E-03



 e l e m e n t   s t r e s s   c a l c u l a t i o n s   f o r   t i m e  s t e p      660   ( at time 1.20620E+01 )

 element  materl
     ipt  stress       sig-xx      sig-yy      sig-zz      sig-xy      sig-yz      sig-zx                       yield
           state                                                                                  effsg      function
      13-      1
       1          -1.2819E+08 -1.1910E+08 -4.0134E+08 -1.4252E+06 -1.3417E+07 -9.3274E+06    2.7926E+08    9.3762E-02
      14-      1
       1          -2.7763E+08 -2.8336E+08 -4.2648E+08 -3.4792E+06  7.8533E+06 -1.4300E+07    1.4890E+08    4.7220E-02
      15-      1
       1          -1.1353E+07 -8.3787E+06 -1.6906E+08 -3.6472E+06 -4.5222E+07 -5.0288E+07    1.9776E+08    5.1798E-02
      21-      1
       1          -8.8146E+07 -8.7296E+07 -3.5488E+08 -7.4669E+06 -1.4901E+07 -1.3564E+06    2.6872E+08    9.2714E-02
      22-      1
       1          -2.3664E+08 -2.2842E+08 -3.8509E+08 -9.4369E+04 -1.4917E+05 -1.1871E+07    1.5410E+08    5.4164E-02
      23-      1
       1           2.3412E+06  9.5464E+06 -1.9602E+08  7.1512E+05 -4.9646E+07 -3.9495E+07    2.3000E+08    6.4017E-02
      53-      1
       1          -4.6245E+07 -5.5792E+07 -1.9631E+08  1.5225E+06  1.5056E+07 -2.8600E+07    1.5595E+08    8.4951E-02
      54-      1
       1          -1.9832E+08 -1.8848E+08 -3.2670E+08 -1.0465E+06  1.4057E+07 -7.9822E+06    1.3648E+08    6.4652E-02
      55-      1
       1          -1.5050E+07 -4.4608E+07 -1.1450E+08 -1.2410E+07  7.8451E+06 -2.4788E+07    1.0156E+08    4.6298E-02
      93-      1
       1          -2.4850E+07 -3.6205E+07 -2.8981E+08 -4.5861E+06 -1.2991E+07  4.8534E+05    2.6057E+08    9.3508E-02
      94-      1
       1          -1.9273E+08 -1.8265E+08 -3.4087E+08  7.2904E+05  3.3638E+06 -2.1227E+06    1.5359E+08    6.7820E-02
      95-      1
       1          -5.9475E+07 -5.0324E+07 -2.0820E+08  6.2835E+05 -6.5378E+07 -1.2330E+07    1.9195E+08    6.2201E-02



 e l e m e n t   s t r a i n   c a l c u l a t i o n s   f o r   t i m e  s t e p      660   ( at time  1.20620E+01 )

 element  strain       eps-xx      eps-yy      eps-zz      eps-xy      eps-yz      eps-zx                            yield
 num/ipt   state
      13-      1
      1            4.1169E-02  4.3601E-02 -8.8137E-02  1.4411E-04 -3.6451E-03 -2.8894E-03
      14-      1
      1            3.9589E-02  4.1228E-02 -7.8302E-02  9.0551E-04 -1.0001E-02 -1.2051E-02
      15-      1
      1            3.0591E-02  2.7691E-02 -5.5806E-02  7.7585E-04 -1.1943E-02 -2.3213E-02
      21-      1
      1            4.4383E-02  4.0515E-02 -8.7721E-02 -1.0158E-03 -4.6335E-03 -1.4047E-03
      22-      1
      1            4.0354E-02  4.1820E-02 -8.0458E-02  1.2191E-03 -1.8018E-02 -8.6957E-03
      23-      1
      1            2.6484E-02  2.6965E-02 -5.4411E-02  1.7796E-03 -2.0952E-02 -1.3960E-02
      53-      1
      1            5.1582E-02  5.0419E-02 -9.6474E-02  3.4063E-03  4.3447E-04 -4.5283E-03
      54-      1
      1            3.7890E-02  3.7923E-02 -7.1492E-02  2.6063E-03  1.0089E-03 -1.2212E-02
      55-      1
      1            3.1558E-02  2.6707E-02 -5.2648E-02 -1.2260E-04 -9.6956E-04 -2.3374E-02
      93-      1
      1            4.6676E-02  4.2671E-02 -9.1351E-02 -7.9153E-04 -4.1473E-03 -1.1905E-04
      94-      1
      1            3.9113E-02  4.2321E-02 -8.0472E-02  1.2329E-03 -1.8082E-02 -2.1552E-03
      95-      1
      1            2.4258E-02  2.8219E-02 -5.3667E-02  1.3588E-03 -2.3472E-02 -4.4336E-03



 e l e m e n t   s t r e s s   c a l c u l a t i o n s   f o r   t i m e  s t e p      697   ( at time 1.32756E+01 )

 element  materl
     ipt  stress       sig-xx      sig-yy      sig-zz      sig-xy      sig-yz      sig-zx                       yield
           state                                                                                  effsg      function
      13-      1
       1          -1.3119E+08 -1.2122E+08 -4.0266E+08  8.4741E+05 -1.1572E+07 -9.3329E+06    2.7779E+08    1.0466E-01
      14-      1
       1          -2.9248E+08 -3.0340E+08 -4.3734E+08 -6.6572E+06  1.9035E+07 -1.1439E+07    1.4538E+08    5.1943E-02
      15-      1
       1           9.3029E+06  2.8750E+07 -1.4409E+08 -7.2077E+06 -4.3040E+07 -4.5783E+07    1.9721E+08    5.8269E-02
      21-      1
       1          -9.4584E+07 -8.9757E+07 -3.5145E+08 -3.5193E+06 -1.3810E+07 -1.7482E+06    2.6051E+08    1.0297E-01
      22-      1
       1          -2.4364E+08 -2.3444E+08 -3.9086E+08 -7.9058E+05  1.7340E+07 -9.0791E+06    1.5577E+08    5.8983E-02
      23-      1
       1           2.4519E+07  3.2671E+07 -1.6656E+08 -2.9565E+06 -4.2423E+07 -3.9248E+07    2.1950E+08    7.4270E-02
      53-      1
       1          -6.4819E+07 -7.4710E+07 -2.1313E+08  2.9144E+06  1.2209E+07 -3.6643E+07    1.5852E+08    9.2382E-02
      54-      1
       1          -2.3433E+08 -2.2388E+08 -3.5542E+08 -7.0894E+05  1.4722E+07 -3.7399E+06    1.2935E+08    6.8617E-02
      55-      1
       1          -1.4497E+07 -3.9728E+07 -1.0740E+08 -2.0588E+07  9.8280E+06 -2.2359E+07    9.9920E+07    5.0014E-02
      93-      1
       1          -3.4240E+07 -3.3881E+07 -2.8268E+08 -3.0317E+06 -1.1847E+07  1.5610E+06    2.4953E+08    1.0449E-01
      94-      1
       1          -2.0403E+08 -1.8970E+08 -3.4734E+08  1.9158E+06  2.2740E+07 -6.6062E+05    1.5607E+08    7.3006E-02
      95-      1
       1          -4.4345E+07 -3.6875E+07 -1.8624E+08 -1.1275E+04 -5.9447E+07 -1.2751E+07    1.7983E+08    7.1991E-02



 e l e m e n t   s t r a i n   c a l c u l a t i o n s   f o r   t i m e  s t e p      697   ( at time  1.32756E+01 )

 element  strain       eps-xx      eps-yy      eps-zz      eps-xy      eps-yz      eps-zx                            yield
 num/ipt   state
      13-      1
      1            4.5755E-02  4.8709E-02 -9.7879E-02  1.9838E-04 -3.7512E-03 -3.3525E-03
      14-      1
      1            4.3901E-02  4.5956E-02 -8.6745E-02  6.0045E-04 -1.0285E-02 -1.2399E-02
      15-      1
      1            3.4268E-02  3.1559E-02 -6.2278E-02  3.4421E-04 -1.2413E-02 -2.6047E-02
      21-      1
      1            4.8702E-02  4.4897E-02 -9.6462E-02 -1.1683E-03 -5.1463E-03 -1.4621E-03
      22-      1
      1            4.4568E-02  4.7053E-02 -8.9337E-02  1.1948E-03 -2.0123E-02 -8.8802E-03
      23-      1
      1            2.9959E-02  3.0711E-02 -6.1290E-02  1.7145E-03 -2.3007E-02 -1.5616E-02
      53-      1
      1            6.0521E-02  5.6982E-02 -1.1034E-01  4.3864E-03  8.3603E-04 -5.7898E-03
      54-      1
      1            4.1754E-02  4.2290E-02 -7.8348E-02  2.8980E-03  1.5771E-03 -1.3101E-02
      55-      1
      1            3.5590E-02  2.9750E-02 -5.8861E-02 -1.4831E-03  2.2987E-04 -2.6247E-02
      93-      1
      1            5.1204E-02  4.7177E-02 -1.0040E-01 -9.2720E-04 -4.5838E-03 -1.5893E-05
      94-      1
      1            4.3541E-02  4.7566E-02 -8.9614E-02  1.4421E-03 -2.0550E-02 -2.0103E-03
      95-      1
      1            2.7514E-02  3.2039E-02 -6.0503E-02  1.4985E-03 -2.5990E-02 -4.8711E-03



 e l e m e n t   s t r e s s   c a l c u l a t i o n s   f o r   t i m e  s t e p      713   ( at time 1.42756E+01 )

 element  materl
     ipt  stress       sig-xx      sig-yy      sig-zz      sig-xy      sig-yz      sig-zx                       yield
           state                                                                                  effsg      function
      13-      1
       1          -9.6125E+07 -7.9917E+07 -3.7130E+08 -2.2554E+06 -8.7402E+06  1.7236E+06    2.8407E+08    1.1304E-01
      14-      1
       1          -2.6734E+08 -2.4918E+08 -4.0504E+08  3.7605E+05 -9.6399E+06 -1.3846E+07    1.5049E+08    5.7334E-02
      15-      1
       1           1.9976E+07  4.3650E+07 -1.5646E+08 -2.4513E+07 -3.2521E+07 -5.0022E+07    2.1988E+08    6.2377E-02
      21-      1
       1          -4.7619E+07 -4.3727E+07 -3.1211E+08 -1.1361E+06 -6.5158E+06  7.7381E+05    2.6670E+08    1.1233E-01
      22-      1
       1          -1.9354E+08 -1.7744E+08 -3.3368E+08 -4.6124E+05 -1.9749E+07 -9.3015E+06    1.5358E+08    6.4491E-02
      23-      1
       1           2.5995E+07  1.6368E+07 -1.9688E+08 -1.5601E+07 -5.4373E+07 -4.0566E+07    2.4931E+08    7.8779E-02
      53-      1
       1          -5.8954E+07 -7.4864E+07 -2.2317E+08  6.5752E+05  4.9548E+05 -1.9556E+07    1.6049E+08    9.7339E-02
      54-      1
       1          -2.3042E+08 -2.2569E+08 -3.7844E+08  2.0147E+06  1.1718E+07 -1.0170E+07    1.5286E+08    7.2135E-02
      55-      1
       1          -6.8180E+06 -3.0481E+06 -1.0188E+08 -1.8320E+07  8.4851E+06 -2.1293E+07    1.0951E+08    5.2221E-02
      93-      1
       1          -8.6445E+06 -1.3060E+07 -2.9222E+08 -8.9459E+04 -5.9200E+06 -9.3539E+05    2.8158E+08    1.1504E-01
      94-      1
       1          -2.4051E+08 -2.4187E+08 -3.9632E+08  2.3357E+05 -3.2885E+05  2.5315E+06    1.5520E+08    7.7052E-02
      95-      1
       1          -1.3705E+07 -2.4690E+07 -2.1899E+08 -3.1602E+06 -7.7448E+07 -1.3868E+07    2.4209E+08    7.6845E-02



 e l e m e n t   s t r a i n   c a l c u l a t i o n s   f o r   t i m e  s t e p      713   ( at time  1.42756E+01 )

 element  strain       eps-xx      eps-yy      eps-zz      eps-xy      eps-yz      eps-zx                            yield
 num/ipt   state
      13-      1
      1            4.9382E-02  5.2974E-02 -1.0527E-01 -3.8289E-05 -3.6367E-03 -3.0082E-03
      14-      1
      1            4.8404E-02  5.3418E-02 -9.7250E-02  1.4809E-03 -1.0738E-02 -1.2042E-02
      15-      1
      1            3.7218E-02  3.4763E-02 -6.7745E-02 -6.4632E-04 -1.3260E-02 -2.7473E-02
      21-      1
      1            5.2907E-02  4.9081E-02 -1.0424E-01 -1.3004E-03 -5.2236E-03 -1.1957E-03
      22-      1
      1            4.9586E-02  5.4753E-02 -9.9938E-02  1.6960E-03 -2.0442E-02 -8.8528E-03
      23-      1
      1            3.2802E-02  3.3545E-02 -6.6272E-02  1.1133E-03 -2.3875E-02 -1.6572E-02
      53-      1
      1            6.5694E-02  6.1879E-02 -1.2022E-01  4.5948E-03  6.5640E-04 -6.3180E-03
      54-      1
      1            4.5949E-02  4.5960E-02 -8.5731E-02  3.0345E-03  2.0393E-03 -1.3570E-02
      55-      1
      1            3.8482E-02  3.3554E-02 -6.4537E-02 -1.9940E-03  4.3145E-04 -2.7408E-02
      93-      1
      1            5.6279E-02  5.1767E-02 -1.0993E-01 -9.7254E-04 -4.6724E-03 -9.8785E-05
      94-      1
      1            4.7768E-02  5.1862E-02 -9.8278E-02  1.6420E-03 -2.0613E-02 -1.8568E-03
      95-      1
      1            3.0419E-02  3.4723E-02 -6.5794E-02  1.4190E-03 -2.7543E-02 -4.9103E-03



 e l e m e n t   s t r e s s   c a l c u l a t i o n s   f o r   t i m e  s t e p      753   ( at time 1.52756E+01 )

 element  materl
     ipt  stress       sig-xx      sig-yy      sig-zz      sig-xy      sig-yz      sig-zx                       yield
           state                                                                                  effsg      function
      13-      1
       1          -1.2284E+07 -3.0884E+07 -2.2978E+08  8.6110E+06 -2.6004E+07  4.4929E+06    2.1428E+08    1.2291E-01
      14-      1
       1          -4.3353E+07  6.4484E+05 -1.5358E+08  1.0357E+07 -3.6276E+07 -1.4868E+07    1.5449E+08    6.6368E-02
      15-      1
       1          -1.0837E+08 -1.0844E+08 -2.3340E+08 -3.0065E+07  1.5930E+07 -2.5377E+07    1.4501E+08    6.6059E-02
      21-      1
       1           3.4487E+07  6.2624E+07 -1.3856E+08  9.8350E+06 -7.6371E+06  2.5584E+06    1.8998E+08    1.2603E-01
      22-      1
       1          -1.1517E+07 -5.5367E+06 -1.2901E+08  1.3178E+07 -5.5754E+07 -1.3343E+07    1.5787E+08    7.3578E-02
      23-      1
       1          -6.5433E+07 -5.6452E+07 -2.1604E+08 -1.5886E+07 -5.1486E+07 -2.4917E+07    1.8625E+08    8.3192E-02
      53-      1
       1          -1.7427E+07 -6.3601E+07 -1.8524E+08  2.5099E+05 -1.7267E+07 -2.3127E+07    1.5825E+08    1.0450E-01
      54-      1
       1          -1.5616E+08 -1.3797E+08 -2.9183E+08  5.7983E+06 -5.4895E+06 -1.4638E+07    1.4846E+08    7.6919E-02
      55-      1
       1          -3.3668E+07 -5.8617E+07 -1.1540E+08 -3.5296E+07  2.4082E+07 -2.5245E+07    1.1248E+08    5.7242E-02
      93-      1
       1          -3.9565E+07 -2.6876E+07 -2.3525E+08  4.1262E+06 -5.4025E+06  1.2243E+06    2.0268E+08    1.3183E-01
      94-      1
       1          -2.3738E+08 -2.4291E+08 -3.6863E+08 -1.2695E+06 -5.1908E+07 -2.5139E+06    1.5696E+08    8.2116E-02
      95-      1
       1          -8.1398E+07 -7.2674E+07 -2.2622E+08 -6.1326E+06 -8.4214E+07 -3.6257E+06    2.0914E+08    8.3137E-02



 e l e m e n t   s t r a i n   c a l c u l a t i o n s   f o r   t i m e  s t e p      753   ( at time  1.52756E+01 )

 element  strain       eps-xx      eps-yy      eps-zz      eps-xy      eps-yz      eps-zx                            yield
 num/ipt   state
      13-      1
      1            5.4101E-02  5.7210E-02 -1.1168E-01  5.2255E-04 -3.2828E-03 -2.4101E-03
      14-      1
      1            5.5195E-02  6.4483E-02 -1.1276E-01  2.9150E-03 -8.1156E-03 -9.1680E-03
      15-      1
      1            4.2024E-02  4.0795E-02 -7.2019E-02 -1.4222E-03 -1.7875E-02 -3.1827E-02
      21-      1
      1            5.6482E-02  5.3925E-02 -1.1096E-01 -7.6192E-04 -4.9901E-03 -3.2330E-04
      22-      1
      1            5.6516E-02  6.4975E-02 -1.1547E-01  4.0108E-03 -1.8768E-02 -7.1918E-03
      23-      1
      1            3.7100E-02  3.7434E-02 -7.0354E-02  1.5927E-03 -2.7061E-02 -1.9551E-02
      53-      1
      1            7.5361E-02  6.8797E-02 -1.3296E-01  6.1468E-03 -4.4650E-04 -7.1657E-03
      54-      1
      1            5.1451E-02  5.1141E-02 -9.3878E-02  3.7853E-03  2.3422E-03 -1.4430E-02
      55-      1
      1            4.4472E-02  3.6041E-02 -7.2198E-02 -5.7543E-03  1.3544E-03 -2.8929E-02
      93-      1
      1            6.1570E-02  5.7042E-02 -1.2047E-01 -9.1018E-04 -4.7807E-03  2.0514E-04
      94-      1
      1            5.2194E-02  5.7069E-02 -1.0776E-01  1.6497E-03 -2.0179E-02 -1.3729E-03
      95-      1
      1            3.2954E-02  3.8058E-02 -7.1506E-02  1.2529E-03 -2.9404E-02 -5.1466E-03



 e l e m e n t   s t r e s s   c a l c u l a t i o n s   f o r   t i m e  s t e p      782   ( at time 1.61739E+01 )

 element  materl
     ipt  stress       sig-xx      sig-yy      sig-zz      sig-xy      sig-yz      sig-zx                       yield
           state                                                                                  effsg      function
      13-      1
       1           1.0219E+08  9.2647E+07 -1.6421E+08  3.2472E+05 -2.0580E+07  8.2939E+06    2.6457E+08    1.3299E-01
      14-      1
       1           5.9521E+07  8.4379E+07 -3.2290E+07  1.5196E+07 -9.5115E+06 -2.0918E+07    1.1665E+08    7.2656E-02
      15-      1
       1           3.2755E+07  2.3402E+07 -8.7034E+07 -3.1681E+07 -2.0410E+07 -4.5215E+07    1.5398E+08    6.9867E-02
      21-      1
       1           7.6039E+07  7.5693E+07 -9.4119E+07 -1.4219E+07 -3.2802E+07  1.3838E+07    1.8249E+08    1.3642E-01
      22-      1
       1           2.0648E+07  1.0430E+07 -8.9599E+07 -3.0564E+06 -2.7429E+07 -1.1954E+07    1.1767E+08    7.9302E-02
      23-      1
       1          -5.5439E+07 -5.5381E+07 -1.9586E+08 -9.0969E+06 -6.3834E+07 -3.9164E+07    1.9183E+08    8.8303E-02
      53-      1
       1          -2.5624E+07 -3.1181E+07 -1.4977E+08 -2.0799E+06 -3.0724E+06 -1.2486E+07    1.2354E+08    1.0880E-01
      54-      1
       1          -4.9793E+07 -4.5912E+07 -2.0512E+08  7.9111E+06  1.4331E+05 -1.1104E+07    1.5907E+08    8.4873E-02
      55-      1
       1          -3.6168E+07 -4.1703E+07 -1.2779E+08 -2.3171E+07  1.1647E+07 -3.4365E+07    1.1609E+08    5.9374E-02
      93-      1
       1           7.2096E+06 -7.7016E+06 -2.2889E+08 -5.1627E+06 -8.9000E+06 -3.2382E+06    2.2977E+08    1.4858E-01
      94-      1
       1          -2.1465E+08 -2.2331E+08 -3.5307E+08 -1.0283E+06 -4.7277E+07 -1.9494E+06    1.5734E+08    8.7666E-02
      95-      1
       1          -8.7522E+07 -8.0033E+07 -2.5274E+08 -2.9994E+06 -8.1345E+07 -1.6185E+07    2.2193E+08    9.0369E-02



 e l e m e n t   s t r a i n   c a l c u l a t i o n s   f o r   t i m e  s t e p      782   ( at time  1.61739E+01 )

 element  strain       eps-xx      eps-yy      eps-zz      eps-xy      eps-yz      eps-zx                            yield
 num/ipt   state
      13-      1
      1            6.0204E-02  6.3058E-02 -1.2120E-01  8.0326E-04 -3.2325E-03 -2.4525E-03
      14-      1
      1            6.2579E-02  7.4236E-02 -1.2754E-01  6.4470E-03 -8.1434E-03 -1.0046E-02
      15-      1
      1            4.8238E-02  4.7527E-02 -7.4598E-02 -7.5988E-04 -2.3341E-02 -3.8709E-02
      21-      1
      1            6.0196E-02  5.9948E-02 -1.1848E-01 -1.6506E-03 -4.1442E-03  5.2034E-04
      22-      1
      1            6.3499E-02  7.4435E-02 -1.2982E-01  3.8828E-03 -1.8120E-02 -6.2562E-03
      23-      1
      1            4.2114E-02  4.2037E-02 -7.5579E-02  1.8597E-03 -2.9868E-02 -2.3709E-02
      53-      1
      1            7.9789E-02  7.5580E-02 -1.4257E-01  5.6105E-03 -1.1670E-03 -5.7633E-03
      54-      1
      1            5.9461E-02  5.9199E-02 -1.0983E-01  4.9862E-03  2.0283E-03 -1.2448E-02
      55-      1
      1            4.8759E-02  4.0591E-02 -7.5364E-02 -6.4420E-03 -4.3409E-04 -3.0408E-02
      93-      1
      1            6.6591E-02  6.1586E-02 -1.2972E-01 -1.2337E-03 -4.6780E-03  1.5905E-04
      94-      1
      1            5.7002E-02  6.2258E-02 -1.1764E-01  1.5029E-03 -1.9828E-02 -1.0903E-03
      95-      1
      1            3.6222E-02  4.2013E-02 -7.8949E-02  1.0013E-03 -3.1105E-02 -5.8201E-03



 e l e m e n t   s t r e s s   c a l c u l a t i o n s   f o r   t i m e  s t e p      818   ( at time 1.75977E+01 )

 element  materl
     ipt  stress       sig-xx      sig-yy      sig-zz      sig-xy      sig-yz      sig-zx                       yield
           state                                                                                  effsg      function
      13-      1
       1           4.9696E+07  3.5306E+07 -1.5297E+08  6.5827E+06 -1.2192E+07  1.3696E+07    1.9876E+08    1.4233E-01
      14-      1
       1           1.0389E+07 -9.4840E+06 -3.5044E+07 -2.4833E+06  7.0087E+06 -3.8009E+06    4.2017E+07    7.6585E-02
      15-      1
       1           2.5518E+07  2.4235E+07 -4.2820E+07 -2.8364E+07 -1.8560E+07 -1.8521E+07    9.5184E+07    7.4120E-02
      21-      1
       1           5.9387E+07  5.4446E+07 -1.2889E+08  1.2413E+06 -2.9770E+07  1.6716E+07    1.9505E+08    1.4747E-01
      22-      1
       1           2.1312E+07 -6.4740E+06 -1.0238E+08 -7.3986E+06 -1.6415E+07 -4.8428E+05    1.1665E+08    8.4484E-02
      23-      1
       1          -4.0741E+07 -8.5352E+06 -1.3321E+08 -1.4364E+06 -6.0690E+07 -2.1993E+07    1.5835E+08    9.7860E-02
      53-      1
       1           2.3775E+07  4.3536E+07 -8.4351E+07  1.0212E+07 -4.5269E+06 -1.5466E+07    1.2373E+08    1.1565E-01
      54-      1
       1           1.2921E+07  1.9134E+07 -9.8680E+07  3.5250E+06  3.5140E+05 -2.2047E+07    1.2117E+08    9.3583E-02
      55-      1
       1          -1.1351E+08 -1.0626E+08 -2.0259E+08 -3.5450E+07  3.6390E+07 -2.0703E+07    1.3290E+08    6.3298E-02
      93-      1
       1          -4.6123E+06  8.8486E+06 -1.7795E+08  2.2636E+06  3.7647E+06  6.0817E+06    1.8091E+08    1.6889E-01
      94-      1
       1          -1.3124E+08 -1.4083E+08 -2.8281E+08  1.9006E+06 -3.6500E+07  3.0926E+06    1.6015E+08    9.5473E-02
      95-      1
       1          -1.0152E+08 -9.9976E+07 -2.2770E+08  1.6935E+06 -7.0544E+07 -1.1591E+07    1.7737E+08    1.0783E-01



 e l e m e n t   s t r a i n   c a l c u l a t i o n s   f o r   t i m e  s t e p      818   ( at time  1.75977E+01 )

 element  strain       eps-xx      eps-yy      eps-zz      eps-xy      eps-yz      eps-zx                            yield
 num/ipt   state
      13-      1
      1            6.5441E-02  6.9722E-02 -1.3300E-01  2.2859E-03 -1.3943E-03 -1.5937E-03
      14-      1
      1            6.8960E-02  8.1809E-02 -1.4440E-01  7.7129E-03 -5.7168E-03 -7.1249E-03
      15-      1
      1            5.4942E-02  5.6800E-02 -7.9932E-02  3.5217E-04 -2.9368E-02 -4.9606E-02
      21-      1
      1            6.3114E-02  6.5694E-02 -1.2701E-01 -1.4540E-03 -3.3449E-03  1.1289E-03
      22-      1
      1            6.9148E-02  8.0657E-02 -1.4222E-01  2.3796E-03 -1.8723E-02 -2.1800E-03
      23-      1
      1            4.8238E-02  5.2160E-02 -8.8194E-02  1.5151E-03 -3.5828E-02 -2.9875E-02
      53-      1
      1            8.6658E-02  8.7228E-02 -1.5939E-01  7.3653E-03 -1.0685E-03 -5.3118E-03
      54-      1
      1            7.0128E-02  7.0111E-02 -1.3012E-01  6.8147E-03  1.5280E-03 -9.5447E-03
      55-      1
      1            5.2884E-02  4.5092E-02 -7.9784E-02 -8.4522E-03 -6.1665E-04 -2.9712E-02
      93-      1
      1            7.0469E-02  6.7418E-02 -1.3858E-01 -6.3759E-04 -5.5537E-03 -8.9167E-05
      94-      1
      1            6.3840E-02  6.9165E-02 -1.3086E-01  1.5889E-03 -2.4347E-02  5.2835E-04
      95-      1
      1            4.1114E-02  4.7909E-02 -9.0308E-02  8.2550E-04 -3.6073E-02 -6.9452E-03



 e l e m e n t   s t r e s s   c a l c u l a t i o n s   f o r   t i m e  s t e p      826   ( at time 1.82272E+01 )

 element  materl
     ipt  stress       sig-xx      sig-yy      sig-zz      sig-xy      sig-yz      sig-zx                       yield
           state                                                                                  effsg      function
      13-      1
       1           7.0530E+07  6.7292E+07 -1.3817E+08 -2.3115E+06 -3.5000E+06  2.3817E+06    2.0727E+08    1.4552E-01
      14-      1
       1           8.2918E+06 -8.2028E+05 -3.4281E+07 -2.4587E+05  8.9188E+06 -3.1800E+06    4.2151E+07    7.7110E-02
      15-      1
       1           9.1826E+06  1.1871E+07 -7.2797E+07 -2.0446E+07 -2.4846E+07 -2.9469E+07    1.1251E+08    7.5489E-02
      21-      1
       1           3.7335E+07  5.0187E+07 -1.4825E+08 -5.2652E+06 -2.3107E+07  3.9088E+06    1.9678E+08    1.5081E-01
      22-      1
       1           2.7910E+07  1.5344E+07 -9.7950E+07 -3.3225E+06 -8.5568E+06 -7.3180E+06    1.2178E+08    8.6376E-02
      23-      1
       1          -4.7180E+07 -3.4109E+07 -1.5434E+08 -5.6372E+06 -5.5269E+07 -2.9928E+07    1.5812E+08    9.9839E-02
      53-      1
       1           1.5539E+07  2.7796E+07 -1.0310E+08  5.8066E+06 -4.5053E+06 -7.8023E+06    1.2658E+08    1.1706E-01
      54-      1
       1           7.6396E+06  9.3139E+06 -1.1026E+08  3.0537E+06  2.0952E+06 -1.8877E+07    1.2334E+08    9.5344E-02
      55-      1
       1          -1.1210E+08 -1.1654E+08 -1.9606E+08 -2.7094E+07  1.5816E+07 -3.7279E+07    1.1755E+08    6.4403E-02
      93-      1
       1          -5.9955E+06 -1.3705E+07 -2.3142E+08  5.0320E+06  1.0933E+07 -1.9518E+06    2.2268E+08    1.7333E-01
      94-      1
       1          -1.5939E+08 -1.6276E+08 -3.2257E+08 -3.8554E+06 -1.8020E+07  1.9009E+06    1.6468E+08    9.8257E-02
      95-      1
       1          -9.7720E+07 -1.0632E+08 -2.7612E+08 -3.1858E+06 -7.4524E+07 -8.8307E+06    2.1747E+08    1.0921E-01



 e l e m e n t   s t r a i n   c a l c u l a t i o n s   f o r   t i m e  s t e p      826   ( at time  1.82272E+01 )

 element  strain       eps-xx      eps-yy      eps-zz      eps-xy      eps-yz      eps-zx                            yield
 num/ipt   state
      13-      1
      1            6.8196E-02  7.2662E-02 -1.3818E-01  1.9724E-03 -1.2331E-03 -1.8398E-03
      14-      1
      1            7.1619E-02  8.4147E-02 -1.4921E-01  7.6977E-03 -5.8307E-03 -7.7140E-03
      15-      1
      1            5.6810E-02  5.8716E-02 -8.4033E-02  5.0615E-04 -3.0513E-02 -5.0821E-02
      21-      1
      1            6.6122E-02  6.8880E-02 -1.3267E-01 -1.4662E-03 -3.2948E-03  1.4865E-03
      22-      1
      1            7.2177E-02  8.3765E-02 -1.4740E-01  2.7109E-03 -1.8978E-02 -1.8362E-03
      23-      1
      1            5.0331E-02  5.4138E-02 -9.2131E-02  1.5889E-03 -3.6605E-02 -3.0663E-02
      53-      1
      1            8.8773E-02  8.8819E-02 -1.6386E-01  7.5216E-03 -1.4305E-03 -5.1523E-03
      54-      1
      1            7.2084E-02  7.2092E-02 -1.3488E-01  6.8944E-03  1.0726E-03 -9.4178E-03
      55-      1
      1            5.4998E-02  4.6814E-02 -8.3561E-02 -8.9243E-03 -1.2656E-03 -3.0800E-02
      93-      1
      1            7.3926E-02  7.0518E-02 -1.4481E-01 -4.6575E-04 -5.5210E-03 -3.9384E-04
      94-      1
      1            6.6682E-02  7.2547E-02 -1.3710E-01  1.4574E-03 -2.4275E-02  7.8205E-04
      95-      1
      1            4.2628E-02  4.9195E-02 -9.2809E-02  6.7368E-04 -3.6360E-02 -6.7673E-03



 e l e m e n t   s t r e s s   c a l c u l a t i o n s   f o r   t i m e  s t e p      841   ( at time 1.94861E+01 )

 element  materl
     ipt  stress       sig-xx      sig-yy      sig-zz      sig-xy      sig-yz      sig-zx                       yield
           state                                                                                  effsg      function
      13-      1
       1           4.5480E+07  4.7774E+07 -1.6117E+08  1.4833E+05 -1.0090E+07  4.6533E+04    2.0854E+08    1.5183E-01
      14-      1
       1           7.9468E+05 -3.3263E+06 -4.0893E+07  5.9369E+05  5.1440E+06 -6.9223E+06    4.2511E+07    7.8556E-02
      15-      1
       1           2.0775E+07  7.9932E+06 -8.3756E+07 -1.5443E+07 -2.1269E+07 -2.8177E+07    1.1920E+08    7.8243E-02
      21-      1
       1           1.5531E+07  2.2715E+07 -1.7666E+08 -3.6419E+06 -2.4903E+07 -1.4492E+06    2.0069E+08    1.5691E-01
      22-      1
       1           2.9450E+07  2.3996E+07 -9.4969E+07  1.4634E+06 -1.3918E+07 -6.6132E+06    1.2470E+08    9.0627E-02
      23-      1
       1          -6.9460E+07 -6.0892E+07 -1.8948E+08 -5.2284E+06 -5.2160E+07 -2.8911E+07    1.6204E+08    1.0360E-01
      53-      1
       1          -9.0050E+05  5.9916E+06 -1.2439E+08  2.9042E+06 -3.8346E+06 -8.8295E+06    1.2827E+08    1.2099E-01
      54-      1
       1          -3.6752E+06 -1.2175E+07 -1.2768E+08  3.1390E+06  3.2027E+06 -1.8675E+07    1.2451E+08    9.9499E-02
      55-      1
       1          -1.0877E+08 -1.1446E+08 -2.0598E+08 -2.0180E+07  6.4813E+06 -3.8076E+07    1.2094E+08    6.6739E-02
      93-      1
       1          -2.4294E+07 -2.9935E+07 -2.6265E+08  3.4370E+06  9.5907E+06 -2.8628E+06    2.3630E+08    1.8142E-01
      94-      1
       1          -1.3780E+08 -1.3842E+08 -3.0304E+08 -1.0981E+06 -1.0094E+07  1.1655E+05    1.6586E+08    1.0402E-01
      95-      1
       1          -1.0122E+08 -1.0075E+08 -2.8414E+08  6.7851E+04 -7.7618E+07 -1.5634E+07    2.2881E+08    1.1631E-01



 e l e m e n t   s t r a i n   c a l c u l a t i o n s   f o r   t i m e  s t e p      841   ( at time  1.94861E+01 )

 element  strain       eps-xx      eps-yy      eps-zz      eps-xy      eps-yz      eps-zx                            yield
 num/ipt   state
      13-      1
      1            7.2931E-02  7.8201E-02 -1.4832E-01  1.9950E-03 -7.8432E-04 -1.7281E-03
      14-      1
      1            7.7320E-02  9.0064E-02 -1.6049E-01  8.8663E-03 -5.6247E-03 -8.2445E-03
      15-      1
      1            6.1364E-02  6.2393E-02 -9.0853E-02  5.8902E-04 -3.1784E-02 -5.4211E-02
      21-      1
      1            7.0821E-02  7.3817E-02 -1.4196E-01 -1.5396E-03 -2.9542E-03  1.9372E-03
      22-      1
      1            7.8120E-02  9.0386E-02 -1.5921E-01  3.2007E-03 -1.9800E-02 -6.2424E-04
      23-      1
      1            5.4273E-02  5.8255E-02 -9.9599E-02  1.6824E-03 -3.8014E-02 -3.2445E-02
      53-      1
      1            9.3180E-02  9.4663E-02 -1.7509E-01  8.0430E-03 -2.0557E-03 -5.1508E-03
      54-      1
      1            7.7883E-02  7.6654E-02 -1.4604E-01  7.3436E-03  3.7866E-04 -9.7175E-03
      55-      1
      1            5.9031E-02  5.0064E-02 -8.9968E-02 -9.7925E-03 -1.7752E-03 -3.2156E-02
      93-      1
      1            7.8977E-02  7.5287E-02 -1.5460E-01 -4.7308E-04 -5.6929E-03 -8.3813E-04
      94-      1
      1            7.1940E-02  7.8486E-02 -1.4839E-01  1.5372E-03 -2.5272E-02  9.8813E-04
      95-      1
      1            4.6651E-02  5.3624E-02 -1.0078E-01  6.6195E-04 -3.8305E-02 -7.3363E-03



 e l e m e n t   s t r e s s   c a l c u l a t i o n s   f o r   t i m e  s t e p      850   ( at time 2.04837E+01 )

 element  materl
     ipt  stress       sig-xx      sig-yy      sig-zz      sig-xy      sig-yz      sig-zx                       yield
           state                                                                                  effsg      function
      13-      1
       1           8.0861E+07  8.7583E+07 -1.2429E+08 -3.9688E+06 -1.2254E+07 -3.4525E+06    2.0986E+08    1.5837E-01
      14-      1
       1           9.2499E+06  6.7587E+06 -3.1269E+07  5.4516E+05  8.5666E+06 -4.6134E+06    4.2801E+07    7.9757E-02
      15-      1
       1           6.9297E+07  4.9833E+07 -3.4219E+07 -1.4051E+07 -2.5688E+07 -2.9719E+07    1.1959E+08    8.1120E-02
      21-      1
       1           1.8152E+07  2.2618E+07 -1.7635E+08 -7.8497E+06 -2.2721E+07 -2.2017E+05    2.0113E+08    1.6328E-01
      22-      1
       1           3.8952E+07  3.0695E+07 -8.8927E+07 -3.4884E+06 -6.5408E+04 -8.2195E+06    1.2492E+08    9.3879E-02
      23-      1
       1          -5.8320E+07 -5.5557E+07 -1.7068E+08 -6.4305E+06 -5.9575E+07 -3.0449E+07    1.6278E+08    1.0745E-01
      53-      1
       1           3.5224E+07  4.1084E+07 -8.8601E+07  4.0932E+06 -1.7059E+06 -1.1798E+07    1.2872E+08    1.2438E-01
      54-      1
       1           3.3981E+07  2.4608E+07 -9.1471E+07  2.2371E+06  5.4178E+06 -1.7542E+07    1.2521E+08    1.0337E-01
      55-      1
       1          -6.4539E+07 -6.8718E+07 -1.5919E+08 -1.8187E+07  2.3005E+05 -4.0810E+07    1.2071E+08    6.9637E-02
      93-      1
       1          -2.9639E+07 -4.8928E+07 -2.7993E+08  3.4395E+06  1.0588E+07 -3.0790E+06    2.4205E+08    1.8911E-01
      94-      1
       1          -1.2937E+08 -1.3241E+08 -2.9742E+08 -5.5795E+06  9.9892E+05 -6.6632E+05    1.6685E+08    1.0891E-01
      95-      1
       1          -1.0589E+08 -1.1470E+08 -2.8509E+08 -8.7722E+05 -7.8517E+07 -1.3273E+07    2.2279E+08    1.2144E-01



 e l e m e n t   s t r a i n   c a l c u l a t i o n s   f o r   t i m e  s t e p      850   ( at time  2.04837E+01 )

 element  strain       eps-xx      eps-yy      eps-zz      eps-xy      eps-yz      eps-zx                            yield
 num/ipt   state
      13-      1
      1            7.7672E-02  8.3779E-02 -1.5844E-01  1.5340E-03 -4.1150E-04 -1.8217E-03
      14-      1
      1            8.1303E-02  9.4941E-02 -1.6878E-01  9.0278E-03 -5.1108E-03 -8.4476E-03
      15-      1
      1            6.6396E-02  6.6337E-02 -9.7399E-02  8.6469E-04 -3.2986E-02 -5.6819E-02
      21-      1
      1            7.5713E-02  7.8512E-02 -1.5162E-01 -2.2019E-03 -2.5469E-03  2.5349E-03
      22-      1
      1            8.2945E-02  9.5268E-02 -1.6778E-01  2.4341E-03 -1.9693E-02  4.3902E-04
      23-      1
      1            5.8328E-02  6.2457E-02 -1.0651E-01  1.7361E-03 -3.9008E-02 -3.4006E-02
      53-      1
      1            9.7780E-02  9.9991E-02 -1.8425E-01  8.6585E-03 -2.7143E-03 -4.8027E-03
      54-      1
      1            8.3397E-02  8.1792E-02 -1.5627E-01  7.6395E-03 -3.3813E-04 -9.2572E-03
      55-      1
      1            6.4012E-02  5.4260E-02 -9.6676E-02 -1.0740E-02 -2.0515E-03 -3.3538E-02
      93-      1
      1            8.4400E-02  7.9601E-02 -1.6426E-01 -3.6147E-04 -5.6945E-03 -1.1367E-03
      94-      1
      1            7.7094E-02  8.3597E-02 -1.5796E-01  1.2376E-03 -2.5784E-02  1.3757E-03
      95-      1
      1            4.9890E-02  5.6621E-02 -1.0649E-01  5.2652E-04 -3.9034E-02 -7.3569E-03



 e l e m e n t   s t r e s s   c a l c u l a t i o n s   f o r   t i m e  s t e p      860   ( at time 2.14813E+01 )

 element  materl
     ipt  stress       sig-xx      sig-yy      sig-zz      sig-xy      sig-yz      sig-zx                       yield
           state                                                                                  effsg      function
      13-      1
       1           3.7665E+07  4.5441E+07 -1.2164E+08 -5.3621E+06 -1.5381E+07 -1.1209E+06    1.6576E+08    1.6284E-01
      14-      1
       1           3.1812E+07  3.3733E+07 -6.9598E+06  1.9983E+06  7.1263E+06 -6.2636E+06    4.3168E+07    8.1326E-02
      15-      1
       1           3.8003E+07  1.1164E+07 -3.6012E+07 -1.8725E+07 -1.1880E+07 -1.7663E+07    8.1383E+07    8.2823E-02
      21-      1
       1          -1.4139E+07 -1.3500E+07 -2.0062E+08 -1.1281E+07 -3.1334E+07 -2.2964E+06    1.9555E+08    1.6884E-01
      22-      1
       1           7.0977E+07  6.2434E+07 -5.6196E+07 -1.4848E+06 -9.0640E+06 -1.3111E+07    1.2621E+08    9.7921E-02
      23-      1
       1          -5.1759E+07 -4.7530E+07 -1.5194E+08 -6.5568E+06 -6.7164E+07 -3.1961E+07    1.6494E+08    1.1113E-01
      53-      1
       1           3.8994E+07  5.0140E+07 -8.0470E+07  4.3830E+06 -3.4169E+06 -1.5746E+07    1.2870E+08    1.2783E-01
      54-      1
       1           5.0978E+07  3.2795E+07 -7.5741E+07  4.8480E+06  4.0761E+06 -2.2932E+07    1.2563E+08    1.0755E-01
      55-      1
       1          -6.8167E+07 -7.3743E+07 -1.6162E+08 -2.3225E+07  1.6898E+06 -4.0733E+07    1.2185E+08    7.2696E-02
      93-      1
       1          -5.7993E+07 -7.3413E+07 -3.0341E+08  3.5111E+06  1.7101E+07 -6.9173E+06    2.4030E+08    1.9681E-01
      94-      1
       1          -1.2840E+08 -1.3188E+08 -2.9661E+08 -1.8607E+06  1.2254E+05 -3.7157E+06    1.6665E+08    1.1367E-01
      95-      1
       1          -1.1190E+08 -1.1807E+08 -2.8649E+08 -9.6527E+05 -7.6603E+07 -1.2811E+07    2.1803E+08    1.2734E-01



 e l e m e n t   s t r a i n   c a l c u l a t i o n s   f o r   t i m e  s t e p      860   ( at time  2.14813E+01 )

 element  strain       eps-xx      eps-yy      eps-zz      eps-xy      eps-yz      eps-zx                            yield
 num/ipt   state
      13-      1
      1            8.2246E-02  8.8789E-02 -1.6724E-01  1.2526E-03  3.2619E-04 -1.5026E-03
      14-      1
      1            8.6856E-02  1.0186E-01 -1.8001E-01  1.0558E-02 -4.3991E-03 -8.6553E-03
      15-      1
      1            7.1515E-02  7.0530E-02 -1.0329E-01  9.3845E-04 -3.4187E-02 -6.0143E-02
      21-      1
      1            7.9975E-02  8.2941E-02 -1.5958E-01 -2.5090E-03 -2.1076E-03  3.2640E-03
      22-      1
      1            8.9116E-02  1.0237E-01 -1.7900E-01  2.7393E-03 -2.0391E-02  1.7692E-03
      23-      1
      1            6.2407E-02  6.6457E-02 -1.1250E-01  1.8373E-03 -4.0324E-02 -3.5951E-02
      53-      1
      1            1.0151E-01  1.0608E-01 -1.9373E-01  9.5578E-03 -3.5707E-03 -4.4592E-03
      54-      1
      1            8.9448E-02  8.6225E-02 -1.6772E-01  8.2854E-03 -1.2032E-03 -9.0245E-03
      55-      1
      1            6.8802E-02  5.7772E-02 -1.0378E-01 -1.2158E-02 -1.6757E-03 -3.4700E-02
      93-      1
      1            8.9395E-02  8.3887E-02 -1.7361E-01 -2.2867E-04 -5.9473E-03 -1.6461E-03
      94-      1
      1            8.1683E-02  8.8561E-02 -1.6715E-01  1.4524E-03 -2.7325E-02  1.4001E-03
      95-      1
      1            5.3172E-02  5.9865E-02 -1.1277E-01  4.5349E-04 -4.0184E-02 -7.6947E-03



 e l e m e n t   s t r e s s   c a l c u l a t i o n s   f o r   t i m e  s t e p      869   ( at time 2.24790E+01 )

 element  materl
     ipt  stress       sig-xx      sig-yy      sig-zz      sig-xy      sig-yz      sig-zx                       yield
           state                                                                                  effsg      function
      13-      1
       1           5.1788E+07  5.2559E+07 -1.1403E+08 -2.1085E+06 -1.2778E+07 -1.8776E+06    1.6774E+08    1.6720E-01
      14-      1
       1           2.6327E+07  2.8611E+07 -1.3933E+07  1.3148E+06  4.9174E+06 -5.4108E+06    4.3401E+07    8.2352E-02
      15-      1
       1           2.6086E+07  5.4108E+06 -4.7157E+07 -1.8192E+07 -1.3335E+07 -1.7692E+07    8.2115E+07    8.4447E-02
      21-      1
       1          -4.9458E+06 -4.8357E+06 -1.9760E+08 -7.9844E+06 -2.8165E+07  5.0748E+05    1.9927E+08    1.7387E-01
      22-      1
       1           2.5965E+07  1.8458E+07 -6.1219E+07 -3.8847E+06 -4.6050E+06 -5.8326E+06    8.4934E+07    1.0009E-01
      23-      1
       1          -6.0399E+07 -5.5144E+07 -1.7440E+08 -6.0579E+06 -5.8951E+07 -3.3140E+07    1.6569E+08    1.1477E-01
      53-      1
       1           2.9960E+07  3.4856E+07 -9.5004E+07  6.1970E+06 -1.7437E+06 -1.3281E+07    1.3002E+08    1.3084E-01
      54-      1
       1           2.9181E+07  2.0923E+07 -9.1666E+07  2.8308E+06  2.5988E+06 -2.8241E+07    1.2693E+08    1.1086E-01
      55-      1
       1          -5.6069E+07 -6.0681E+07 -1.9206E+08 -2.4920E+07  2.9033E+06 -3.5760E+07    1.5366E+08    7.5183E-02
      93-      1
       1          -4.4381E+07 -6.0882E+07 -2.9746E+08  3.6475E+06  1.4934E+07 -4.4053E+06    2.4680E+08    2.0344E-01
      94-      1
       1          -1.2353E+08 -1.2532E+08 -2.9266E+08 -3.2460E+06  4.0143E+06 -2.7763E+06    1.6854E+08    1.1813E-01
      95-      1
[...]
      54-      1
       1          -1.3436E+07  7.5143E+06 -1.4034E+08  1.5001E+06  4.3544E+06 -8.7401E+06    1.3962E+08    2.8834E-01
      55-      1
       1          -1.6223E+07 -1.6626E+07 -1.4986E+08  3.4056E+05  6.9551E+06 -1.8752E+07    1.3786E+08    2.2684E-01
      93-      1
       1           1.2807E+07 -6.7676E+06 -1.9807E+08 -1.0499E+06 -2.1650E+06 -1.5329E+06    2.0186E+08    5.3166E-01
      94-      1
       1          -1.0942E+08 -1.2947E+08 -3.7051E+08  6.5021E+06 -1.7850E+07 -1.0576E+07    2.5446E+08    3.9845E-01
      95-      1
       1          -1.4329E+07 -2.8093E+07 -1.9742E+08 -9.4641E+06 -1.1151E+07 -1.9576E+07    1.8161E+08    3.7134E-01



 e l e m e n t   s t r a i n   c a l c u l a t i o n s   f o r   t i m e  s t e p     1133   ( at time  8.28865E+01 )

 element  strain       eps-xx      eps-yy      eps-zz      eps-xy      eps-yz      eps-zx                            yield
 num/ipt   state
      13-      1
      1            3.4581E-01  3.5694E-01 -7.0585E-01 -1.1917E-02  2.7185E-03 -1.3322E-03
      14-      1
      1            3.2475E-01  3.4811E-01 -6.7001E-01 -3.8237E-03  1.6942E-02  6.8574E-03
      15-      1
      1            3.5392E-01  2.8053E-01 -6.1177E-01  1.5588E-02 -3.8389E-02 -2.8654E-02
      21-      1
      1            3.4170E-01  3.3758E-01 -6.8073E-01 -2.6495E-02  1.6767E-02  9.2197E-03
      22-      1
      1            3.5154E-01  3.4269E-01 -6.8120E-01 -1.4189E-02  2.9313E-02  3.8015E-02
      23-      1
      1            3.2143E-01  3.2919E-01 -6.3650E-01  2.5204E-02  2.3576E-02 -6.8135E-03
      53-      1
      1            3.6719E-01  3.9649E-01 -7.5698E-01  1.6556E-02  2.7460E-03 -1.0545E-02
      54-      1
      1            3.5383E-01  3.5305E-01 -7.0126E-01  3.3281E-03  4.0493E-02 -9.3421E-03
      55-      1
      1            3.0352E-01  2.7610E-01 -5.4778E-01 -1.8102E-02  5.8030E-02 -4.4181E-02
      93-      1
      1            3.9022E-01  3.1089E-01 -6.9844E-01 -9.7518E-03  1.3328E-03  1.1278E-03
      94-      1
      1            3.6799E-01  3.2965E-01 -7.0163E-01 -1.3497E-03 -5.0711E-03  1.5131E-02
      95-      1
      1            2.8082E-01  3.2052E-01 -5.9872E-01  3.4168E-03  7.7791E-03  3.5982E-04



 e l e m e n t   s t r e s s   c a l c u l a t i o n s   f o r   t i m e  s t e p     1139   ( at time 8.53925E+01 )

 element  materl
     ipt  stress       sig-xx      sig-yy      sig-zz      sig-xy      sig-yz      sig-zx                       yield
           state                                                                                  effsg      function
      13-      1
       1          -6.6350E+07 -7.0390E+07 -1.7530E+08 -4.1744E+05  2.3893E+06 -2.4306E+06    1.0715E+08    3.6740E-01
      14-      1
       1          -1.5496E+08 -1.5687E+08 -2.4638E+08 -1.0280E+05 -2.5444E+06 -6.3775E+06    9.1253E+07    1.7762E-01
      15-      1
       1          -8.7107E+07 -9.1864E+07 -1.8993E+08  2.4923E+05  6.1396E+06 -4.4740E+06    1.0139E+08    2.1831E-01
      21-      1
       1          -6.3729E+07 -6.4619E+07 -2.2254E+08 -3.5009E+06  1.3574E+06 -5.0511E+06    1.5875E+08    4.7152E-01
      22-      1
       1          -7.6412E+07 -7.8662E+07 -1.3012E+08  2.2664E+06 -4.4022E+06 -1.4578E+06    5.3370E+07    1.8935E-01
      23-      1
       1          -7.2152E+07 -7.1744E+07 -1.0772E+08  8.8883E+05 -1.0546E+07 -2.0561E+06    4.0351E+07    1.9524E-01
      53-      1
       1          -1.3271E+08 -1.3226E+08 -1.7747E+08 -5.5907E+05  2.4315E+05 -2.2689E+06    4.5166E+07    2.4185E-01
      54-      1
       1          -1.2836E+08 -1.1914E+08 -2.6501E+08  2.2806E+05 -8.4409E+05 -5.0710E+06    1.4177E+08    2.9400E-01
      55-      1
       1          -1.4152E+08 -1.4168E+08 -2.3530E+08  1.1134E+06 -8.4451E+05 -1.0353E+07    9.5431E+07    2.3071E-01
      93-      1
       1          -1.8967E+07 -1.6635E+07 -2.2873E+08  1.2393E+06 -1.4051E+06 -4.3939E+05    2.1097E+08    5.4092E-01
      94-      1
       1          -1.8773E+08 -1.8944E+08 -4.4310E+08  5.0347E+06 -1.6459E+07 -7.2075E+06    2.5656E+08    4.0929E-01
      95-      1
       1          -1.7777E+07 -1.8593E+07 -2.0766E+08 -2.0399E+06 -1.8615E+07 -1.5801E+07    1.9417E+08    3.7881E-01



 e l e m e n t   s t r a i n   c a l c u l a t i o n s   f o r   t i m e  s t e p     1139   ( at time  8.53925E+01 )

 element  strain       eps-xx      eps-yy      eps-zz      eps-xy      eps-yz      eps-zx                            yield
 num/ipt   state
      13-      1
      1            3.5233E-01  3.6262E-01 -7.2180E-01 -1.1790E-02  3.0885E-03 -1.4259E-03
      14-      1
      1            3.3055E-01  3.5365E-01 -6.8381E-01 -3.8928E-03  1.9860E-02  9.8848E-03
      15-      1
      1            3.6065E-01  2.8618E-01 -6.2840E-01  1.5982E-02 -3.4230E-02 -2.1862E-02
      21-      1
      1            3.4794E-01  3.4324E-01 -6.9725E-01 -2.6376E-02  1.6024E-02  9.0664E-03
      22-      1
      1            3.5821E-01  3.4859E-01 -6.9739E-01 -1.3981E-02  2.9614E-02  4.1098E-02
      23-      1
      1            3.2845E-01  3.3471E-01 -6.5243E-01  2.5469E-02  2.6496E-02 -1.7614E-03
      53-      1
      1            3.7380E-01  4.0340E-01 -7.7430E-01  1.6529E-02  3.2832E-03 -1.0462E-02
      54-      1
      1            3.6014E-01  3.5930E-01 -7.1615E-01  2.8762E-03  4.2327E-02 -7.2679E-03
      55-      1
      1            3.1010E-01  2.8114E-01 -5.6191E-01 -1.8628E-02  6.1075E-02 -3.8574E-02
      93-      1
      1            3.9860E-01  3.1933E-01 -7.1663E-01 -9.8930E-03  1.1962E-03  1.6661E-03
      94-      1
      1            3.7593E-01  3.3767E-01 -7.1986E-01 -1.0464E-03 -5.5892E-03  1.5959E-02
      95-      1
      1            2.8769E-01  3.2806E-01 -6.1393E-01  3.6675E-03  9.2586E-03  1.1659E-03



 e l e m e n t   s t r e s s   c a l c u l a t i o n s   f o r   t i m e  s t e p     1149   ( at time 8.93641E+01 )

 element  materl
     ipt  stress       sig-xx      sig-yy      sig-zz      sig-xy      sig-yz      sig-zx                       yield
           state                                                                                  effsg      function
      13-      1
       1           4.9486E+07  4.4684E+07 -1.0367E+08  5.1392E+05  8.7642E+05 -5.1224E+06    1.5108E+08    3.7928E-01
      14-      1
       1           6.3910E+06  3.7604E+06 -1.7003E+08 -1.3247E+07 -1.4066E+06 -2.4054E+06    1.7668E+08    1.9183E-01
      15-      1
       1          -1.4770E+07 -1.3422E+07 -1.5522E+08 -3.5810E+06  1.6436E+06  2.8543E+06    1.4138E+08    2.3095E-01
      21-      1
       1           2.7189E+07  2.1742E+07 -1.3295E+08 -6.0021E+06 -5.7530E+05 -6.5935E+06    1.5825E+08    4.8600E-01
      22-      1
       1          -1.1588E+07 -1.8196E+07 -1.1330E+08  2.0810E+06 -1.0032E+07 -1.3232E+06    1.0018E+08    1.9737E-01
      23-      1
       1          -3.1806E+07 -3.9214E+07 -1.1625E+08  1.9384E+06 -1.3893E+07 -1.3209E+07    8.7604E+07    2.0323E-01
      53-      1
       1          -5.6722E+07 -4.9902E+07 -1.9338E+08 -8.6475E+05  3.1870E+05 -1.2343E+07    1.4182E+08    2.5433E-01
      54-      1
       1          -3.4139E+07 -7.7159E+06 -2.0426E+08  1.6939E+06  1.2489E+06 -1.6381E+07    1.8696E+08    3.0868E-01
      55-      1
       1          -1.2235E+08 -1.2079E+08 -2.5905E+08  9.3547E+05 -3.9689E+06 -1.5881E+07    1.4039E+08    2.4281E-01
      93-      1
       1          -3.4735E+07 -4.5357E+07 -2.4934E+08 -1.7884E+06 -5.3861E+05  1.3535E+06    2.0953E+08    5.5739E-01
      94-      1
       1          -1.5519E+08 -1.6112E+08 -4.1517E+08  8.3188E+06 -1.3895E+07 -3.9650E+06    2.5868E+08    4.3067E-01
      95-      1
       1          -4.3286E+07 -6.3965E+07 -2.4990E+08 -6.6895E+06 -5.1734E+06 -1.2709E+07    1.9885E+08    3.9382E-01



 e l e m e n t   s t r a i n   c a l c u l a t i o n s   f o r   t i m e  s t e p     1149   ( at time  8.93641E+01 )

 element  strain       eps-xx      eps-yy      eps-zz      eps-xy      eps-yz      eps-zx                            yield
 num/ipt   state
      13-      1
      1            3.7102E-01  3.7810E-01 -7.5370E-01 -1.2286E-02  5.4631E-03  3.1161E-03
      14-      1
      1            3.4607E-01  3.6823E-01 -7.1172E-01 -7.4984E-03  2.5349E-02  2.3285E-02
      15-      1
      1            3.7877E-01  3.0310E-01 -6.6815E-01  1.4608E-02 -2.6425E-02 -7.0278E-03
      21-      1
      1            3.6916E-01  3.6065E-01 -7.3408E-01 -2.7699E-02  1.7716E-02  1.0286E-02
      22-      1
      1            3.7705E-01  3.6117E-01 -7.2795E-01 -1.5528E-02  3.3685E-02  4.5906E-02
      23-      1
      1            3.4469E-01  3.4520E-01 -6.8245E-01  2.4418E-02  3.5312E-02  5.2970E-03
      53-      1
      1            3.9111E-01  4.2326E-01 -8.0919E-01  1.6465E-02  6.9324E-03 -5.1757E-03
      54-      1
      1            3.7381E-01  3.7697E-01 -7.4523E-01  2.0087E-03  4.9358E-02  1.5193E-03
      55-      1
      1            3.2674E-01  2.9541E-01 -5.9210E-01 -1.9890E-02  6.6654E-02 -2.7465E-02
      93-      1
      1            4.1540E-01  3.3317E-01 -7.4750E-01 -9.8979E-03  4.1516E-03  1.1900E-03
      94-      1
      1            3.9348E-01  3.5365E-01 -7.5437E-01  1.7593E-04  2.7701E-03  1.4179E-02
      95-      1
      1            3.0445E-01  3.4198E-01 -6.4491E-01  3.2281E-03  1.8913E-02 -2.9826E-04



 e l e m e n t   s t r e s s   c a l c u l a t i o n s   f o r   t i m e  s t e p     1161   ( at time 9.33358E+01 )

 element  materl
     ipt  stress       sig-xx      sig-yy      sig-zz      sig-xy      sig-yz      sig-zx                       yield
           state                                                                                  effsg      function
      13-      1
       1           5.5550E+07  4.9118E+07 -5.5545E+07 -2.5007E+06  1.2763E+06 -4.7809E+05    1.0814E+08    3.8826E-01
      14-      1
       1          -5.8332E+07 -6.3481E+07 -1.1041E+08 -2.2602E+06  1.9683E+06 -2.0571E+06    5.0098E+07    1.9777E-01
      15-      1
       1           1.2035E+07  1.2721E+07 -9.0968E+07 -1.2450E+05  6.6867E+06 -1.7502E+06    1.0404E+08    2.4068E-01
      21-      1
       1           5.3247E+07  4.8761E+07 -1.0892E+08 -7.6063E+06  5.3319E+06 -3.8530E+06    1.6092E+08    5.0097E-01
      22-      1
       1          -2.6005E+07 -2.9163E+07 -8.1724E+07  5.6464E+05 -2.9608E+06 -5.9897E+05    5.4470E+07    2.0280E-01
      23-      1
       1           9.8275E+06  5.1538E+06 -3.0155E+07 -1.8538E+05 -1.1491E+07 -4.2358E+06    4.3400E+07    2.0960E-01
      53-      1
       1          -6.2465E+07 -5.9502E+07 -1.5432E+08 -9.8430E+05 -1.9228E+06 -7.9253E+06    9.4452E+07    2.6643E-01
      54-      1
       1          -2.7706E+07 -1.2896E+07 -1.6473E+08  1.5147E+06 -1.3484E+06 -8.1933E+06    1.4574E+08    3.2373E-01
      55-      1
       1          -3.8951E+07 -3.8757E+07 -1.3465E+08  6.0214E+05  5.3928E+05 -8.9674E+06    9.7055E+07    2.5189E-01
      93-      1
       1          -7.0304E+07 -8.3055E+07 -2.9530E+08 -1.2095E+06 -4.1372E+06 -1.1431E+06    2.1903E+08    5.7993E-01
      94-      1
       1          -2.0171E+08 -2.1479E+08 -5.0322E+08 -3.2570E+05 -1.7207E+07 -8.1153E+06    2.9702E+08    4.6087E-01
      95-      1
       1           3.2848E+07  2.5847E+07 -1.9853E+08  4.2701E+05 -4.3674E+07 -2.3518E+07    2.4361E+08    4.1713E-01



 e l e m e n t   s t r a i n   c a l c u l a t i o n s   f o r   t i m e  s t e p     1161   ( at time  9.33358E+01 )

 element  strain       eps-xx      eps-yy      eps-zz      eps-xy      eps-yz      eps-zx                            yield
 num/ipt   state
      13-      1
      1            3.9120E-01  3.9534E-01 -7.9021E-01 -1.3342E-02  8.1992E-03  4.8085E-03
      14-      1
      1            3.6486E-01  3.8597E-01 -7.4832E-01 -9.4943E-03  3.4197E-02  3.6037E-02
      15-      1
      1            3.9922E-01  3.2232E-01 -7.1147E-01  1.4735E-02 -1.1798E-02  1.7695E-02
      21-      1
      1            3.9074E-01  3.7802E-01 -7.7268E-01 -2.9438E-02  1.8538E-02  1.3054E-02
      22-      1
      1            4.0179E-01  3.7734E-01 -7.6962E-01 -1.6538E-02  3.9473E-02  5.3882E-02
      23-      1
      1            3.6940E-01  3.6143E-01 -7.2361E-01  2.3733E-02  5.1092E-02  2.0042E-02
      53-      1
      1            4.1272E-01  4.4769E-01 -8.5335E-01  1.6477E-02  1.2358E-02 -5.2369E-03
      54-      1
      1            3.9392E-01  3.9758E-01 -7.8432E-01  8.7908E-04  6.3305E-02  6.2216E-03
      55-      1
      1            3.4435E-01  3.1158E-01 -6.2556E-01 -2.1943E-02  8.1220E-02 -1.5156E-02
      93-      1
      1            4.3863E-01  3.5161E-01 -7.9147E-01 -1.0237E-02  6.4158E-03  3.8881E-03
      94-      1
      1            4.1452E-01  3.7157E-01 -7.9613E-01 -3.3278E-04  9.8726E-03  1.7513E-02
      95-      1
      1            3.2265E-01  3.5847E-01 -6.8035E-01  3.2868E-03  3.7158E-02  2.6344E-03



 e l e m e n t   s t r e s s   c a l c u l a t i o n s   f o r   t i m e  s t e p     1167   ( at time 9.73074E+01 )

 element  materl
     ipt  stress       sig-xx      sig-yy      sig-zz      sig-xy      sig-yz      sig-zx                       yield
           state                                                                                  effsg      function
      13-      1
       1          -8.7500E+07 -8.9821E+07 -1.9822E+08 -3.7368E+05  3.3018E+05 -1.2785E+06    1.0960E+08    3.9359E-01
      14-      1
       1          -2.0002E+08 -2.0425E+08 -2.9596E+08 -3.8312E+04 -1.8139E+06 -5.0680E+06    9.4356E+07    2.0236E-01
      15-      1
       1          -8.2714E+07 -8.4613E+07 -1.8633E+08  2.6405E+05  5.2800E+06  1.0406E+06    1.0310E+08    2.4565E-01
      21-      1
       1          -1.2514E+08 -1.3156E+08 -2.9191E+08  7.7112E+05 -1.6462E+05 -2.4805E+06    1.6371E+08    5.0915E-01
      22-      1
       1          -8.6680E+07 -8.8174E+07 -1.4131E+08  2.6601E+06 -4.8282E+06 -9.8854E+05    5.4762E+07    2.0554E-01
      23-      1
       1          -1.2829E+08 -1.2829E+08 -1.2829E+08  0.0000E+00  0.0000E+00  0.0000E+00    0.0000E+00    2.0960E-01
      53-      1
       1          -1.6923E+08 -1.6669E+08 -2.6344E+08 -6.5168E+05 -6.8814E+05 -2.5710E+06    9.5621E+07    2.7185E-01
      54-      1
       1          -2.3412E+08 -2.3093E+08 -3.3121E+08  6.8108E+05 -2.1898E+05 -3.6743E+06    9.8933E+07    3.2838E-01
      55-      1
       1          -2.0001E+08 -1.9932E+08 -3.4226E+08 -8.2295E+05 -2.1942E+06 -1.4215E+07    1.4476E+08    2.5918E-01
      93-      1
       1          -7.2645E+07 -6.3575E+07 -2.8871E+08  3.4498E+06 -4.8485E+06 -1.0698E+06    2.2099E+08    5.9365E-01
      94-      1
       1          -2.0613E+08 -2.0482E+08 -4.6684E+08  4.5365E+06 -1.9470E+07 -2.7587E+06    2.6369E+08    4.7655E-01
      95-      1
       1          -1.2409E+08 -1.2519E+08 -2.6375E+08  1.1603E+06 -2.0160E+07 -8.2157E+06    1.4415E+08    4.2646E-01



 e l e m e n t   s t r a i n   c a l c u l a t i o n s   f o r   t i m e  s t e p     1167   ( at time  9.73074E+01 )

 element  strain       eps-xx      eps-yy      eps-zz      eps-xy      eps-yz      eps-zx                            yield
 num/ipt   state
      13-      1
      1            4.0036E-01  4.0405E-01 -8.1324E-01 -1.3282E-02  8.6256E-03  5.4215E-03
      14-      1
      1            3.7401E-01  3.9412E-01 -7.6776E-01 -9.7931E-03  3.7518E-02  4.1858E-02
      15-      1
      1            4.0823E-01  3.3081E-01 -7.3302E-01  1.4564E-02 -4.9084E-03  2.9141E-02
      21-      1
      1            4.0035E-01  3.8611E-01 -7.9665E-01 -2.9110E-02  1.8650E-02  1.3319E-02
      22-      1
      1            4.1171E-01  3.8593E-01 -7.9082E-01 -1.5991E-02  4.1305E-02  5.6763E-02
      23-      1
      1            3.7954E-01  3.6954E-01 -7.4681E-01  2.3687E-02  5.5059E-02  2.6021E-02
      53-      1
      1            4.2184E-01  4.5726E-01 -8.7723E-01  1.6200E-02  1.3479E-02 -4.1780E-03
      54-      1
      1            4.0267E-01  4.0643E-01 -8.0564E-01  2.9513E-04  6.5940E-02  9.7650E-03
      55-      1
      1            3.5307E-01  3.1886E-01 -6.4397E-01 -2.3179E-02  8.4661E-02 -4.8571E-03
      93-      1
      1            4.5127E-01  3.6474E-01 -8.1815E-01 -1.0081E-02  6.1829E-03  4.9736E-03
      94-      1
      1            4.2667E-01  3.8404E-01 -8.2191E-01  2.7909E-04  7.4002E-03  2.0219E-02
      95-      1
      1            3.3353E-01  3.6950E-01 -7.0353E-01  3.6466E-03  3.6962E-02  6.2593E-03



 e l e m e n t   s t r e s s   c a l c u l a t i o n s   f o r   t i m e  s t e p     1175   ( at time 1.00000E+02 )

 element  materl
     ipt  stress       sig-xx      sig-yy      sig-zz      sig-xy      sig-yz      sig-zx                       yield
           state                                                                                  effsg      function
      13-      1
       1           2.5834E+07  1.7732E+07 -1.7275E+08 -4.5624E+06 -2.5232E+06 -4.0789E+06    1.9500E+08    4.0455E-01
      14-      1
       1          -5.7932E+07 -6.5988E+07 -2.7688E+08 -9.3660E+06 -1.0489E+07 -4.1840E+06    2.1653E+08    2.1575E-01
      15-      1
       1          -4.1800E+07 -3.5577E+07 -1.8232E+08 -4.9964E+06  2.4610E+06  1.2136E+07    1.4559E+08    2.5457E-01
      21-      1
       1           3.1113E+07  1.8659E+07 -1.8030E+08 -3.3715E+06 -3.5580E+06  1.2882E+06    2.0565E+08    5.2213E-01
      22-      1
       1           1.2486E+07  4.2463E+06 -1.2158E+08 -3.5459E+05 -7.4413E+06  3.6045E+05    1.3079E+08    2.1464E-01
      23-      1
       1          -2.0318E+06 -1.9077E+07 -1.2925E+08 -4.6463E+06 -1.5893E+07 -9.0843E+06    1.2400E+08    2.1700E-01
      53-      1
       1          -1.1841E+08 -1.1367E+08 -2.5832E+08 -2.6389E+06  2.8231E+05 -4.8151E+06    1.4266E+08    2.8251E-01
      54-      1
       1          -9.6978E+07 -7.4396E+07 -2.7567E+08 -2.2155E+06  1.8597E+06 -1.6327E+07    1.9314E+08    3.3937E-01
      55-      1
       1          -2.1049E+08 -1.9793E+08 -3.3549E+08  3.1010E+06 -7.8890E+06 -1.2829E+07    1.3439E+08    2.6808E-01
      93-      1
       1          -9.9461E+06 -2.2420E+07 -2.3906E+08  1.7050E+06 -2.2057E+06  1.4649E+06    2.2321E+08    6.0677E-01
      94-      1
       1          -6.8921E+07 -7.9138E+07 -3.7111E+08  4.4646E+06 -1.7638E+07  5.7672E+06    2.9904E+08    4.9819E-01
      95-      1
       1          -4.8652E+07 -5.8420E+07 -1.9554E+08  3.1830E+06 -1.7120E+07 -8.2708E+06    1.4612E+08    4.3710E-01



 e l e m e n t   s t r a i n   c a l c u l a t i o n s   f o r   t i m e  s t e p     1175   ( at time  1.00000E+02 )

 element  strain       eps-xx      eps-yy      eps-zz      eps-xy      eps-yz      eps-zx                            yield
 num/ipt   state
      13-      1
      1            4.1356E-01  4.1487E-01 -8.3570E-01 -1.3767E-02  9.6983E-03  8.6153E-03
      14-      1
      1            3.8640E-01  4.0419E-01 -7.8821E-01 -1.1503E-02  4.0043E-02  5.1641E-02
      15-      1
      1            4.1978E-01  3.4272E-01 -7.5706E-01  1.2656E-02  5.0094E-04  4.0350E-02
      21-      1
      1            4.1675E-01  3.9808E-01 -8.2252E-01 -2.9626E-02  1.8024E-02  1.2753E-02
      22-      1
      1            4.2688E-01  3.9658E-01 -8.1565E-01 -1.6700E-02  4.1421E-02  5.7470E-02
      23-      1
      1            3.9419E-01  3.7863E-01 -7.6800E-01  2.2670E-02  5.7680E-02  3.1952E-02
      53-      1
      1            4.3377E-01  4.7285E-01 -9.0265E-01  1.5157E-02  1.6471E-02 -5.0378E-04
      54-      1
      1            4.1355E-01  4.2049E-01 -8.2685E-01 -9.3109E-04  7.1949E-02  1.5010E-02
      55-      1
      1            3.6436E-01  3.3024E-01 -6.6568E-01 -2.4605E-02  9.1317E-02  1.0613E-03
      93-      1
      1            4.6615E-01  3.7687E-01 -8.4390E-01 -9.7134E-03  5.7683E-03  4.6346E-03
      94-      1
      1            4.4231E-01  3.9755E-01 -8.4936E-01  7.3144E-04  7.2050E-03  1.9749E-02
      95-      1
      1            3.4855E-01  3.8168E-01 -7.2786E-01  3.9880E-03  4.1243E-02  9.2612E-03
