 LS-DYNA keyword deck by LS-PrePost                                      
                    ls-dyna smp d R14 R14.1.1s_1_ef50e1 date 06/16/2024

 n o d a l   f o r c e/e n e r g y    o u t p u t  t=   0.00000E+00

 velocity boundary condition forces/rigid body moments 

 nd#     167  xforce=   0.0000E+00   yforce=   0.0000E+00  zforce=   0.0000E+00   energy=   0.0000E+00   setid =     167 xmoment=   0.0000E+00 ymoment=   0.0000E+00 zmoment=   0.0000E+00
 nd#     168  xforce=   0.0000E+00   yforce=   0.0000E+00  zforce=   0.0000E+00   energy=   0.0000E+00   setid =     168 xmoment=   0.0000E+00 ymoment=   0.0000E+00 zmoment=   0.0000E+00
 nd#     169  xforce=   0.0000E+00   yforce=   0.0000E+00  zforce=   0.0000E+00   energy=   0.0000E+00   setid =     169 xmoment=   0.0000E+00 ymoment=   0.0000E+00 zmoment=   0.0000E+00
 nd#     170  xforce=   0.0000E+00   yforce=   0.0000E+00  zforce=   0.0000E+00   energy=   0.0000E+00   setid =     170 xmoment=   0.0000E+00 ymoment=   0.0000E+00 zmoment=   0.0000E+00
 nd#     197  xforce=   0.0000E+00   yforce=   0.0000E+00  zforce=   0.0000E+00   energy=   0.0000E+00   setid =     197 xmoment=   0.0000E+00 ymoment=   0.0000E+00 zmoment=   0.0000E+00
 nd#     198  xforce=   0.0000E+00   yforce=   0.0000E+00  zforce=   0.0000E+00   energy=   0.0000E+00   setid =     198 xmoment=   0.0000E+00 ymoment=   0.0000E+00 zmoment=   0.0000E+00
 nd#     280  xforce=   0.0000E+00   yforce=   0.0000E+00  zforce=   0.0000E+00   energy=   0.0000E+00   setid =     280 xmoment=   0.0000E+00 ymoment=   0.0000E+00 zmoment=   0.0000E+00
 nd#     323  xforce=   0.0000E+00   yforce=   0.0000E+00  zforce=   0.0000E+00   energy=   0.0000E+00   setid =     323 xmoment=   0.0000E+00 ymoment=   0.0000E+00 zmoment=   0.0000E+00
 nd#     324  xforce=   0.0000E+00   yforce=   0.0000E+00  zforce=   0.0000E+00   energy=   0.0000E+00   setid =     324 xmoment=   0.0000E+00 ymoment=   0.0000E+00 zmoment=   0.0000E+00
 nd#     338  xforce=   0.0000E+00   yforce=   0.0000E+00  zforce=   0.0000E+00   energy=   0.0000E+00   setid =     338 xmoment=   0.0000E+00 ymoment=   0.0000E+00 zmoment=   0.0000E+00
 nd#     804  xforce=   0.0000E+00   yforce=   0.0000E+00  zforce=   0.0000E+00   energy=   0.0000E+00   setid =     804 xmoment=   0.0000E+00 ymoment=   0.0000E+00 zmoment=   0.0000E+00
 nd#     806  xforce=   0.0000E+00   yforce=   0.0000E+00  zforce=   0.0000E+00   energy=   0.0000E+00   setid =     806 xmoment=   0.0000E+00 ymoment=   0.0000E+00 zmoment=   0.0000E+00
 nd#     808  xforce=   0.0000E+00   yforce=   0.0000E+00  zforce=   0.0000E+00   energy=   0.0000E+00   setid =     808 xmoment=   0.0000E+00 ymoment=   0.0000E+00 zmoment=   0.0000E+00
 nd#     852  xforce=   0.0000E+00   yforce=   0.0000E+00  zforce=   0.0000E+00   energy=   0.0000E+00   setid =     852 xmoment=   0.0000E+00 ymoment=   0.0000E+00 zmoment=   0.0000E+00
 nd#     854  xforce=   0.0000E+00   yforce=   0.0000E+00  zforce=   0.0000E+00   energy=   0.0000E+00   setid =     854 xmoment=   0.0000E+00 ymoment=   0.0000E+00 zmoment=   0.0000E+00
 nd#     856  xforce=   0.0000E+00   yforce=   0.0000E+00  zforce=   0.0000E+00   energy=   0.0000E+00   setid =     856 xmoment=   0.0000E+00 ymoment=   0.0000E+00 zmoment=   0.0000E+00
 nd#     864  xforce=   0.0000E+00   yforce=   0.0000E+00  zforce=   0.0000E+00   energy=   0.0000E+00   setid =     864 xmoment=   0.0000E+00 ymoment=   0.0000E+00 zmoment=   0.0000E+00
 nd#     866  xforce=   0.0000E+00   yforce=   0.0000E+00  zforce=   0.0000E+00   energy=   0.0000E+00   setid =     866 xmoment=   0.0000E+00 ymoment=   0.0000E+00 zmoment=   0.0000E+00
 nd#     868  xforce=   0.0000E+00   yforce=   0.0000E+00  zforce=   0.0000E+00   energy=   0.0000E+00   setid =     868 xmoment=   0.0000E+00 ymoment=   0.0000E+00 zmoment=   0.0000E+00
 nd#     880  xforce=   0.0000E+00   yforce=   0.0000E+00  zforce=   0.0000E+00   energy=   0.0000E+00   setid =     880 xmoment=   0.0000E+00 ymoment=   0.0000E+00 zmoment=   0.0000E+00
 nd#     882  xforce=   0.0000E+00   yforce=   0.0000E+00  zforce=   0.0000E+00   energy=   0.0000E+00   setid =     882 xmoment=   0.0000E+00 ymoment=   0.0000E+00 zmoment=   0.0000E+00
 nd#     884  xforce=   0.0000E+00   yforce=   0.0000E+00  zforce=   0.0000E+00   energy=   0.0000E+00   setid =     884 xmoment=   0.0000E+00 ymoment=   0.0000E+00 zmoment=   0.0000E+00
              xtotal=   0.0000E+00   ytotal=   0.0000E+00  ztotal=   0.0000E+00   etotal=   0.0000E+00

 n o d a l   f o r c e/e n e r g y    o u t p u t  t=   1.29245E+00

 velocity boundary condition forces/rigid body moments 

 nd#     167  xforce=   0.0000E+00   yforce=   0.0000E+00  zforce=  -5.4771E+01   energy=   7.2235E-04   setid =     167 xmoment=   0.0000E+00 ymoment=   0.0000E+00 zmoment=   0.0000E+00
 nd#     168  xforce=   0.0000E+00   yforce=   0.0000E+00  zforce=  -2.8660E+01   energy=   3.8245E-04   setid =     168 xmoment=   0.0000E+00 ymoment=   0.0000E+00 zmoment=   0.0000E+00
 nd#     169  xforce=   0.0000E+00   yforce=   0.0000E+00  zforce=  -7.7004E+01   energy=   9.7764E-04   setid =     169 xmoment=   0.0000E+00 ymoment=   0.0000E+00 zmoment=   0.0000E+00
 nd#     170  xforce=   0.0000E+00   yforce=   0.0000E+00  zforce=  -8.5200E+01   energy=   1.0888E-03   setid =     170 xmoment=   0.0000E+00 ymoment=   0.0000E+00 zmoment=   0.0000E+00
 nd#     197  xforce=   0.0000E+00   yforce=   0.0000E+00  zforce=  -5.8651E+01   energy=   7.6430E-04   setid =     197 xmoment=   0.0000E+00 ymoment=   0.0000E+00 zmoment=   0.0000E+00
 nd#     198  xforce=   0.0000E+00   yforce=   0.0000E+00  zforce=  -7.7293E+01   energy=   9.9514E-04   setid =     198 xmoment=   0.0000E+00 ymoment=   0.0000E+00 zmoment=   0.0000E+00
 nd#     280  xforce=   0.0000E+00   yforce=   0.0000E+00  zforce=  -8.1218E+01   energy=   1.0246E-03   setid =     280 xmoment=   0.0000E+00 ymoment=   0.0000E+00 zmoment=   0.0000E+00
 nd#     323  xforce=   0.0000E+00   yforce=   0.0000E+00  zforce=  -9.1093E+01   energy=   1.1822E-03   setid =     323 xmoment=   0.0000E+00 ymoment=   0.0000E+00 zmoment=   0.0000E+00
 nd#     324  xforce=   0.0000E+00   yforce=   0.0000E+00  zforce=  -1.0607E+02   energy=   1.3718E-03   setid =     324 xmoment=   0.0000E+00 ymoment=   0.0000E+00 zmoment=   0.0000E+00
 nd#     338  xforce=   0.0000E+00   yforce=   0.0000E+00  zforce=  -1.2410E+02   energy=   1.5808E-03   setid =     338 xmoment=   0.0000E+00 ymoment=   0.0000E+00 zmoment=   0.0000E+00
 nd#     804  xforce=   0.0000E+00   yforce=   0.0000E+00  zforce=  -1.5048E+02   energy=   1.9331E-03   setid =     804 xmoment=   0.0000E+00 ymoment=   0.0000E+00 zmoment=   0.0000E+00
 nd#     806  xforce=   0.0000E+00   yforce=   0.0000E+00  zforce=  -1.1857E+02   energy=   1.5406E-03   setid =     806 xmoment=   0.0000E+00 ymoment=   0.0000E+00 zmoment=   0.0000E+00
 nd#     808  xforce=   0.0000E+00   yforce=   0.0000E+00  zforce=  -1.3791E+02   energy=   1.7892E-03   setid =     808 xmoment=   0.0000E+00 ymoment=   0.0000E+00 zmoment=   0.0000E+00
 nd#     852  xforce=   0.0000E+00   yforce=   0.0000E+00  zforce=  -1.6560E+02   energy=   2.1450E-03   setid =     852 xmoment=   0.0000E+00 ymoment=   0.0000E+00 zmoment=   0.0000E+00
 nd#     854  xforce=   0.0000E+00   yforce=   0.0000E+00  zforce=  -1.3538E+02   energy=   1.7613E-03   setid =     854 xmoment=   0.0000E+00 ymoment=   0.0000E+00 zmoment=   0.0000E+00
 nd#     856  xforce=   0.0000E+00   yforce=   0.0000E+00  zforce=  -1.5761E+02   energy=   2.0510E-03   setid =     856 xmoment=   0.0000E+00 ymoment=   0.0000E+00 zmoment=   0.0000E+00
 nd#     864  xforce=   0.0000E+00   yforce=   0.0000E+00  zforce=  -1.6423E+02   energy=   2.1462E-03   setid =     864 xmoment=   0.0000E+00 ymoment=   0.0000E+00 zmoment=   0.0000E+00
 nd#     866  xforce=   0.0000E+00   yforce=   0.0000E+00  zforce=  -1.3787E+02   energy=   1.7972E-03   setid =     866 xmoment=   0.0000E+00 ymoment=   0.0000E+00 zmoment=   0.0000E+00
 nd#     868  xforce=   0.0000E+00   yforce=   0.0000E+00  zforce=  -1.5713E+02   energy=   2.0598E-03   setid =     868 xmoment=   0.0000E+00 ymoment=   0.0000E+00 zmoment=   0.0000E+00
 nd#     880  xforce=   0.0000E+00   yforce=   0.0000E+00  zforce=  -3.9093E+01   energy=   5.2381E-04   setid =     880 xmoment=   0.0000E+00 ymoment=   0.0000E+00 zmoment=   0.0000E+00
 nd#     882  xforce=   0.0000E+00   yforce=   0.0000E+00  zforce=  -2.4504E+01   energy=   3.4472E-04   setid =     882 xmoment=   0.0000E+00 ymoment=   0.0000E+00 zmoment=   0.0000E+00
 nd#     884  xforce=   0.0000E+00   yforce=   0.0000E+00  zforce=  -1.9409E+01   energy=   3.0052E-04   setid =     884 xmoment=   0.0000E+00 ymoment=   0.0000E+00 zmoment=   0.0000E+00
              xtotal=   0.0000E+00   ytotal=   0.0000E+00  ztotal=  -2.1918E+03   etotal=   2.8482E-02

 n o d a l   f o r c e/e n e r g y    o u t p u t  t=   2.54839E+00

 velocity boundary condition forces/rigid body moments 

 nd#     167  xforce=   0.0000E+00   yforce=   0.0000E+00  zforce=  -5.3199E+01   energy=   2.0784E-03   setid =     167 xmoment=   0.0000E+00 ymoment=   0.0000E+00 zmoment=   0.0000E+00
 nd#     168  xforce=   0.0000E+00   yforce=   0.0000E+00  zforce=  -2.1795E+01   energy=   1.0161E-03   setid =     168 xmoment=   0.0000E+00 ymoment=   0.0000E+00 zmoment=   0.0000E+00
 nd#     169  xforce=   0.0000E+00   yforce=   0.0000E+00  zforce=  -5.4621E+01   energy=   2.6308E-03   setid =     169 xmoment=   0.0000E+00 ymoment=   0.0000E+00 zmoment=   0.0000E+00
 nd#     170  xforce=   0.0000E+00   yforce=   0.0000E+00  zforce=  -1.1890E+02   energy=   3.6522E-03   setid =     170 xmoment=   0.0000E+00 ymoment=   0.0000E+00 zmoment=   0.0000E+00
 nd#     197  xforce=   0.0000E+00   yforce=   0.0000E+00  zforce=  -1.4725E+02   energy=   3.3503E-03   setid =     197 xmoment=   0.0000E+00 ymoment=   0.0000E+00 zmoment=   0.0000E+00
 nd#     198  xforce=   0.0000E+00   yforce=   0.0000E+00  zforce=  -1.4527E+02   energy=   3.7904E-03   setid =     198 xmoment=   0.0000E+00 ymoment=   0.0000E+00 zmoment=   0.0000E+00
 nd#     280  xforce=   0.0000E+00   yforce=   0.0000E+00  zforce=  -1.8661E+02   energy=   4.3884E-03   setid =     280 xmoment=   0.0000E+00 ymoment=   0.0000E+00 zmoment=   0.0000E+00
 nd#     323  xforce=   0.0000E+00   yforce=   0.0000E+00  zforce=  -1.2699E+02   energy=   3.9212E-03   setid =     323 xmoment=   0.0000E+00 ymoment=   0.0000E+00 zmoment=   0.0000E+00
 nd#     324  xforce=   0.0000E+00   yforce=   0.0000E+00  zforce=  -1.7061E+02   energy=   4.8468E-03   setid =     324 xmoment=   0.0000E+00 ymoment=   0.0000E+00 zmoment=   0.0000E+00
 nd#     338  xforce=   0.0000E+00   yforce=   0.0000E+00  zforce=  -1.9007E+02   energy=   5.5266E-03   setid =     338 xmoment=   0.0000E+00 ymoment=   0.0000E+00 zmoment=   0.0000E+00
 nd#     804  xforce=   0.0000E+00   yforce=   0.0000E+00  zforce=  -1.8961E+02   energy=   6.2044E-03   setid =     804 xmoment=   0.0000E+00 ymoment=   0.0000E+00 zmoment=   0.0000E+00
 nd#     806  xforce=   0.0000E+00   yforce=   0.0000E+00  zforce=  -1.5174E+02   energy=   4.9356E-03   setid =     806 xmoment=   0.0000E+00 ymoment=   0.0000E+00 zmoment=   0.0000E+00
 nd#     808  xforce=   0.0000E+00   yforce=   0.0000E+00  zforce=  -1.8328E+02   energy=   5.8231E-03   setid =     808 xmoment=   0.0000E+00 ymoment=   0.0000E+00 zmoment=   0.0000E+00
 nd#     852  xforce=   0.0000E+00   yforce=   0.0000E+00  zforce=  -1.6128E+02   energy=   6.2504E-03   setid =     852 xmoment=   0.0000E+00 ymoment=   0.0000E+00 zmoment=   0.0000E+00
 nd#     854  xforce=   0.0000E+00   yforce=   0.0000E+00  zforce=  -1.5816E+02   energy=   5.4480E-03   setid =     854 xmoment=   0.0000E+00 ymoment=   0.0000E+00 zmoment=   0.0000E+00
 nd#     856  xforce=   0.0000E+00   yforce=   0.0000E+00  zforce=  -1.7983E+02   energy=   6.2891E-03   setid =     856 xmoment=   0.0000E+00 ymoment=   0.0000E+00 zmoment=   0.0000E+00
 nd#     864  xforce=   0.0000E+00   yforce=   0.0000E+00  zforce=  -9.9381E+01   energy=   5.4569E-03   setid =     864 xmoment=   0.0000E+00 ymoment=   0.0000E+00 zmoment=   0.0000E+00
 nd#     866  xforce=   0.0000E+00   yforce=   0.0000E+00  zforce=  -1.4492E+02   energy=   5.3488E-03   setid =     866 xmoment=   0.0000E+00 ymoment=   0.0000E+00 zmoment=   0.0000E+00
 nd#     868  xforce=   0.0000E+00   yforce=   0.0000E+00  zforce=  -1.2315E+02   energy=   5.5799E-03   setid =     868 xmoment=   0.0000E+00 ymoment=   0.0000E+00 zmoment=   0.0000E+00
 nd#     880  xforce=   0.0000E+00   yforce=   0.0000E+00  zforce=   2.4330E+00   energy=   9.8424E-04   setid =     880 xmoment=   0.0000E+00 ymoment=   0.0000E+00 zmoment=   0.0000E+00
 nd#     882  xforce=   0.0000E+00   yforce=   0.0000E+00  zforce=  -3.6282E+00   energy=   6.9804E-04   setid =     882 xmoment=   0.0000E+00 ymoment=   0.0000E+00 zmoment=   0.0000E+00
 nd#     884  xforce=   0.0000E+00   yforce=   0.0000E+00  zforce=   5.9457E+01   energy=  -2.0246E-04   setid =     884 xmoment=   0.0000E+00 ymoment=   0.0000E+00 zmoment=   0.0000E+00
              xtotal=   0.0000E+00   ytotal=   0.0000E+00  ztotal=  -2.5484E+03   etotal=   8.8017E-02

 n o d a l   f o r c e/e n e r g y    o u t p u t  t=   3.80433E+00

 velocity boundary condition forces/rigid body moments 

 nd#     167  xforce=   0.0000E+00   yforce=   0.0000E+00  zforce=  -1.2132E+02   energy=   4.2702E-03   setid =     167 xmoment=   0.0000E+00 ymoment=   0.0000E+00 zmoment=   0.0000E+00
 nd#     168  xforce=   0.0000E+00   yforce=   0.0000E+00  zforce=  -8.1389E+01   energy=   2.3121E-03   setid =     168 xmoment=   0.0000E+00 ymoment=   0.0000E+00 zmoment=   0.0000E+00
 nd#     169  xforce=   0.0000E+00   yforce=   0.0000E+00  zforce=   5.9686E+01   energy=   2.5672E-03   setid =     169 xmoment=   0.0000E+00 ymoment=   0.0000E+00 zmoment=   0.0000E+00
 nd#     170  xforce=   0.0000E+00   yforce=   0.0000E+00  zforce=  -1.0404E+02   energy=   6.4521E-03   setid =     170 xmoment=   0.0000E+00 ymoment=   0.0000E+00 zmoment=   0.0000E+00
 nd#     197  xforce=   0.0000E+00   yforce=   0.0000E+00  zforce=  -2.2576E+02   energy=   8.0352E-03   setid =     197 xmoment=   0.0000E+00 ymoment=   0.0000E+00 zmoment=   0.0000E+00
 nd#     198  xforce=   0.0000E+00   yforce=   0.0000E+00  zforce=  -1.5163E+02   energy=   7.5192E-03   setid =     198 xmoment=   0.0000E+00 ymoment=   0.0000E+00 zmoment=   0.0000E+00
 nd#     280  xforce=   0.0000E+00   yforce=   0.0000E+00  zforce=  -1.8922E+02   energy=   9.1087E-03   setid =     280 xmoment=   0.0000E+00 ymoment=   0.0000E+00 zmoment=   0.0000E+00
 nd#     323  xforce=   0.0000E+00   yforce=   0.0000E+00  zforce=  -1.6808E+02   energy=   7.6270E-03   setid =     323 xmoment=   0.0000E+00 ymoment=   0.0000E+00 zmoment=   0.0000E+00
 nd#     324  xforce=   0.0000E+00   yforce=   0.0000E+00  zforce=  -1.8980E+02   energy=   9.3733E-03   setid =     324 xmoment=   0.0000E+00 ymoment=   0.0000E+00 zmoment=   0.0000E+00
 nd#     338  xforce=   0.0000E+00   yforce=   0.0000E+00  zforce=  -1.9638E+02   energy=   1.0380E-02   setid =     338 xmoment=   0.0000E+00 ymoment=   0.0000E+00 zmoment=   0.0000E+00
 nd#     804  xforce=   0.0000E+00   yforce=   0.0000E+00  zforce=  -2.0744E+02   energy=   1.1191E-02   setid =     804 xmoment=   0.0000E+00 ymoment=   0.0000E+00 zmoment=   0.0000E+00
 nd#     806  xforce=   0.0000E+00   yforce=   0.0000E+00  zforce=  -1.7846E+02   energy=   9.0827E-03   setid =     806 xmoment=   0.0000E+00 ymoment=   0.0000E+00 zmoment=   0.0000E+00
 nd#     808  xforce=   0.0000E+00   yforce=   0.0000E+00  zforce=  -2.0110E+02   energy=   1.0651E-02   setid =     808 xmoment=   0.0000E+00 ymoment=   0.0000E+00 zmoment=   0.0000E+00
 nd#     852  xforce=   0.0000E+00   yforce=   0.0000E+00  zforce=  -1.8603E+02   energy=   1.0612E-02   setid =     852 xmoment=   0.0000E+00 ymoment=   0.0000E+00 zmoment=   0.0000E+00
 nd#     854  xforce=   0.0000E+00   yforce=   0.0000E+00  zforce=  -1.7138E+02   energy=   9.5869E-03   setid =     854 xmoment=   0.0000E+00 ymoment=   0.0000E+00 zmoment=   0.0000E+00
 nd#     856  xforce=   0.0000E+00   yforce=   0.0000E+00  zforce=  -1.8990E+02   energy=   1.0933E-02   setid =     856 xmoment=   0.0000E+00 ymoment=   0.0000E+00 zmoment=   0.0000E+00
 nd#     864  xforce=   0.0000E+00   yforce=   0.0000E+00  zforce=  -1.2495E+02   energy=   8.2744E-03   setid =     864 xmoment=   0.0000E+00 ymoment=   0.0000E+00 zmoment=   0.0000E+00
 nd#     866  xforce=   0.0000E+00   yforce=   0.0000E+00  zforce=  -1.4241E+02   energy=   8.9574E-03   setid =     866 xmoment=   0.0000E+00 ymoment=   0.0000E+00 zmoment=   0.0000E+00
 nd#     868  xforce=   0.0000E+00   yforce=   0.0000E+00  zforce=  -1.2576E+02   energy=   8.7061E-03   setid =     868 xmoment=   0.0000E+00 ymoment=   0.0000E+00 zmoment=   0.0000E+00
 nd#     880  xforce=   0.0000E+00   yforce=   0.0000E+00  zforce=  -2.7656E+01   energy=   1.3010E-03   setid =     880 xmoment=   0.0000E+00 ymoment=   0.0000E+00 zmoment=   0.0000E+00
 nd#     882  xforce=   0.0000E+00   yforce=   0.0000E+00  zforce=  -6.9246E+00   energy=   8.3058E-04   setid =     882 xmoment=   0.0000E+00 ymoment=   0.0000E+00 zmoment=   0.0000E+00
 nd#     884  xforce=   0.0000E+00   yforce=   0.0000E+00  zforce=   1.6360E+01   energy=  -1.1547E-03   setid =     884 xmoment=   0.0000E+00 ymoment=   0.0000E+00 zmoment=   0.0000E+00
              xtotal=   0.0000E+00   ytotal=   0.0000E+00  ztotal=  -2.9136E+03   etotal=   1.5662E-01

 n o d a l   f o r c e/e n e r g y    o u t p u t  t=   5.06028E+00

 velocity boundary condition forces/rigid body moments 

 nd#     167  xforce=   0.0000E+00   yforce=   0.0000E+00  zforce=  -1.3558E+02   energy=   7.4967E-03   setid =     167 xmoment=   0.0000E+00 ymoment=   0.0000E+00 zmoment=   0.0000E+00
 nd#     168  xforce=   0.0000E+00   yforce=   0.0000E+00  zforce=  -8.7164E+01   energy=   4.4290E-03   setid =     168 xmoment=   0.0000E+00 ymoment=   0.0000E+00 zmoment=   0.0000E+00
 nd#     169  xforce=   0.0000E+00   yforce=   0.0000E+00  zforce=   7.5784E+01   energy=   8.6575E-04   setid =     169 xmoment=   0.0000E+00 ymoment=   0.0000E+00 zmoment=   0.0000E+00
 nd#     170  xforce=   0.0000E+00   yforce=   0.0000E+00  zforce=  -9.6543E+01   energy=   8.9713E-03   setid =     170 xmoment=   0.0000E+00 ymoment=   0.0000E+00 zmoment=   0.0000E+00
 nd#     197  xforce=   0.0000E+00   yforce=   0.0000E+00  zforce=  -2.5082E+02   energy=   1.4021E-02   setid =     197 xmoment=   0.0000E+00 ymoment=   0.0000E+00 zmoment=   0.0000E+00
 nd#     198  xforce=   0.0000E+00   yforce=   0.0000E+00  zforce=  -1.7130E+02   energy=   1.1575E-02   setid =     198 xmoment=   0.0000E+00 ymoment=   0.0000E+00 zmoment=   0.0000E+00
 nd#     280  xforce=   0.0000E+00   yforce=   0.0000E+00  zforce=  -2.0311E+02   energy=   1.4036E-02   setid =     280 xmoment=   0.0000E+00 ymoment=   0.0000E+00 zmoment=   0.0000E+00
 nd#     323  xforce=   0.0000E+00   yforce=   0.0000E+00  zforce=  -1.8977E+02   energy=   1.2121E-02   setid =     323 xmoment=   0.0000E+00 ymoment=   0.0000E+00 zmoment=   0.0000E+00
 nd#     324  xforce=   0.0000E+00   yforce=   0.0000E+00  zforce=  -2.0812E+02   energy=   1.4371E-02   setid =     324 xmoment=   0.0000E+00 ymoment=   0.0000E+00 zmoment=   0.0000E+00
 nd#     338  xforce=   0.0000E+00   yforce=   0.0000E+00  zforce=  -1.9830E+02   energy=   1.5337E-02   setid =     338 xmoment=   0.0000E+00 ymoment=   0.0000E+00 zmoment=   0.0000E+00
 nd#     804  xforce=   0.0000E+00   yforce=   0.0000E+00  zforce=  -2.1514E+02   energy=   1.6498E-02   setid =     804 xmoment=   0.0000E+00 ymoment=   0.0000E+00 zmoment=   0.0000E+00
 nd#     806  xforce=   0.0000E+00   yforce=   0.0000E+00  zforce=  -2.0337E+02   energy=   1.3878E-02   setid =     806 xmoment=   0.0000E+00 ymoment=   0.0000E+00 zmoment=   0.0000E+00
 nd#     808  xforce=   0.0000E+00   yforce=   0.0000E+00  zforce=  -2.1693E+02   energy=   1.5901E-02   setid =     808 xmoment=   0.0000E+00 ymoment=   0.0000E+00 zmoment=   0.0000E+00
 nd#     852  xforce=   0.0000E+00   yforce=   0.0000E+00  zforce=  -1.8958E+02   energy=   1.5330E-02   setid =     852 xmoment=   0.0000E+00 ymoment=   0.0000E+00 zmoment=   0.0000E+00
 nd#     854  xforce=   0.0000E+00   yforce=   0.0000E+00  zforce=  -1.9344E+02   energy=   1.4169E-02   setid =     854 xmoment=   0.0000E+00 ymoment=   0.0000E+00 zmoment=   0.0000E+00
 nd#     856  xforce=   0.0000E+00   yforce=   0.0000E+00  zforce=  -2.0395E+02   energy=   1.5879E-02   setid =     856 xmoment=   0.0000E+00 ymoment=   0.0000E+00 zmoment=   0.0000E+00
 nd#     864  xforce=   0.0000E+00   yforce=   0.0000E+00  zforce=  -1.2125E+02   energy=   1.1367E-02   setid =     864 xmoment=   0.0000E+00 ymoment=   0.0000E+00 zmoment=   0.0000E+00
 nd#     866  xforce=   0.0000E+00   yforce=   0.0000E+00  zforce=  -1.5907E+02   energy=   1.2744E-02   setid =     866 xmoment=   0.0000E+00 ymoment=   0.0000E+00 zmoment=   0.0000E+00
 nd#     868  xforce=   0.0000E+00   yforce=   0.0000E+00  zforce=  -1.3246E+02   energy=   1.1949E-02   setid =     868 xmoment=   0.0000E+00 ymoment=   0.0000E+00 zmoment=   0.0000E+00
 nd#     880  xforce=   0.0000E+00   yforce=   0.0000E+00  zforce=  -3.4986E+01   energy=   2.0878E-03   setid =     880 xmoment=   0.0000E+00 ymoment=   0.0000E+00 zmoment=   0.0000E+00
 nd#     882  xforce=   0.0000E+00   yforce=   0.0000E+00  zforce=  -1.9627E+01   energy=   1.1641E-03   setid =     882 xmoment=   0.0000E+00 ymoment=   0.0000E+00 zmoment=   0.0000E+00
 nd#     884  xforce=   0.0000E+00   yforce=   0.0000E+00  zforce=   1.5454E+01   energy=  -1.5542E-03   setid =     884 xmoment=   0.0000E+00 ymoment=   0.0000E+00 zmoment=   0.0000E+00
              xtotal=   0.0000E+00   ytotal=   0.0000E+00  ztotal=  -3.1393E+03   etotal=   2.3264E-01

 n o d a l   f o r c e/e n e r g y    o u t p u t  t=   6.31622E+00

 velocity boundary condition forces/rigid body moments 

 nd#     167  xforce=   0.0000E+00   yforce=   0.0000E+00  zforce=  -1.5450E+02   energy=   1.1140E-02   setid =     167 xmoment=   0.0000E+00 ymoment=   0.0000E+00 zmoment=   0.0000E+00
 nd#     168  xforce=   0.0000E+00   yforce=   0.0000E+00  zforce=  -1.0256E+02   energy=   6.8119E-03   setid =     168 xmoment=   0.0000E+00 ymoment=   0.0000E+00 zmoment=   0.0000E+00
 nd#     169  xforce=   0.0000E+00   yforce=   0.0000E+00  zforce=   9.6283E+01   energy=  -1.2953E-03   setid =     169 xmoment=   0.0000E+00 ymoment=   0.0000E+00 zmoment=   0.0000E+00
 nd#     170  xforce=   0.0000E+00   yforce=   0.0000E+00  zforce=  -8.7146E+01   energy=   1.1278E-02   setid =     170 xmoment=   0.0000E+00 ymoment=   0.0000E+00 zmoment=   0.0000E+00
 nd#     197  xforce=   0.0000E+00   yforce=   0.0000E+00  zforce=  -2.6806E+02   energy=   2.0538E-02   setid =     197 xmoment=   0.0000E+00 ymoment=   0.0000E+00 zmoment=   0.0000E+00
 nd#     198  xforce=   0.0000E+00   yforce=   0.0000E+00  zforce=  -1.7355E+02   energy=   1.5906E-02   setid =     198 xmoment=   0.0000E+00 ymoment=   0.0000E+00 zmoment=   0.0000E+00
 nd#     280  xforce=   0.0000E+00   yforce=   0.0000E+00  zforce=  -1.9969E+02   energy=   1.9095E-02   setid =     280 xmoment=   0.0000E+00 ymoment=   0.0000E+00 zmoment=   0.0000E+00
 nd#     323  xforce=   0.0000E+00   yforce=   0.0000E+00  zforce=  -2.0836E+02   energy=   1.7122E-02   setid =     323 xmoment=   0.0000E+00 ymoment=   0.0000E+00 zmoment=   0.0000E+00
 nd#     324  xforce=   0.0000E+00   yforce=   0.0000E+00  zforce=  -2.1378E+02   energy=   1.9670E-02   setid =     324 xmoment=   0.0000E+00 ymoment=   0.0000E+00 zmoment=   0.0000E+00
 nd#     338  xforce=   0.0000E+00   yforce=   0.0000E+00  zforce=  -1.9316E+02   energy=   2.0254E-02   setid =     338 xmoment=   0.0000E+00 ymoment=   0.0000E+00 zmoment=   0.0000E+00
 nd#     804  xforce=   0.0000E+00   yforce=   0.0000E+00  zforce=  -2.1470E+02   energy=   2.1897E-02   setid =     804 xmoment=   0.0000E+00 ymoment=   0.0000E+00 zmoment=   0.0000E+00
 nd#     806  xforce=   0.0000E+00   yforce=   0.0000E+00  zforce=  -2.1970E+02   energy=   1.9192E-02   setid =     806 xmoment=   0.0000E+00 ymoment=   0.0000E+00 zmoment=   0.0000E+00
 nd#     808  xforce=   0.0000E+00   yforce=   0.0000E+00  zforce=  -2.2314E+02   energy=   2.1428E-02   setid =     808 xmoment=   0.0000E+00 ymoment=   0.0000E+00 zmoment=   0.0000E+00
 nd#     852  xforce=   0.0000E+00   yforce=   0.0000E+00  zforce=  -1.9022E+02   energy=   2.0100E-02   setid =     852 xmoment=   0.0000E+00 ymoment=   0.0000E+00 zmoment=   0.0000E+00
 nd#     854  xforce=   0.0000E+00   yforce=   0.0000E+00  zforce=  -2.0553E+02   energy=   1.9180E-02   setid =     854 xmoment=   0.0000E+00 ymoment=   0.0000E+00 zmoment=   0.0000E+00
 nd#     856  xforce=   0.0000E+00   yforce=   0.0000E+00  zforce=  -2.0745E+02   energy=   2.1046E-02   setid =     856 xmoment=   0.0000E+00 ymoment=   0.0000E+00 zmoment=   0.0000E+00
 nd#     864  xforce=   0.0000E+00   yforce=   0.0000E+00  zforce=  -1.1896E+02   energy=   1.4384E-02   setid =     864 xmoment=   0.0000E+00 ymoment=   0.0000E+00 zmoment=   0.0000E+00
 nd#     866  xforce=   0.0000E+00   yforce=   0.0000E+00  zforce=  -1.6486E+02   energy=   1.6812E-02   setid =     866 xmoment=   0.0000E+00 ymoment=   0.0000E+00 zmoment=   0.0000E+00
 nd#     868  xforce=   0.0000E+00   yforce=   0.0000E+00  zforce=  -1.2824E+02   energy=   1.5223E-02   setid =     868 xmoment=   0.0000E+00 ymoment=   0.0000E+00 zmoment=   0.0000E+00
 nd#     880  xforce=   0.0000E+00   yforce=   0.0000E+00  zforce=  -4.0519E+01   energy=   3.0361E-03   setid =     880 xmoment=   0.0000E+00 ymoment=   0.0000E+00 zmoment=   0.0000E+00
 nd#     882  xforce=   0.0000E+00   yforce=   0.0000E+00  zforce=  -2.9010E+01   energy=   1.7749E-03   setid =     882 xmoment=   0.0000E+00 ymoment=   0.0000E+00 zmoment=   0.0000E+00
 nd#     884  xforce=   0.0000E+00   yforce=   0.0000E+00  zforce=   1.1490E+01   energy=  -1.8927E-03   setid =     884 xmoment=   0.0000E+00 ymoment=   0.0000E+00 zmoment=   0.0000E+00
              xtotal=   0.0000E+00   ytotal=   0.0000E+00  ztotal=  -3.2354E+03   etotal=   3.1270E-01

 n o d a l   f o r c e/e n e r g y    o u t p u t  t=   7.57216E+00

 velocity boundary condition forces/rigid body moments 

 nd#     167  xforce=   0.0000E+00   yforce=   0.0000E+00  zforce=  -1.6895E+02   energy=   1.5202E-02   setid =     167 xmoment=   0.0000E+00 ymoment=   0.0000E+00 zmoment=   0.0000E+00
 nd#     168  xforce=   0.0000E+00   yforce=   0.0000E+00  zforce=  -1.1313E+02   energy=   9.5208E-03   setid =     168 xmoment=   0.0000E+00 ymoment=   0.0000E+00 zmoment=   0.0000E+00
 nd#     169  xforce=   0.0000E+00   yforce=   0.0000E+00  zforce=   1.1163E+02   energy=  -3.9065E-03   setid =     169 xmoment=   0.0000E+00 ymoment=   0.0000E+00 zmoment=   0.0000E+00
 nd#     170  xforce=   0.0000E+00   yforce=   0.0000E+00  zforce=  -7.8239E+01   energy=   1.3355E-02   setid =     170 xmoment=   0.0000E+00 ymoment=   0.0000E+00 zmoment=   0.0000E+00
 nd#     197  xforce=   0.0000E+00   yforce=   0.0000E+00  zforce=  -2.8142E+02   energy=   2.7439E-02   setid =     197 xmoment=   0.0000E+00 ymoment=   0.0000E+00 zmoment=   0.0000E+00
 nd#     198  xforce=   0.0000E+00   yforce=   0.0000E+00  zforce=  -1.7629E+02   energy=   2.0300E-02   setid =     198 xmoment=   0.0000E+00 ymoment=   0.0000E+00 zmoment=   0.0000E+00
 nd#     280  xforce=   0.0000E+00   yforce=   0.0000E+00  zforce=  -1.9078E+02   energy=   2.3999E-02   setid =     280 xmoment=   0.0000E+00 ymoment=   0.0000E+00 zmoment=   0.0000E+00
 nd#     323  xforce=   0.0000E+00   yforce=   0.0000E+00  zforce=  -2.2278E+02   energy=   2.2536E-02   setid =     323 xmoment=   0.0000E+00 ymoment=   0.0000E+00 zmoment=   0.0000E+00
 nd#     324  xforce=   0.0000E+00   yforce=   0.0000E+00  zforce=  -2.1794E+02   energy=   2.5092E-02   setid =     324 xmoment=   0.0000E+00 ymoment=   0.0000E+00 zmoment=   0.0000E+00
 nd#     338  xforce=   0.0000E+00   yforce=   0.0000E+00  zforce=  -1.8403E+02   energy=   2.4991E-02   setid =     338 xmoment=   0.0000E+00 ymoment=   0.0000E+00 zmoment=   0.0000E+00
 nd#     804  xforce=   0.0000E+00   yforce=   0.0000E+00  zforce=  -2.0971E+02   energy=   2.7227E-02   setid =     804 xmoment=   0.0000E+00 ymoment=   0.0000E+00 zmoment=   0.0000E+00
 nd#     806  xforce=   0.0000E+00   yforce=   0.0000E+00  zforce=  -2.3342E+02   energy=   2.4883E-02   setid =     806 xmoment=   0.0000E+00 ymoment=   0.0000E+00 zmoment=   0.0000E+00
 nd#     808  xforce=   0.0000E+00   yforce=   0.0000E+00  zforce=  -2.2683E+02   energy=   2.7079E-02   setid =     808 xmoment=   0.0000E+00 ymoment=   0.0000E+00 zmoment=   0.0000E+00
 nd#     852  xforce=   0.0000E+00   yforce=   0.0000E+00  zforce=  -1.8713E+02   energy=   2.4839E-02   setid =     852 xmoment=   0.0000E+00 ymoment=   0.0000E+00 zmoment=   0.0000E+00
 nd#     854  xforce=   0.0000E+00   yforce=   0.0000E+00  zforce=  -2.1518E+02   energy=   2.4464E-02   setid =     854 xmoment=   0.0000E+00 ymoment=   0.0000E+00 zmoment=   0.0000E+00
 nd#     856  xforce=   0.0000E+00   yforce=   0.0000E+00  zforce=  -2.0966E+02   energy=   2.6285E-02   setid =     856 xmoment=   0.0000E+00 ymoment=   0.0000E+00 zmoment=   0.0000E+00
 nd#     864  xforce=   0.0000E+00   yforce=   0.0000E+00  zforce=  -1.1470E+02   energy=   1.7318E-02   setid =     864 xmoment=   0.0000E+00 ymoment=   0.0000E+00 zmoment=   0.0000E+00
 nd#     866  xforce=   0.0000E+00   yforce=   0.0000E+00  zforce=  -1.7049E+02   energy=   2.1024E-02   setid =     866 xmoment=   0.0000E+00 ymoment=   0.0000E+00 zmoment=   0.0000E+00
 nd#     868  xforce=   0.0000E+00   yforce=   0.0000E+00  zforce=  -1.2625E+02   energy=   1.8420E-02   setid =     868 xmoment=   0.0000E+00 ymoment=   0.0000E+00 zmoment=   0.0000E+00
 nd#     880  xforce=   0.0000E+00   yforce=   0.0000E+00  zforce=  -4.6169E+01   energy=   4.1248E-03   setid =     880 xmoment=   0.0000E+00 ymoment=   0.0000E+00 zmoment=   0.0000E+00
 nd#     882  xforce=   0.0000E+00   yforce=   0.0000E+00  zforce=  -3.8177E+01   energy=   2.6187E-03   setid =     882 xmoment=   0.0000E+00 ymoment=   0.0000E+00 zmoment=   0.0000E+00
 nd#     884  xforce=   0.0000E+00   yforce=   0.0000E+00  zforce=   2.5655E+00   energy=  -2.0692E-03   setid =     884 xmoment=   0.0000E+00 ymoment=   0.0000E+00 zmoment=   0.0000E+00
              xtotal=   0.0000E+00   ytotal=   0.0000E+00  ztotal=  -3.2971E+03   etotal=   3.9474E-01

 n o d a l   f o r c e/e n e r g y    o u t p u t  t=   8.82811E+00

 velocity boundary condition forces/rigid body moments 

 nd#     167  xforce=   0.0000E+00   yforce=   0.0000E+00  zforce=  -1.7848E+02   energy=   1.9566E-02   setid =     167 xmoment=   0.0000E+00 ymoment=   0.0000E+00 zmoment=   0.0000E+00
 nd#     168  xforce=   0.0000E+00   yforce=   0.0000E+00  zforce=  -1.2044E+02   energy=   1.2454E-02   setid =     168 xmoment=   0.0000E+00 ymoment=   0.0000E+00 zmoment=   0.0000E+00
 nd#     169  xforce=   0.0000E+00   yforce=   0.0000E+00  zforce=   1.2506E+02   energy=  -6.8791E-03   setid =     169 xmoment=   0.0000E+00 ymoment=   0.0000E+00 zmoment=   0.0000E+00
 nd#     170  xforce=   0.0000E+00   yforce=   0.0000E+00  zforce=  -7.0281E+01   energy=   1.5221E-02   setid =     170 xmoment=   0.0000E+00 ymoment=   0.0000E+00 zmoment=   0.0000E+00
 nd#     197  xforce=   0.0000E+00   yforce=   0.0000E+00  zforce=  -2.8987E+02   energy=   3.4614E-02   setid =     197 xmoment=   0.0000E+00 ymoment=   0.0000E+00 zmoment=   0.0000E+00
 nd#     198  xforce=   0.0000E+00   yforce=   0.0000E+00  zforce=  -1.7583E+02   energy=   2.4722E-02   setid =     198 xmoment=   0.0000E+00 ymoment=   0.0000E+00 zmoment=   0.0000E+00
 nd#     280  xforce=   0.0000E+00   yforce=   0.0000E+00  zforce=  -1.8017E+02   energy=   2.8658E-02   setid =     280 xmoment=   0.0000E+00 ymoment=   0.0000E+00 zmoment=   0.0000E+00
 nd#     323  xforce=   0.0000E+00   yforce=   0.0000E+00  zforce=  -2.3078E+02   energy=   2.8233E-02   setid =     323 xmoment=   0.0000E+00 ymoment=   0.0000E+00 zmoment=   0.0000E+00
 nd#     324  xforce=   0.0000E+00   yforce=   0.0000E+00  zforce=  -2.1848E+02   energy=   3.0573E-02   setid =     324 xmoment=   0.0000E+00 ymoment=   0.0000E+00 zmoment=   0.0000E+00
 nd#     338  xforce=   0.0000E+00   yforce=   0.0000E+00  zforce=  -1.7360E+02   energy=   2.9483E-02   setid =     338 xmoment=   0.0000E+00 ymoment=   0.0000E+00 zmoment=   0.0000E+00
 nd#     804  xforce=   0.0000E+00   yforce=   0.0000E+00  zforce=  -2.0139E+02   energy=   3.2390E-02   setid =     804 xmoment=   0.0000E+00 ymoment=   0.0000E+00 zmoment=   0.0000E+00
 nd#     806  xforce=   0.0000E+00   yforce=   0.0000E+00  zforce=  -2.4061E+02   energy=   3.0836E-02   setid =     806 xmoment=   0.0000E+00 ymoment=   0.0000E+00 zmoment=   0.0000E+00
 nd#     808  xforce=   0.0000E+00   yforce=   0.0000E+00  zforce=  -2.2731E+02   energy=   3.2783E-02   setid =     808 xmoment=   0.0000E+00 ymoment=   0.0000E+00 zmoment=   0.0000E+00
 nd#     852  xforce=   0.0000E+00   yforce=   0.0000E+00  zforce=  -1.8080E+02   energy=   2.9460E-02   setid =     852 xmoment=   0.0000E+00 ymoment=   0.0000E+00 zmoment=   0.0000E+00
 nd#     854  xforce=   0.0000E+00   yforce=   0.0000E+00  zforce=  -2.1939E+02   energy=   2.9922E-02   setid =     854 xmoment=   0.0000E+00 ymoment=   0.0000E+00 zmoment=   0.0000E+00
 nd#     856  xforce=   0.0000E+00   yforce=   0.0000E+00  zforce=  -2.0800E+02   energy=   3.1530E-02   setid =     856 xmoment=   0.0000E+00 ymoment=   0.0000E+00 zmoment=   0.0000E+00
 nd#     864  xforce=   0.0000E+00   yforce=   0.0000E+00  zforce=  -1.0767E+02   energy=   2.0111E-02   setid =     864 xmoment=   0.0000E+00 ymoment=   0.0000E+00 zmoment=   0.0000E+00
 nd#     866  xforce=   0.0000E+00   yforce=   0.0000E+00  zforce=  -1.7155E+02   energy=   2.5320E-02   setid =     866 xmoment=   0.0000E+00 ymoment=   0.0000E+00 zmoment=   0.0000E+00
 nd#     868  xforce=   0.0000E+00   yforce=   0.0000E+00  zforce=  -1.2102E+02   energy=   2.1525E-02   setid =     868 xmoment=   0.0000E+00 ymoment=   0.0000E+00 zmoment=   0.0000E+00
 nd#     880  xforce=   0.0000E+00   yforce=   0.0000E+00  zforce=  -4.8429E+01   energy=   5.3129E-03   setid =     880 xmoment=   0.0000E+00 ymoment=   0.0000E+00 zmoment=   0.0000E+00
 nd#     882  xforce=   0.0000E+00   yforce=   0.0000E+00  zforce=  -4.4845E+01   energy=   3.6615E-03   setid =     882 xmoment=   0.0000E+00 ymoment=   0.0000E+00 zmoment=   0.0000E+00
 nd#     884  xforce=   0.0000E+00   yforce=   0.0000E+00  zforce=  -6.0911E+00   energy=  -2.0249E-03   setid =     884 xmoment=   0.0000E+00 ymoment=   0.0000E+00 zmoment=   0.0000E+00
              xtotal=   0.0000E+00   ytotal=   0.0000E+00  ztotal=  -3.2900E+03   etotal=   4.7747E-01

 n o d a l   f o r c e/e n e r g y    o u t p u t  t=   1.00840E+01

 velocity boundary condition forces/rigid body moments 

 nd#     167  xforce=   0.0000E+00   yforce=   0.0000E+00  zforce=  -1.8341E+02   energy=   2.4111E-02   setid =     167 xmoment=   0.0000E+00 ymoment=   0.0000E+00 zmoment=   0.0000E+00
 nd#     168  xforce=   0.0000E+00   yforce=   0.0000E+00  zforce=  -1.2412E+02   energy=   1.5526E-02   setid =     168 xmoment=   0.0000E+00 ymoment=   0.0000E+00 zmoment=   0.0000E+00
 nd#     169  xforce=   0.0000E+00   yforce=   0.0000E+00  zforce=   1.3276E+02   energy=  -1.0117E-02   setid =     169 xmoment=   0.0000E+00 ymoment=   0.0000E+00 zmoment=   0.0000E+00
 nd#     170  xforce=   0.0000E+00   yforce=   0.0000E+00  zforce=  -6.6030E+01   energy=   1.6933E-02   setid =     170 xmoment=   0.0000E+00 ymoment=   0.0000E+00 zmoment=   0.0000E+00
 nd#     197  xforce=   0.0000E+00   yforce=   0.0000E+00  zforce=  -2.9390E+02   energy=   4.1946E-02   setid =     197 xmoment=   0.0000E+00 ymoment=   0.0000E+00 zmoment=   0.0000E+00
 nd#     198  xforce=   0.0000E+00   yforce=   0.0000E+00  zforce=  -1.7493E+02   energy=   2.9128E-02   setid =     198 xmoment=   0.0000E+00 ymoment=   0.0000E+00 zmoment=   0.0000E+00
 nd#     280  xforce=   0.0000E+00   yforce=   0.0000E+00  zforce=  -1.7214E+02   energy=   3.3083E-02   setid =     280 xmoment=   0.0000E+00 ymoment=   0.0000E+00 zmoment=   0.0000E+00
 nd#     323  xforce=   0.0000E+00   yforce=   0.0000E+00  zforce=  -2.3455E+02   energy=   3.4077E-02   setid =     323 xmoment=   0.0000E+00 ymoment=   0.0000E+00 zmoment=   0.0000E+00
 nd#     324  xforce=   0.0000E+00   yforce=   0.0000E+00  zforce=  -2.1777E+02   energy=   3.6052E-02   setid =     324 xmoment=   0.0000E+00 ymoment=   0.0000E+00 zmoment=   0.0000E+00
 nd#     338  xforce=   0.0000E+00   yforce=   0.0000E+00  zforce=  -1.6734E+02   energy=   3.3765E-02   setid =     338 xmoment=   0.0000E+00 ymoment=   0.0000E+00 zmoment=   0.0000E+00
 nd#     804  xforce=   0.0000E+00   yforce=   0.0000E+00  zforce=  -1.9582E+02   energy=   3.7379E-02   setid =     804 xmoment=   0.0000E+00 ymoment=   0.0000E+00 zmoment=   0.0000E+00
 nd#     806  xforce=   0.0000E+00   yforce=   0.0000E+00  zforce=  -2.4425E+02   energy=   3.6926E-02   setid =     806 xmoment=   0.0000E+00 ymoment=   0.0000E+00 zmoment=   0.0000E+00
 nd#     808  xforce=   0.0000E+00   yforce=   0.0000E+00  zforce=  -2.2666E+02   energy=   3.8485E-02   setid =     808 xmoment=   0.0000E+00 ymoment=   0.0000E+00 zmoment=   0.0000E+00
 nd#     852  xforce=   0.0000E+00   yforce=   0.0000E+00  zforce=  -1.7634E+02   energy=   3.3946E-02   setid =     852 xmoment=   0.0000E+00 ymoment=   0.0000E+00 zmoment=   0.0000E+00
 nd#     854  xforce=   0.0000E+00   yforce=   0.0000E+00  zforce=  -2.2161E+02   energy=   3.5460E-02   setid =     854 xmoment=   0.0000E+00 ymoment=   0.0000E+00 zmoment=   0.0000E+00
 nd#     856  xforce=   0.0000E+00   yforce=   0.0000E+00  zforce=  -2.0599E+02   energy=   3.6730E-02   setid =     856 xmoment=   0.0000E+00 ymoment=   0.0000E+00 zmoment=   0.0000E+00
 nd#     864  xforce=   0.0000E+00   yforce=   0.0000E+00  zforce=  -1.0257E+02   energy=   2.2752E-02   setid =     864 xmoment=   0.0000E+00 ymoment=   0.0000E+00 zmoment=   0.0000E+00
 nd#     866  xforce=   0.0000E+00   yforce=   0.0000E+00  zforce=  -1.7160E+02   energy=   2.9629E-02   setid =     866 xmoment=   0.0000E+00 ymoment=   0.0000E+00 zmoment=   0.0000E+00
 nd#     868  xforce=   0.0000E+00   yforce=   0.0000E+00  zforce=  -1.1594E+02   energy=   2.4501E-02   setid =     868 xmoment=   0.0000E+00 ymoment=   0.0000E+00 zmoment=   0.0000E+00
 nd#     880  xforce=   0.0000E+00   yforce=   0.0000E+00  zforce=  -4.9419E+01   energy=   6.5418E-03   setid =     880 xmoment=   0.0000E+00 ymoment=   0.0000E+00 zmoment=   0.0000E+00
 nd#     882  xforce=   0.0000E+00   yforce=   0.0000E+00  zforce=  -4.8854E+01   energy=   4.8383E-03   setid =     882 xmoment=   0.0000E+00 ymoment=   0.0000E+00 zmoment=   0.0000E+00
 nd#     884  xforce=   0.0000E+00   yforce=   0.0000E+00  zforce=  -1.2064E+01   energy=  -1.7969E-03   setid =     884 xmoment=   0.0000E+00 ymoment=   0.0000E+00 zmoment=   0.0000E+00
              xtotal=   0.0000E+00   ytotal=   0.0000E+00  ztotal=  -3.2725E+03   etotal=   5.5989E-01

 n o d a l   f o r c e/e n e r g y    o u t p u t  t=   1.13400E+01

 velocity boundary condition forces/rigid body moments 

 nd#     167  xforce=   0.0000E+00   yforce=   0.0000E+00  zforce=  -1.9114E+02   energy=   2.8815E-02   setid =     167 xmoment=   0.0000E+00 ymoment=   0.0000E+00 zmoment=   0.0000E+00
 nd#     168  xforce=   0.0000E+00   yforce=   0.0000E+00  zforce=  -1.3254E+02   energy=   1.8750E-02   setid =     168 xmoment=   0.0000E+00 ymoment=   0.0000E+00 zmoment=   0.0000E+00
 nd#     169  xforce=   0.0000E+00   yforce=   0.0000E+00  zforce=   1.4977E+02   energy=  -1.3666E-02   setid =     169 xmoment=   0.0000E+00 ymoment=   0.0000E+00 zmoment=   0.0000E+00
 nd#     170  xforce=   0.0000E+00   yforce=   0.0000E+00  zforce=  -5.4538E+01   energy=   1.8447E-02   setid =     170 xmoment=   0.0000E+00 ymoment=   0.0000E+00 zmoment=   0.0000E+00
 nd#     197  xforce=   0.0000E+00   yforce=   0.0000E+00  zforce=  -2.9529E+02   energy=   4.9346E-02   setid =     197 xmoment=   0.0000E+00 ymoment=   0.0000E+00 zmoment=   0.0000E+00
 nd#     198  xforce=   0.0000E+00   yforce=   0.0000E+00  zforce=  -1.6519E+02   energy=   3.3399E-02   setid =     198 xmoment=   0.0000E+00 ymoment=   0.0000E+00 zmoment=   0.0000E+00
 nd#     280  xforce=   0.0000E+00   yforce=   0.0000E+00  zforce=  -1.4817E+02   energy=   3.7106E-02   setid =     280 xmoment=   0.0000E+00 ymoment=   0.0000E+00 zmoment=   0.0000E+00
 nd#     323  xforce=   0.0000E+00   yforce=   0.0000E+00  zforce=  -2.3223E+02   energy=   3.9940E-02   setid =     323 xmoment=   0.0000E+00 ymoment=   0.0000E+00 zmoment=   0.0000E+00
 nd#     324  xforce=   0.0000E+00   yforce=   0.0000E+00  zforce=  -2.0803E+02   energy=   4.1400E-02   setid =     324 xmoment=   0.0000E+00 ymoment=   0.0000E+00 zmoment=   0.0000E+00
 nd#     338  xforce=   0.0000E+00   yforce=   0.0000E+00  zforce=  -1.4998E+02   energy=   3.7750E-02   setid =     338 xmoment=   0.0000E+00 ymoment=   0.0000E+00 zmoment=   0.0000E+00
 nd#     804  xforce=   0.0000E+00   yforce=   0.0000E+00  zforce=  -1.8203E+02   energy=   4.2125E-02   setid =     804 xmoment=   0.0000E+00 ymoment=   0.0000E+00 zmoment=   0.0000E+00
 nd#     806  xforce=   0.0000E+00   yforce=   0.0000E+00  zforce=  -2.3768E+02   energy=   4.2978E-02   setid =     806 xmoment=   0.0000E+00 ymoment=   0.0000E+00 zmoment=   0.0000E+00
 nd#     808  xforce=   0.0000E+00   yforce=   0.0000E+00  zforce=  -2.1799E+02   energy=   4.4069E-02   setid =     808 xmoment=   0.0000E+00 ymoment=   0.0000E+00 zmoment=   0.0000E+00
 nd#     852  xforce=   0.0000E+00   yforce=   0.0000E+00  zforce=  -1.6780E+02   energy=   3.8268E-02   setid =     852 xmoment=   0.0000E+00 ymoment=   0.0000E+00 zmoment=   0.0000E+00
 nd#     854  xforce=   0.0000E+00   yforce=   0.0000E+00  zforce=  -2.1205E+02   energy=   4.0907E-02   setid =     854 xmoment=   0.0000E+00 ymoment=   0.0000E+00 zmoment=   0.0000E+00
 nd#     856  xforce=   0.0000E+00   yforce=   0.0000E+00  zforce=  -1.9742E+02   energy=   4.1796E-02   setid =     856 xmoment=   0.0000E+00 ymoment=   0.0000E+00 zmoment=   0.0000E+00
 nd#     864  xforce=   0.0000E+00   yforce=   0.0000E+00  zforce=  -9.8291E+01   energy=   2.5274E-02   setid =     864 xmoment=   0.0000E+00 ymoment=   0.0000E+00 zmoment=   0.0000E+00
 nd#     866  xforce=   0.0000E+00   yforce=   0.0000E+00  zforce=  -1.5783E+02   energy=   3.3767E-02   setid =     866 xmoment=   0.0000E+00 ymoment=   0.0000E+00 zmoment=   0.0000E+00
 nd#     868  xforce=   0.0000E+00   yforce=   0.0000E+00  zforce=  -1.0759E+02   energy=   2.7309E-02   setid =     868 xmoment=   0.0000E+00 ymoment=   0.0000E+00 zmoment=   0.0000E+00
 nd#     880  xforce=   0.0000E+00   yforce=   0.0000E+00  zforce=  -4.3935E+01   energy=   7.7143E-03   setid =     880 xmoment=   0.0000E+00 ymoment=   0.0000E+00 zmoment=   0.0000E+00
 nd#     882  xforce=   0.0000E+00   yforce=   0.0000E+00  zforce=  -4.7320E+01   energy=   6.0462E-03   setid =     882 xmoment=   0.0000E+00 ymoment=   0.0000E+00 zmoment=   0.0000E+00
 nd#     884  xforce=   0.0000E+00   yforce=   0.0000E+00  zforce=  -2.8309E+01   energy=  -1.2898E-03   setid =     884 xmoment=   0.0000E+00 ymoment=   0.0000E+00 zmoment=   0.0000E+00
              xtotal=   0.0000E+00   ytotal=   0.0000E+00  ztotal=  -3.1256E+03   etotal=   6.4025E-01

 n o d a l   f o r c e/e n e r g y    o u t p u t  t=   1.25959E+01

 velocity boundary condition forces/rigid body moments 

 nd#     167  xforce=   0.0000E+00   yforce=   0.0000E+00  zforce=  -1.8190E+02   energy=   3.3500E-02   setid =     167 xmoment=   0.0000E+00 ymoment=   0.0000E+00 zmoment=   0.0000E+00
 nd#     168  xforce=   0.0000E+00   yforce=   0.0000E+00  zforce=  -1.2188E+02   energy=   2.1945E-02   setid =     168 xmoment=   0.0000E+00 ymoment=   0.0000E+00 zmoment=   0.0000E+00
 nd#     169  xforce=   0.0000E+00   yforce=   0.0000E+00  zforce=   1.2998E+02   energy=  -1.7179E-02   setid =     169 xmoment=   0.0000E+00 ymoment=   0.0000E+00 zmoment=   0.0000E+00
 nd#     170  xforce=   0.0000E+00   yforce=   0.0000E+00  zforce=  -6.4098E+01   energy=   1.9937E-02   setid =     170 xmoment=   0.0000E+00 ymoment=   0.0000E+00 zmoment=   0.0000E+00
 nd#     197  xforce=   0.0000E+00   yforce=   0.0000E+00  zforce=  -2.9165E+02   energy=   5.6717E-02   setid =     197 xmoment=   0.0000E+00 ymoment=   0.0000E+00 zmoment=   0.0000E+00
 nd#     198  xforce=   0.0000E+00   yforce=   0.0000E+00  zforce=  -1.7420E+02   energy=   3.7662E-02   setid =     198 xmoment=   0.0000E+00 ymoment=   0.0000E+00 zmoment=   0.0000E+00
 nd#     280  xforce=   0.0000E+00   yforce=   0.0000E+00  zforce=  -1.6633E+02   energy=   4.1056E-02   setid =     280 xmoment=   0.0000E+00 ymoment=   0.0000E+00 zmoment=   0.0000E+00
 nd#     323  xforce=   0.0000E+00   yforce=   0.0000E+00  zforce=  -2.3400E+02   energy=   4.5795E-02   setid =     323 xmoment=   0.0000E+00 ymoment=   0.0000E+00 zmoment=   0.0000E+00
 nd#     324  xforce=   0.0000E+00   yforce=   0.0000E+00  zforce=  -2.1695E+02   energy=   4.6738E-02   setid =     324 xmoment=   0.0000E+00 ymoment=   0.0000E+00 zmoment=   0.0000E+00
 nd#     338  xforce=   0.0000E+00   yforce=   0.0000E+00  zforce=  -1.6581E+02   energy=   4.1716E-02   setid =     338 xmoment=   0.0000E+00 ymoment=   0.0000E+00 zmoment=   0.0000E+00
 nd#     804  xforce=   0.0000E+00   yforce=   0.0000E+00  zforce=  -1.9585E+02   energy=   4.6870E-02   setid =     804 xmoment=   0.0000E+00 ymoment=   0.0000E+00 zmoment=   0.0000E+00
 nd#     806  xforce=   0.0000E+00   yforce=   0.0000E+00  zforce=  -2.4376E+02   energy=   4.9025E-02   setid =     806 xmoment=   0.0000E+00 ymoment=   0.0000E+00 zmoment=   0.0000E+00
 nd#     808  xforce=   0.0000E+00   yforce=   0.0000E+00  zforce=  -2.2627E+02   energy=   4.9649E-02   setid =     808 xmoment=   0.0000E+00 ymoment=   0.0000E+00 zmoment=   0.0000E+00
 nd#     852  xforce=   0.0000E+00   yforce=   0.0000E+00  zforce=  -1.7729E+02   energy=   4.2602E-02   setid =     852 xmoment=   0.0000E+00 ymoment=   0.0000E+00 zmoment=   0.0000E+00
 nd#     854  xforce=   0.0000E+00   yforce=   0.0000E+00  zforce=  -2.2136E+02   energy=   4.6350E-02   setid =     854 xmoment=   0.0000E+00 ymoment=   0.0000E+00 zmoment=   0.0000E+00
 nd#     856  xforce=   0.0000E+00   yforce=   0.0000E+00  zforce=  -2.0557E+02   energy=   4.6858E-02   setid =     856 xmoment=   0.0000E+00 ymoment=   0.0000E+00 zmoment=   0.0000E+00
 nd#     864  xforce=   0.0000E+00   yforce=   0.0000E+00  zforce=  -1.0283E+02   energy=   2.7800E-02   setid =     864 xmoment=   0.0000E+00 ymoment=   0.0000E+00 zmoment=   0.0000E+00
 nd#     866  xforce=   0.0000E+00   yforce=   0.0000E+00  zforce=  -1.6878E+02   energy=   3.7869E-02   setid =     866 xmoment=   0.0000E+00 ymoment=   0.0000E+00 zmoment=   0.0000E+00
 nd#     868  xforce=   0.0000E+00   yforce=   0.0000E+00  zforce=  -1.1374E+02   energy=   3.0089E-02   setid =     868 xmoment=   0.0000E+00 ymoment=   0.0000E+00 zmoment=   0.0000E+00
 nd#     880  xforce=   0.0000E+00   yforce=   0.0000E+00  zforce=  -4.5866E+01   energy=   8.8422E-03   setid =     880 xmoment=   0.0000E+00 ymoment=   0.0000E+00 zmoment=   0.0000E+00
 nd#     882  xforce=   0.0000E+00   yforce=   0.0000E+00  zforce=  -4.7998E+01   energy=   7.2433E-03   setid =     882 xmoment=   0.0000E+00 ymoment=   0.0000E+00 zmoment=   0.0000E+00
 nd#     884  xforce=   0.0000E+00   yforce=   0.0000E+00  zforce=  -1.7516E+01   energy=  -7.1430E-04   setid =     884 xmoment=   0.0000E+00 ymoment=   0.0000E+00 zmoment=   0.0000E+00
              xtotal=   0.0000E+00   ytotal=   0.0000E+00  ztotal=  -3.2537E+03   etotal=   7.2037E-01

 n o d a l   f o r c e/e n e r g y    o u t p u t  t=   1.38519E+01

 velocity boundary condition forces/rigid body moments 

 nd#     167  xforce=   0.0000E+00   yforce=   0.0000E+00  zforce=  -1.8772E+02   energy=   3.8142E-02   setid =     167 xmoment=   0.0000E+00 ymoment=   0.0000E+00 zmoment=   0.0000E+00
 nd#     168  xforce=   0.0000E+00   yforce=   0.0000E+00  zforce=  -1.2952E+02   energy=   2.5102E-02   setid =     168 xmoment=   0.0000E+00 ymoment=   0.0000E+00 zmoment=   0.0000E+00
 nd#     169  xforce=   0.0000E+00   yforce=   0.0000E+00  zforce=   1.4791E+02   energy=  -2.0669E-02   setid =     169 xmoment=   0.0000E+00 ymoment=   0.0000E+00 zmoment=   0.0000E+00
 nd#     170  xforce=   0.0000E+00   yforce=   0.0000E+00  zforce=  -5.3474E+01   energy=   2.1414E-02   setid =     170 xmoment=   0.0000E+00 ymoment=   0.0000E+00 zmoment=   0.0000E+00
 nd#     197  xforce=   0.0000E+00   yforce=   0.0000E+00  zforce=  -2.9039E+02   energy=   6.4027E-02   setid =     197 xmoment=   0.0000E+00 ymoment=   0.0000E+00 zmoment=   0.0000E+00
 nd#     198  xforce=   0.0000E+00   yforce=   0.0000E+00  zforce=  -1.6277E+02   energy=   4.1894E-02   setid =     198 xmoment=   0.0000E+00 ymoment=   0.0000E+00 zmoment=   0.0000E+00
 nd#     280  xforce=   0.0000E+00   yforce=   0.0000E+00  zforce=  -1.4749E+02   energy=   4.4997E-02   setid =     280 xmoment=   0.0000E+00 ymoment=   0.0000E+00 zmoment=   0.0000E+00
 nd#     323  xforce=   0.0000E+00   yforce=   0.0000E+00  zforce=  -2.2958E+02   energy=   5.1618E-02   setid =     323 xmoment=   0.0000E+00 ymoment=   0.0000E+00 zmoment=   0.0000E+00
 nd#     324  xforce=   0.0000E+00   yforce=   0.0000E+00  zforce=  -2.0615E+02   energy=   5.2051E-02   setid =     324 xmoment=   0.0000E+00 ymoment=   0.0000E+00 zmoment=   0.0000E+00
 nd#     338  xforce=   0.0000E+00   yforce=   0.0000E+00  zforce=  -1.4723E+02   energy=   4.5648E-02   setid =     338 xmoment=   0.0000E+00 ymoment=   0.0000E+00 zmoment=   0.0000E+00
 nd#     804  xforce=   0.0000E+00   yforce=   0.0000E+00  zforce=  -1.7815E+02   energy=   5.1568E-02   setid =     804 xmoment=   0.0000E+00 ymoment=   0.0000E+00 zmoment=   0.0000E+00
 nd#     806  xforce=   0.0000E+00   yforce=   0.0000E+00  zforce=  -2.3528E+02   energy=   5.5041E-02   setid =     806 xmoment=   0.0000E+00 ymoment=   0.0000E+00 zmoment=   0.0000E+00
 nd#     808  xforce=   0.0000E+00   yforce=   0.0000E+00  zforce=  -2.1622E+02   energy=   5.5206E-02   setid =     808 xmoment=   0.0000E+00 ymoment=   0.0000E+00 zmoment=   0.0000E+00
 nd#     852  xforce=   0.0000E+00   yforce=   0.0000E+00  zforce=  -1.6407E+02   energy=   4.6889E-02   setid =     852 xmoment=   0.0000E+00 ymoment=   0.0000E+00 zmoment=   0.0000E+00
 nd#     854  xforce=   0.0000E+00   yforce=   0.0000E+00  zforce=  -2.1000E+02   energy=   5.1768E-02   setid =     854 xmoment=   0.0000E+00 ymoment=   0.0000E+00 zmoment=   0.0000E+00
 nd#     856  xforce=   0.0000E+00   yforce=   0.0000E+00  zforce=  -1.9574E+02   energy=   5.1898E-02   setid =     856 xmoment=   0.0000E+00 ymoment=   0.0000E+00 zmoment=   0.0000E+00
 nd#     864  xforce=   0.0000E+00   yforce=   0.0000E+00  zforce=  -9.5077E+01   energy=   3.0286E-02   setid =     864 xmoment=   0.0000E+00 ymoment=   0.0000E+00 zmoment=   0.0000E+00
 nd#     866  xforce=   0.0000E+00   yforce=   0.0000E+00  zforce=  -1.5650E+02   energy=   4.1954E-02   setid =     866 xmoment=   0.0000E+00 ymoment=   0.0000E+00 zmoment=   0.0000E+00
 nd#     868  xforce=   0.0000E+00   yforce=   0.0000E+00  zforce=  -1.0683E+02   energy=   3.2859E-02   setid =     868 xmoment=   0.0000E+00 ymoment=   0.0000E+00 zmoment=   0.0000E+00
 nd#     880  xforce=   0.0000E+00   yforce=   0.0000E+00  zforce=  -4.3753E+01   energy=   9.9677E-03   setid =     880 xmoment=   0.0000E+00 ymoment=   0.0000E+00 zmoment=   0.0000E+00
 nd#     882  xforce=   0.0000E+00   yforce=   0.0000E+00  zforce=  -4.7572E+01   energy=   8.4436E-03   setid =     882 xmoment=   0.0000E+00 ymoment=   0.0000E+00 zmoment=   0.0000E+00
 nd#     884  xforce=   0.0000E+00   yforce=   0.0000E+00  zforce=  -2.8841E+01   energy=  -1.3209E-04   setid =     884 xmoment=   0.0000E+00 ymoment=   0.0000E+00 zmoment=   0.0000E+00
              xtotal=   0.0000E+00   ytotal=   0.0000E+00  ztotal=  -3.0844E+03   etotal=   7.9997E-01

 n o d a l   f o r c e/e n e r g y    o u t p u t  t=   1.51078E+01

 velocity boundary condition forces/rigid body moments 

 nd#     167  xforce=   0.0000E+00   yforce=   0.0000E+00  zforce=  -1.8042E+02   energy=   4.2766E-02   setid =     167 xmoment=   0.0000E+00 ymoment=   0.0000E+00 zmoment=   0.0000E+00
 nd#     168  xforce=   0.0000E+00   yforce=   0.0000E+00  zforce=  -1.2382E+02   energy=   2.8284E-02   setid =     168 xmoment=   0.0000E+00 ymoment=   0.0000E+00 zmoment=   0.0000E+00
 nd#     169  xforce=   0.0000E+00   yforce=   0.0000E+00  zforce=   1.5001E+02   energy=  -2.4411E-02   setid =     169 xmoment=   0.0000E+00 ymoment=   0.0000E+00 zmoment=   0.0000E+00
 nd#     170  xforce=   0.0000E+00   yforce=   0.0000E+00  zforce=  -4.4824E+01   energy=   2.2648E-02   setid =     170 xmoment=   0.0000E+00 ymoment=   0.0000E+00 zmoment=   0.0000E+00
 nd#     197  xforce=   0.0000E+00   yforce=   0.0000E+00  zforce=  -2.7859E+02   energy=   7.1174E-02   setid =     197 xmoment=   0.0000E+00 ymoment=   0.0000E+00 zmoment=   0.0000E+00
 nd#     198  xforce=   0.0000E+00   yforce=   0.0000E+00  zforce=  -1.5371E+02   energy=   4.5869E-02   setid =     198 xmoment=   0.0000E+00 ymoment=   0.0000E+00 zmoment=   0.0000E+00
 nd#     280  xforce=   0.0000E+00   yforce=   0.0000E+00  zforce=  -1.3777E+02   energy=   4.8580E-02   setid =     280 xmoment=   0.0000E+00 ymoment=   0.0000E+00 zmoment=   0.0000E+00
 nd#     323  xforce=   0.0000E+00   yforce=   0.0000E+00  zforce=  -2.2030E+02   energy=   5.7268E-02   setid =     323 xmoment=   0.0000E+00 ymoment=   0.0000E+00 zmoment=   0.0000E+00
 nd#     324  xforce=   0.0000E+00   yforce=   0.0000E+00  zforce=  -1.9521E+02   energy=   5.7092E-02   setid =     324 xmoment=   0.0000E+00 ymoment=   0.0000E+00 zmoment=   0.0000E+00
 nd#     338  xforce=   0.0000E+00   yforce=   0.0000E+00  zforce=  -1.3409E+02   energy=   4.9181E-02   setid =     338 xmoment=   0.0000E+00 ymoment=   0.0000E+00 zmoment=   0.0000E+00
 nd#     804  xforce=   0.0000E+00   yforce=   0.0000E+00  zforce=  -1.6488E+02   energy=   5.5876E-02   setid =     804 xmoment=   0.0000E+00 ymoment=   0.0000E+00 zmoment=   0.0000E+00
 nd#     806  xforce=   0.0000E+00   yforce=   0.0000E+00  zforce=  -2.2485E+02   energy=   6.0820E-02   setid =     806 xmoment=   0.0000E+00 ymoment=   0.0000E+00 zmoment=   0.0000E+00
 nd#     808  xforce=   0.0000E+00   yforce=   0.0000E+00  zforce=  -2.0424E+02   energy=   6.0487E-02   setid =     808 xmoment=   0.0000E+00 ymoment=   0.0000E+00 zmoment=   0.0000E+00
 nd#     852  xforce=   0.0000E+00   yforce=   0.0000E+00  zforce=  -1.5281E+02   energy=   5.0869E-02   setid =     852 xmoment=   0.0000E+00 ymoment=   0.0000E+00 zmoment=   0.0000E+00
 nd#     854  xforce=   0.0000E+00   yforce=   0.0000E+00  zforce=  -1.9954E+02   energy=   5.6911E-02   setid =     854 xmoment=   0.0000E+00 ymoment=   0.0000E+00 zmoment=   0.0000E+00
 nd#     856  xforce=   0.0000E+00   yforce=   0.0000E+00  zforce=  -1.8470E+02   energy=   5.6676E-02   setid =     856 xmoment=   0.0000E+00 ymoment=   0.0000E+00 zmoment=   0.0000E+00
 nd#     864  xforce=   0.0000E+00   yforce=   0.0000E+00  zforce=  -8.9057E+01   energy=   3.2598E-02   setid =     864 xmoment=   0.0000E+00 ymoment=   0.0000E+00 zmoment=   0.0000E+00
 nd#     866  xforce=   0.0000E+00   yforce=   0.0000E+00  zforce=  -1.4841E+02   energy=   4.5784E-02   setid =     866 xmoment=   0.0000E+00 ymoment=   0.0000E+00 zmoment=   0.0000E+00
 nd#     868  xforce=   0.0000E+00   yforce=   0.0000E+00  zforce=  -1.0044E+02   energy=   3.5462E-02   setid =     868 xmoment=   0.0000E+00 ymoment=   0.0000E+00 zmoment=   0.0000E+00
 nd#     880  xforce=   0.0000E+00   yforce=   0.0000E+00  zforce=  -4.4657E+01   energy=   1.1078E-02   setid =     880 xmoment=   0.0000E+00 ymoment=   0.0000E+00 zmoment=   0.0000E+00
 nd#     882  xforce=   0.0000E+00   yforce=   0.0000E+00  zforce=  -4.7670E+01   energy=   9.6398E-03   setid =     882 xmoment=   0.0000E+00 ymoment=   0.0000E+00 zmoment=   0.0000E+00
 nd#     884  xforce=   0.0000E+00   yforce=   0.0000E+00  zforce=  -3.2499E+01   energy=   6.3831E-04   setid =     884 xmoment=   0.0000E+00 ymoment=   0.0000E+00 zmoment=   0.0000E+00
              xtotal=   0.0000E+00   ytotal=   0.0000E+00  ztotal=  -2.9125E+03   etotal=   8.7529E-01

 n o d a l   f o r c e/e n e r g y    o u t p u t  t=   1.63638E+01

 velocity boundary condition forces/rigid body moments 

 nd#     167  xforce=   0.0000E+00   yforce=   0.0000E+00  zforce=  -1.7293E+02   energy=   4.7204E-02   setid =     167 xmoment=   0.0000E+00 ymoment=   0.0000E+00 zmoment=   0.0000E+00
 nd#     168  xforce=   0.0000E+00   yforce=   0.0000E+00  zforce=  -1.1815E+02   energy=   3.1323E-02   setid =     168 xmoment=   0.0000E+00 ymoment=   0.0000E+00 zmoment=   0.0000E+00
 nd#     169  xforce=   0.0000E+00   yforce=   0.0000E+00  zforce=   1.5509E+02   energy=  -2.8243E-02   setid =     169 xmoment=   0.0000E+00 ymoment=   0.0000E+00 zmoment=   0.0000E+00
 nd#     170  xforce=   0.0000E+00   yforce=   0.0000E+00  zforce=  -3.1801E+01   energy=   2.3611E-02   setid =     170 xmoment=   0.0000E+00 ymoment=   0.0000E+00 zmoment=   0.0000E+00
 nd#     197  xforce=   0.0000E+00   yforce=   0.0000E+00  zforce=  -2.6325E+02   energy=   7.7979E-02   setid =     197 xmoment=   0.0000E+00 ymoment=   0.0000E+00 zmoment=   0.0000E+00
 nd#     198  xforce=   0.0000E+00   yforce=   0.0000E+00  zforce=  -1.4027E+02   energy=   4.9561E-02   setid =     198 xmoment=   0.0000E+00 ymoment=   0.0000E+00 zmoment=   0.0000E+00
 nd#     280  xforce=   0.0000E+00   yforce=   0.0000E+00  zforce=  -1.2136E+02   energy=   5.1834E-02   setid =     280 xmoment=   0.0000E+00 ymoment=   0.0000E+00 zmoment=   0.0000E+00
 nd#     323  xforce=   0.0000E+00   yforce=   0.0000E+00  zforce=  -2.0778E+02   energy=   6.2644E-02   setid =     323 xmoment=   0.0000E+00 ymoment=   0.0000E+00 zmoment=   0.0000E+00
 nd#     324  xforce=   0.0000E+00   yforce=   0.0000E+00  zforce=  -1.7889E+02   energy=   6.1791E-02   setid =     324 xmoment=   0.0000E+00 ymoment=   0.0000E+00 zmoment=   0.0000E+00
 nd#     338  xforce=   0.0000E+00   yforce=   0.0000E+00  zforce=  -1.1388E+02   energy=   5.2295E-02   setid =     338 xmoment=   0.0000E+00 ymoment=   0.0000E+00 zmoment=   0.0000E+00
 nd#     804  xforce=   0.0000E+00   yforce=   0.0000E+00  zforce=  -1.4489E+02   energy=   5.9766E-02   setid =     804 xmoment=   0.0000E+00 ymoment=   0.0000E+00 zmoment=   0.0000E+00
 nd#     806  xforce=   0.0000E+00   yforce=   0.0000E+00  zforce=  -2.1009E+02   energy=   6.6283E-02   setid =     806 xmoment=   0.0000E+00 ymoment=   0.0000E+00 zmoment=   0.0000E+00
 nd#     808  xforce=   0.0000E+00   yforce=   0.0000E+00  zforce=  -1.8670E+02   energy=   6.5397E-02   setid =     808 xmoment=   0.0000E+00 ymoment=   0.0000E+00 zmoment=   0.0000E+00
 nd#     852  xforce=   0.0000E+00   yforce=   0.0000E+00  zforce=  -1.3586E+02   energy=   5.4495E-02   setid =     852 xmoment=   0.0000E+00 ymoment=   0.0000E+00 zmoment=   0.0000E+00
 nd#     854  xforce=   0.0000E+00   yforce=   0.0000E+00  zforce=  -1.8423E+02   energy=   6.1731E-02   setid =     854 xmoment=   0.0000E+00 ymoment=   0.0000E+00 zmoment=   0.0000E+00
 nd#     856  xforce=   0.0000E+00   yforce=   0.0000E+00  zforce=  -1.6828E+02   energy=   6.1109E-02   setid =     856 xmoment=   0.0000E+00 ymoment=   0.0000E+00 zmoment=   0.0000E+00
 nd#     864  xforce=   0.0000E+00   yforce=   0.0000E+00  zforce=  -7.7893E+01   energy=   3.4695E-02   setid =     864 xmoment=   0.0000E+00 ymoment=   0.0000E+00 zmoment=   0.0000E+00
 nd#     866  xforce=   0.0000E+00   yforce=   0.0000E+00  zforce=  -1.3558E+02   energy=   4.9351E-02   setid =     866 xmoment=   0.0000E+00 ymoment=   0.0000E+00 zmoment=   0.0000E+00
 nd#     868  xforce=   0.0000E+00   yforce=   0.0000E+00  zforce=  -9.0824E+01   energy=   3.7864E-02   setid =     868 xmoment=   0.0000E+00 ymoment=   0.0000E+00 zmoment=   0.0000E+00
 nd#     880  xforce=   0.0000E+00   yforce=   0.0000E+00  zforce=  -4.3768E+01   energy=   1.2189E-02   setid =     880 xmoment=   0.0000E+00 ymoment=   0.0000E+00 zmoment=   0.0000E+00
 nd#     882  xforce=   0.0000E+00   yforce=   0.0000E+00  zforce=  -4.8432E+01   energy=   1.0847E-02   setid =     882 xmoment=   0.0000E+00 ymoment=   0.0000E+00 zmoment=   0.0000E+00
 nd#     884  xforce=   0.0000E+00   yforce=   0.0000E+00  zforce=  -3.6565E+01   energy=   1.5057E-03   setid =     884 xmoment=   0.0000E+00 ymoment=   0.0000E+00 zmoment=   0.0000E+00
              xtotal=   0.0000E+00   ytotal=   0.0000E+00  ztotal=  -2.6563E+03   etotal=   9.4523E-01

 n o d a l   f o r c e/e n e r g y    o u t p u t  t=   1.76197E+01

 velocity boundary condition forces/rigid body moments 

 nd#     167  xforce=   0.0000E+00   yforce=   0.0000E+00  zforce=  -1.6421E+02   energy=   5.1438E-02   setid =     167 xmoment=   0.0000E+00 ymoment=   0.0000E+00 zmoment=   0.0000E+00
 nd#     168  xforce=   0.0000E+00   yforce=   0.0000E+00  zforce=  -1.1054E+02   energy=   3.4195E-02   setid =     168 xmoment=   0.0000E+00 ymoment=   0.0000E+00 zmoment=   0.0000E+00
 nd#     169  xforce=   0.0000E+00   yforce=   0.0000E+00  zforce=   1.5484E+02   energy=  -3.2135E-02   setid =     169 xmoment=   0.0000E+00 ymoment=   0.0000E+00 zmoment=   0.0000E+00
 nd#     170  xforce=   0.0000E+00   yforce=   0.0000E+00  zforce=  -2.1167E+01   energy=   2.4276E-02   setid =     170 xmoment=   0.0000E+00 ymoment=   0.0000E+00 zmoment=   0.0000E+00
 nd#     197  xforce=   0.0000E+00   yforce=   0.0000E+00  zforce=  -2.4530E+02   energy=   8.4366E-02   setid =     197 xmoment=   0.0000E+00 ymoment=   0.0000E+00 zmoment=   0.0000E+00
 nd#     198  xforce=   0.0000E+00   yforce=   0.0000E+00  zforce=  -1.2779E+02   energy=   5.2928E-02   setid =     198 xmoment=   0.0000E+00 ymoment=   0.0000E+00 zmoment=   0.0000E+00
 nd#     280  xforce=   0.0000E+00   yforce=   0.0000E+00  zforce=  -1.0746E+02   energy=   5.4708E-02   setid =     280 xmoment=   0.0000E+00 ymoment=   0.0000E+00 zmoment=   0.0000E+00
 nd#     323  xforce=   0.0000E+00   yforce=   0.0000E+00  zforce=  -1.9641E+02   energy=   6.7721E-02   setid =     323 xmoment=   0.0000E+00 ymoment=   0.0000E+00 zmoment=   0.0000E+00
 nd#     324  xforce=   0.0000E+00   yforce=   0.0000E+00  zforce=  -1.6428E+02   energy=   6.6101E-02   setid =     324 xmoment=   0.0000E+00 ymoment=   0.0000E+00 zmoment=   0.0000E+00
 nd#     338  xforce=   0.0000E+00   yforce=   0.0000E+00  zforce=  -9.7212E+01   energy=   5.4946E-02   setid =     338 xmoment=   0.0000E+00 ymoment=   0.0000E+00 zmoment=   0.0000E+00
 nd#     804  xforce=   0.0000E+00   yforce=   0.0000E+00  zforce=  -1.2894E+02   energy=   6.3206E-02   setid =     804 xmoment=   0.0000E+00 ymoment=   0.0000E+00 zmoment=   0.0000E+00
 nd#     806  xforce=   0.0000E+00   yforce=   0.0000E+00  zforce=  -1.9774E+02   energy=   7.1405E-02   setid =     806 xmoment=   0.0000E+00 ymoment=   0.0000E+00 zmoment=   0.0000E+00
 nd#     808  xforce=   0.0000E+00   yforce=   0.0000E+00  zforce=  -1.7176E+02   energy=   6.9899E-02   setid =     808 xmoment=   0.0000E+00 ymoment=   0.0000E+00 zmoment=   0.0000E+00
 nd#     852  xforce=   0.0000E+00   yforce=   0.0000E+00  zforce=  -1.2315E+02   energy=   5.7748E-02   setid =     852 xmoment=   0.0000E+00 ymoment=   0.0000E+00 zmoment=   0.0000E+00
 nd#     854  xforce=   0.0000E+00   yforce=   0.0000E+00  zforce=  -1.7213E+02   energy=   6.6207E-02   setid =     854 xmoment=   0.0000E+00 ymoment=   0.0000E+00 zmoment=   0.0000E+00
 nd#     856  xforce=   0.0000E+00   yforce=   0.0000E+00  zforce=  -1.5513E+02   energy=   6.5171E-02   setid =     856 xmoment=   0.0000E+00 ymoment=   0.0000E+00 zmoment=   0.0000E+00
 nd#     864  xforce=   0.0000E+00   yforce=   0.0000E+00  zforce=  -7.1343E+01   energy=   3.6570E-02   setid =     864 xmoment=   0.0000E+00 ymoment=   0.0000E+00 zmoment=   0.0000E+00
 nd#     866  xforce=   0.0000E+00   yforce=   0.0000E+00  zforce=  -1.2617E+02   energy=   5.2638E-02   setid =     866 xmoment=   0.0000E+00 ymoment=   0.0000E+00 zmoment=   0.0000E+00
 nd#     868  xforce=   0.0000E+00   yforce=   0.0000E+00  zforce=  -8.4286E+01   energy=   4.0063E-02   setid =     868 xmoment=   0.0000E+00 ymoment=   0.0000E+00 zmoment=   0.0000E+00
 nd#     880  xforce=   0.0000E+00   yforce=   0.0000E+00  zforce=  -4.3043E+01   energy=   1.3279E-02   setid =     880 xmoment=   0.0000E+00 ymoment=   0.0000E+00 zmoment=   0.0000E+00
 nd#     882  xforce=   0.0000E+00   yforce=   0.0000E+00  zforce=  -4.9984E+01   energy=   1.2083E-02   setid =     882 xmoment=   0.0000E+00 ymoment=   0.0000E+00 zmoment=   0.0000E+00
 nd#     884  xforce=   0.0000E+00   yforce=   0.0000E+00  zforce=  -4.0828E+01   energy=   2.4777E-03   setid =     884 xmoment=   0.0000E+00 ymoment=   0.0000E+00 zmoment=   0.0000E+00
              xtotal=   0.0000E+00   ytotal=   0.0000E+00  ztotal=  -2.4440E+03   etotal=   1.0093E+00

 n o d a l   f o r c e/e n e r g y    o u t p u t  t=   1.88757E+01

 velocity boundary condition forces/rigid body moments 

 nd#     167  xforce=   0.0000E+00   yforce=   0.0000E+00  zforce=  -1.5232E+02   energy=   5.5413E-02   setid =     167 xmoment=   0.0000E+00 ymoment=   0.0000E+00 zmoment=   0.0000E+00
 nd#     168  xforce=   0.0000E+00   yforce=   0.0000E+00  zforce=  -1.0147E+02   energy=   3.6858E-02   setid =     168 xmoment=   0.0000E+00 ymoment=   0.0000E+00 zmoment=   0.0000E+00
 nd#     169  xforce=   0.0000E+00   yforce=   0.0000E+00  zforce=   1.2685E+02   energy=  -3.5673E-02   setid =     169 xmoment=   0.0000E+00 ymoment=   0.0000E+00 zmoment=   0.0000E+00
 nd#     170  xforce=   0.0000E+00   yforce=   0.0000E+00  zforce=  -2.0977E+01   energy=   2.4805E-02   setid =     170 xmoment=   0.0000E+00 ymoment=   0.0000E+00 zmoment=   0.0000E+00
 nd#     197  xforce=   0.0000E+00   yforce=   0.0000E+00  zforce=  -1.9524E+02   energy=   8.9899E-02   setid =     197 xmoment=   0.0000E+00 ymoment=   0.0000E+00 zmoment=   0.0000E+00
 nd#     198  xforce=   0.0000E+00   yforce=   0.0000E+00  zforce=  -1.0046E+02   energy=   5.5795E-02   setid =     198 xmoment=   0.0000E+00 ymoment=   0.0000E+00 zmoment=   0.0000E+00
 nd#     280  xforce=   0.0000E+00   yforce=   0.0000E+00  zforce=  -8.6510E+01   energy=   5.7144E-02   setid =     280 xmoment=   0.0000E+00 ymoment=   0.0000E+00 zmoment=   0.0000E+00
 nd#     323  xforce=   0.0000E+00   yforce=   0.0000E+00  zforce=  -1.7738E+02   energy=   7.2415E-02   setid =     323 xmoment=   0.0000E+00 ymoment=   0.0000E+00 zmoment=   0.0000E+00
 nd#     324  xforce=   0.0000E+00   yforce=   0.0000E+00  zforce=  -1.3664E+02   energy=   6.9880E-02   setid =     324 xmoment=   0.0000E+00 ymoment=   0.0000E+00 zmoment=   0.0000E+00
 nd#     338  xforce=   0.0000E+00   yforce=   0.0000E+00  zforce=  -9.4615E+01   energy=   5.7356E-02   setid =     338 xmoment=   0.0000E+00 ymoment=   0.0000E+00 zmoment=   0.0000E+00
 nd#     804  xforce=   0.0000E+00   yforce=   0.0000E+00  zforce=  -1.3046E+02   energy=   6.6464E-02   setid =     804 xmoment=   0.0000E+00 ymoment=   0.0000E+00 zmoment=   0.0000E+00
 nd#     806  xforce=   0.0000E+00   yforce=   0.0000E+00  zforce=  -1.8222E+02   energy=   7.6177E-02   setid =     806 xmoment=   0.0000E+00 ymoment=   0.0000E+00 zmoment=   0.0000E+00
 nd#     808  xforce=   0.0000E+00   yforce=   0.0000E+00  zforce=  -1.4935E+02   energy=   7.3932E-02   setid =     808 xmoment=   0.0000E+00 ymoment=   0.0000E+00 zmoment=   0.0000E+00
 nd#     852  xforce=   0.0000E+00   yforce=   0.0000E+00  zforce=  -1.2909E+02   energy=   6.0916E-02   setid =     852 xmoment=   0.0000E+00 ymoment=   0.0000E+00 zmoment=   0.0000E+00
 nd#     854  xforce=   0.0000E+00   yforce=   0.0000E+00  zforce=  -1.6216E+02   energy=   7.0405E-02   setid =     854 xmoment=   0.0000E+00 ymoment=   0.0000E+00 zmoment=   0.0000E+00
 nd#     856  xforce=   0.0000E+00   yforce=   0.0000E+00  zforce=  -1.3778E+02   energy=   6.8850E-02   setid =     856 xmoment=   0.0000E+00 ymoment=   0.0000E+00 zmoment=   0.0000E+00
 nd#     864  xforce=   0.0000E+00   yforce=   0.0000E+00  zforce=  -8.6723E+01   energy=   3.8555E-02   setid =     864 xmoment=   0.0000E+00 ymoment=   0.0000E+00 zmoment=   0.0000E+00
 nd#     866  xforce=   0.0000E+00   yforce=   0.0000E+00  zforce=  -1.2174E+02   energy=   5.5752E-02   setid =     866 xmoment=   0.0000E+00 ymoment=   0.0000E+00 zmoment=   0.0000E+00
 nd#     868  xforce=   0.0000E+00   yforce=   0.0000E+00  zforce=  -7.7612E+01   energy=   4.2097E-02   setid =     868 xmoment=   0.0000E+00 ymoment=   0.0000E+00 zmoment=   0.0000E+00
 nd#     880  xforce=   0.0000E+00   yforce=   0.0000E+00  zforce=  -5.1314E+01   energy=   1.4464E-02   setid =     880 xmoment=   0.0000E+00 ymoment=   0.0000E+00 zmoment=   0.0000E+00
 nd#     882  xforce=   0.0000E+00   yforce=   0.0000E+00  zforce=  -4.5099E+01   energy=   1.3277E-02   setid =     882 xmoment=   0.0000E+00 ymoment=   0.0000E+00 zmoment=   0.0000E+00
 nd#     884  xforce=   0.0000E+00   yforce=   0.0000E+00  zforce=  -3.6819E+01   energy=   3.4529E-03   setid =     884 xmoment=   0.0000E+00 ymoment=   0.0000E+00 zmoment=   0.0000E+00
              xtotal=   0.0000E+00   ytotal=   0.0000E+00  ztotal=  -2.2491E+03   etotal=   1.0682E+00

 n o d a l   f o r c e/e n e r g y    o u t p u t  t=   2.01316E+01

 velocity boundary condition forces/rigid body moments 

 nd#     167  xforce=   0.0000E+00   yforce=   0.0000E+00  zforce=  -1.4036E+02   energy=   5.9089E-02   setid =     167 xmoment=   0.0000E+00 ymoment=   0.0000E+00 zmoment=   0.0000E+00
 nd#     168  xforce=   0.0000E+00   yforce=   0.0000E+00  zforce=  -8.2510E+01   energy=   3.9169E-02   setid =     168 xmoment=   0.0000E+00 ymoment=   0.0000E+00 zmoment=   0.0000E+00
 nd#     169  xforce=   0.0000E+00   yforce=   0.0000E+00  zforce=   1.0849E+02   energy=  -3.8629E-02   setid =     169 xmoment=   0.0000E+00 ymoment=   0.0000E+00 zmoment=   0.0000E+00
 nd#     170  xforce=   0.0000E+00   yforce=   0.0000E+00  zforce=  -3.2200E+01   energy=   2.5473E-02   setid =     170 xmoment=   0.0000E+00 ymoment=   0.0000E+00 zmoment=   0.0000E+00
 nd#     197  xforce=   0.0000E+00   yforce=   0.0000E+00  zforce=  -2.1515E+02   energy=   9.5053E-02   setid =     197 xmoment=   0.0000E+00 ymoment=   0.0000E+00 zmoment=   0.0000E+00
 nd#     198  xforce=   0.0000E+00   yforce=   0.0000E+00  zforce=  -1.3376E+02   energy=   5.8736E-02   setid =     198 xmoment=   0.0000E+00 ymoment=   0.0000E+00 zmoment=   0.0000E+00
 nd#     280  xforce=   0.0000E+00   yforce=   0.0000E+00  zforce=  -1.2804E+02   energy=   5.9839E-02   setid =     280 xmoment=   0.0000E+00 ymoment=   0.0000E+00 zmoment=   0.0000E+00
 nd#     323  xforce=   0.0000E+00   yforce=   0.0000E+00  zforce=  -1.9552E+02   energy=   7.7099E-02   setid =     323 xmoment=   0.0000E+00 ymoment=   0.0000E+00 zmoment=   0.0000E+00
 nd#     324  xforce=   0.0000E+00   yforce=   0.0000E+00  zforce=  -1.6613E+02   energy=   7.3683E-02   setid =     324 xmoment=   0.0000E+00 ymoment=   0.0000E+00 zmoment=   0.0000E+00
 nd#     338  xforce=   0.0000E+00   yforce=   0.0000E+00  zforce=  -1.2334E+02   energy=   6.0093E-02   setid =     338 xmoment=   0.0000E+00 ymoment=   0.0000E+00 zmoment=   0.0000E+00
 nd#     804  xforce=   0.0000E+00   yforce=   0.0000E+00  zforce=  -1.5414E+02   energy=   7.0038E-02   setid =     804 xmoment=   0.0000E+00 ymoment=   0.0000E+00 zmoment=   0.0000E+00
 nd#     806  xforce=   0.0000E+00   yforce=   0.0000E+00  zforce=  -2.0459E+02   energy=   8.1035E-02   setid =     806 xmoment=   0.0000E+00 ymoment=   0.0000E+00 zmoment=   0.0000E+00
 nd#     808  xforce=   0.0000E+00   yforce=   0.0000E+00  zforce=  -1.7662E+02   energy=   7.8026E-02   setid =     808 xmoment=   0.0000E+00 ymoment=   0.0000E+00 zmoment=   0.0000E+00
 nd#     852  xforce=   0.0000E+00   yforce=   0.0000E+00  zforce=  -1.4258E+02   energy=   6.4328E-02   setid =     852 xmoment=   0.0000E+00 ymoment=   0.0000E+00 zmoment=   0.0000E+00
 nd#     854  xforce=   0.0000E+00   yforce=   0.0000E+00  zforce=  -1.8628E+02   energy=   7.4782E-02   setid =     854 xmoment=   0.0000E+00 ymoment=   0.0000E+00 zmoment=   0.0000E+00
 nd#     856  xforce=   0.0000E+00   yforce=   0.0000E+00  zforce=  -1.6497E+02   energy=   7.2652E-02   setid =     856 xmoment=   0.0000E+00 ymoment=   0.0000E+00 zmoment=   0.0000E+00
 nd#     864  xforce=   0.0000E+00   yforce=   0.0000E+00  zforce=  -8.5491E+01   energy=   4.0718E-02   setid =     864 xmoment=   0.0000E+00 ymoment=   0.0000E+00 zmoment=   0.0000E+00
 nd#     866  xforce=   0.0000E+00   yforce=   0.0000E+00  zforce=  -1.4654E+02   energy=   5.9121E-02   setid =     866 xmoment=   0.0000E+00 ymoment=   0.0000E+00 zmoment=   0.0000E+00
 nd#     868  xforce=   0.0000E+00   yforce=   0.0000E+00  zforce=  -9.7887E+01   energy=   4.4301E-02   setid =     868 xmoment=   0.0000E+00 ymoment=   0.0000E+00 zmoment=   0.0000E+00
 nd#     880  xforce=   0.0000E+00   yforce=   0.0000E+00  zforce=  -4.2233E+01   energy=   1.5639E-02   setid =     880 xmoment=   0.0000E+00 ymoment=   0.0000E+00 zmoment=   0.0000E+00
 nd#     882  xforce=   0.0000E+00   yforce=   0.0000E+00  zforce=  -5.0910E+01   energy=   1.4483E-02   setid =     882 xmoment=   0.0000E+00 ymoment=   0.0000E+00 zmoment=   0.0000E+00
 nd#     884  xforce=   0.0000E+00   yforce=   0.0000E+00  zforce=  -1.5685E+01   energy=   4.1124E-03   setid =     884 xmoment=   0.0000E+00 ymoment=   0.0000E+00 zmoment=   0.0000E+00
              xtotal=   0.0000E+00   ytotal=   0.0000E+00  ztotal=  -2.5765E+03   etotal=   1.1288E+00

 n o d a l   f o r c e/e n e r g y    o u t p u t  t=   2.13875E+01

 velocity boundary condition forces/rigid body moments 

 nd#     167  xforce=   0.0000E+00   yforce=   0.0000E+00  zforce=  -1.5025E+02   energy=   6.2739E-02   setid =     167 xmoment=   0.0000E+00 ymoment=   0.0000E+00 zmoment=   0.0000E+00
 nd#     168  xforce=   0.0000E+00   yforce=   0.0000E+00  zforce=  -9.5641E+01   energy=   4.1406E-02   setid =     168 xmoment=   0.0000E+00 ymoment=   0.0000E+00 zmoment=   0.0000E+00
 nd#     169  xforce=   0.0000E+00   yforce=   0.0000E+00  zforce=   1.3173E+02   energy=  -4.1646E-02   setid =     169 xmoment=   0.0000E+00 ymoment=   0.0000E+00 zmoment=   0.0000E+00
 nd#     170  xforce=   0.0000E+00   yforce=   0.0000E+00  zforce=  -2.6498E+01   energy=   2.6210E-02   setid =     170 xmoment=   0.0000E+00 ymoment=   0.0000E+00 zmoment=   0.0000E+00
 nd#     197  xforce=   0.0000E+00   yforce=   0.0000E+00  zforce=  -2.2132E+02   energy=   1.0054E-01   setid =     197 xmoment=   0.0000E+00 ymoment=   0.0000E+00 zmoment=   0.0000E+00
 nd#     198  xforce=   0.0000E+00   yforce=   0.0000E+00  zforce=  -1.2258E+02   energy=   6.1956E-02   setid =     198 xmoment=   0.0000E+00 ymoment=   0.0000E+00 zmoment=   0.0000E+00
 nd#     280  xforce=   0.0000E+00   yforce=   0.0000E+00  zforce=  -1.1339E+02   energy=   6.2871E-02   setid =     280 xmoment=   0.0000E+00 ymoment=   0.0000E+00 zmoment=   0.0000E+00
 nd#     323  xforce=   0.0000E+00   yforce=   0.0000E+00  zforce=  -1.8870E+02   energy=   8.1924E-02   setid =     323 xmoment=   0.0000E+00 ymoment=   0.0000E+00 zmoment=   0.0000E+00
 nd#     324  xforce=   0.0000E+00   yforce=   0.0000E+00  zforce=  -1.5884E+02   energy=   7.7764E-02   setid =     324 xmoment=   0.0000E+00 ymoment=   0.0000E+00 zmoment=   0.0000E+00
 nd#     338  xforce=   0.0000E+00   yforce=   0.0000E+00  zforce=  -1.0618E+02   energy=   6.2975E-02   setid =     338 xmoment=   0.0000E+00 ymoment=   0.0000E+00 zmoment=   0.0000E+00
 nd#     804  xforce=   0.0000E+00   yforce=   0.0000E+00  zforce=  -1.3729E+02   energy=   7.3698E-02   setid =     804 xmoment=   0.0000E+00 ymoment=   0.0000E+00 zmoment=   0.0000E+00
 nd#     806  xforce=   0.0000E+00   yforce=   0.0000E+00  zforce=  -1.9518E+02   energy=   8.6056E-02   setid =     806 xmoment=   0.0000E+00 ymoment=   0.0000E+00 zmoment=   0.0000E+00
 nd#     808  xforce=   0.0000E+00   yforce=   0.0000E+00  zforce=  -1.6696E+02   energy=   8.2341E-02   setid =     808 xmoment=   0.0000E+00 ymoment=   0.0000E+00 zmoment=   0.0000E+00
 nd#     852  xforce=   0.0000E+00   yforce=   0.0000E+00  zforce=  -1.2657E+02   energy=   6.7708E-02   setid =     852 xmoment=   0.0000E+00 ymoment=   0.0000E+00 zmoment=   0.0000E+00
 nd#     854  xforce=   0.0000E+00   yforce=   0.0000E+00  zforce=  -1.7322E+02   energy=   7.9297E-02   setid =     854 xmoment=   0.0000E+00 ymoment=   0.0000E+00 zmoment=   0.0000E+00
 nd#     856  xforce=   0.0000E+00   yforce=   0.0000E+00  zforce=  -1.5227E+02   energy=   7.6636E-02   setid =     856 xmoment=   0.0000E+00 ymoment=   0.0000E+00 zmoment=   0.0000E+00
 nd#     864  xforce=   0.0000E+00   yforce=   0.0000E+00  zforce=  -7.0839E+01   energy=   4.2681E-02   setid =     864 xmoment=   0.0000E+00 ymoment=   0.0000E+00 zmoment=   0.0000E+00
 nd#     866  xforce=   0.0000E+00   yforce=   0.0000E+00  zforce=  -1.3243E+02   energy=   6.2625E-02   setid =     866 xmoment=   0.0000E+00 ymoment=   0.0000E+00 zmoment=   0.0000E+00
 nd#     868  xforce=   0.0000E+00   yforce=   0.0000E+00  zforce=  -8.2995E+01   energy=   4.6573E-02   setid =     868 xmoment=   0.0000E+00 ymoment=   0.0000E+00 zmoment=   0.0000E+00
 nd#     880  xforce=   0.0000E+00   yforce=   0.0000E+00  zforce=  -3.8846E+01   energy=   1.6657E-02   setid =     880 xmoment=   0.0000E+00 ymoment=   0.0000E+00 zmoment=   0.0000E+00
 nd#     882  xforce=   0.0000E+00   yforce=   0.0000E+00  zforce=  -5.0131E+01   energy=   1.5752E-02   setid =     882 xmoment=   0.0000E+00 ymoment=   0.0000E+00 zmoment=   0.0000E+00
 nd#     884  xforce=   0.0000E+00   yforce=   0.0000E+00  zforce=  -2.3206E+01   energy=   4.6008E-03   setid =     884 xmoment=   0.0000E+00 ymoment=   0.0000E+00 zmoment=   0.0000E+00
              xtotal=   0.0000E+00   ytotal=   0.0000E+00  ztotal=  -2.4016E+03   etotal=   1.1914E+00

 n o d a l   f o r c e/e n e r g y    o u t p u t  t=   2.26435E+01

 velocity boundary condition forces/rigid body moments 

 nd#     167  xforce=   0.0000E+00   yforce=   0.0000E+00  zforce=  -1.3532E+02   energy=   6.6326E-02   setid =     167 xmoment=   0.0000E+00 ymoment=   0.0000E+00 zmoment=   0.0000E+00
 nd#     168  xforce=   0.0000E+00   yforce=   0.0000E+00  zforce=  -8.6497E+01   energy=   4.3694E-02   setid =     168 xmoment=   0.0000E+00 ymoment=   0.0000E+00 zmoment=   0.0000E+00
 nd#     169  xforce=   0.0000E+00   yforce=   0.0000E+00  zforce=   1.1630E+02   energy=  -4.4761E-02   setid =     169 xmoment=   0.0000E+00 ymoment=   0.0000E+00 zmoment=   0.0000E+00
 nd#     170  xforce=   0.0000E+00   yforce=   0.0000E+00  zforce=  -1.4236E+01   energy=   2.6722E-02   setid =     170 xmoment=   0.0000E+00 ymoment=   0.0000E+00 zmoment=   0.0000E+00
 nd#     197  xforce=   0.0000E+00   yforce=   0.0000E+00  zforce=  -1.7279E+02   energy=   1.0548E-01   setid =     197 xmoment=   0.0000E+00 ymoment=   0.0000E+00 zmoment=   0.0000E+00
 nd#     198  xforce=   0.0000E+00   yforce=   0.0000E+00  zforce=  -9.0621E+01   energy=   6.4634E-02   setid =     198 xmoment=   0.0000E+00 ymoment=   0.0000E+00 zmoment=   0.0000E+00
 nd#     280  xforce=   0.0000E+00   yforce=   0.0000E+00  zforce=  -7.8594E+01   energy=   6.5282E-02   setid =     280 xmoment=   0.0000E+00 ymoment=   0.0000E+00 zmoment=   0.0000E+00
 nd#     323  xforce=   0.0000E+00   yforce=   0.0000E+00  zforce=  -1.6196E+02   energy=   8.6328E-02   setid =     323 xmoment=   0.0000E+00 ymoment=   0.0000E+00 zmoment=   0.0000E+00
[...]
 nd#     338  xforce=   0.0000E+00   yforce=   0.0000E+00  zforce=  -2.9203E+01   energy=   1.8388E-01   setid =     338 xmoment=   0.0000E+00 ymoment=   0.0000E+00 zmoment=   0.0000E+00
 nd#     804  xforce=   0.0000E+00   yforce=   0.0000E+00  zforce=  -4.7335E+01   energy=   2.3248E-01   setid =     804 xmoment=   0.0000E+00 ymoment=   0.0000E+00 zmoment=   0.0000E+00
 nd#     806  xforce=   0.0000E+00   yforce=   0.0000E+00  zforce=  -2.8488E+02   energy=   3.6188E-01   setid =     806 xmoment=   0.0000E+00 ymoment=   0.0000E+00 zmoment=   0.0000E+00
 nd#     808  xforce=   0.0000E+00   yforce=   0.0000E+00  zforce=  -1.8258E+02   energy=   3.0447E-01   setid =     808 xmoment=   0.0000E+00 ymoment=   0.0000E+00 zmoment=   0.0000E+00
 nd#     852  xforce=   0.0000E+00   yforce=   0.0000E+00  zforce=  -4.2333E+01   energy=   2.0999E-01   setid =     852 xmoment=   0.0000E+00 ymoment=   0.0000E+00 zmoment=   0.0000E+00
 nd#     854  xforce=   0.0000E+00   yforce=   0.0000E+00  zforce=  -2.3083E+02   energy=   3.2233E-01   setid =     854 xmoment=   0.0000E+00 ymoment=   0.0000E+00 zmoment=   0.0000E+00
 nd#     856  xforce=   0.0000E+00   yforce=   0.0000E+00  zforce=  -1.4275E+02   energy=   2.7016E-01   setid =     856 xmoment=   0.0000E+00 ymoment=   0.0000E+00 zmoment=   0.0000E+00
 nd#     864  xforce=   0.0000E+00   yforce=   0.0000E+00  zforce=   1.1289E+01   energy=   1.1135E-01   setid =     864 xmoment=   0.0000E+00 ymoment=   0.0000E+00 zmoment=   0.0000E+00
 nd#     866  xforce=   0.0000E+00   yforce=   0.0000E+00  zforce=  -1.5091E+02   energy=   2.4429E-01   setid =     866 xmoment=   0.0000E+00 ymoment=   0.0000E+00 zmoment=   0.0000E+00
 nd#     868  xforce=   0.0000E+00   yforce=   0.0000E+00  zforce=  -4.1329E+01   energy=   1.3965E-01   setid =     868 xmoment=   0.0000E+00 ymoment=   0.0000E+00 zmoment=   0.0000E+00
 nd#     880  xforce=   0.0000E+00   yforce=   0.0000E+00  zforce=  -3.2056E+01   energy=   6.9778E-02   setid =     880 xmoment=   0.0000E+00 ymoment=   0.0000E+00 zmoment=   0.0000E+00
 nd#     882  xforce=   0.0000E+00   yforce=   0.0000E+00  zforce=  -8.8109E+01   energy=   9.4621E-02   setid =     882 xmoment=   0.0000E+00 ymoment=   0.0000E+00 zmoment=   0.0000E+00
 nd#     884  xforce=   0.0000E+00   yforce=   0.0000E+00  zforce=  -8.6182E+01   energy=   4.6714E-02   setid =     884 xmoment=   0.0000E+00 ymoment=   0.0000E+00 zmoment=   0.0000E+00
              xtotal=   0.0000E+00   ytotal=   0.0000E+00  ztotal=  -2.4703E+03   etotal=   4.3516E+00

 n o d a l   f o r c e/e n e r g y    o u t p u t  t=   8.73577E+01

 velocity boundary condition forces/rigid body moments 

 nd#     167  xforce=   0.0000E+00   yforce=   0.0000E+00  zforce=  -1.4723E+02   energy=   2.9023E-01   setid =     167 xmoment=   0.0000E+00 ymoment=   0.0000E+00 zmoment=   0.0000E+00
 nd#     168  xforce=   0.0000E+00   yforce=   0.0000E+00  zforce=  -9.8504E+01   energy=   1.8968E-01   setid =     168 xmoment=   0.0000E+00 ymoment=   0.0000E+00 zmoment=   0.0000E+00
 nd#     169  xforce=   0.0000E+00   yforce=   0.0000E+00  zforce=   8.7930E+01   energy=  -2.3712E-01   setid =     169 xmoment=   0.0000E+00 ymoment=   0.0000E+00 zmoment=   0.0000E+00
 nd#     170  xforce=   0.0000E+00   yforce=   0.0000E+00  zforce=   8.8238E+01   energy=   4.2974E-02   setid =     170 xmoment=   0.0000E+00 ymoment=   0.0000E+00 zmoment=   0.0000E+00
 nd#     197  xforce=   0.0000E+00   yforce=   0.0000E+00  zforce=  -7.3021E+01   energy=   4.1913E-01   setid =     197 xmoment=   0.0000E+00 ymoment=   0.0000E+00 zmoment=   0.0000E+00
 nd#     198  xforce=   0.0000E+00   yforce=   0.0000E+00  zforce=  -2.6472E+01   energy=   2.4659E-01   setid =     198 xmoment=   0.0000E+00 ymoment=   0.0000E+00 zmoment=   0.0000E+00
 nd#     280  xforce=   0.0000E+00   yforce=   0.0000E+00  zforce=   7.4128E+01   energy=   1.9089E-01   setid =     280 xmoment=   0.0000E+00 ymoment=   0.0000E+00 zmoment=   0.0000E+00
 nd#     323  xforce=   0.0000E+00   yforce=   0.0000E+00  zforce=  -1.7361E+02   energy=   3.6334E-01   setid =     323 xmoment=   0.0000E+00 ymoment=   0.0000E+00 zmoment=   0.0000E+00
 nd#     324  xforce=   0.0000E+00   yforce=   0.0000E+00  zforce=  -4.3139E+01   energy=   2.9952E-01   setid =     324 xmoment=   0.0000E+00 ymoment=   0.0000E+00 zmoment=   0.0000E+00
 nd#     338  xforce=   0.0000E+00   yforce=   0.0000E+00  zforce=   3.9783E+01   energy=   1.8355E-01   setid =     338 xmoment=   0.0000E+00 ymoment=   0.0000E+00 zmoment=   0.0000E+00
 nd#     804  xforce=   0.0000E+00   yforce=   0.0000E+00  zforce=  -1.0858E+01   energy=   2.3432E-01   setid =     804 xmoment=   0.0000E+00 ymoment=   0.0000E+00 zmoment=   0.0000E+00
 nd#     806  xforce=   0.0000E+00   yforce=   0.0000E+00  zforce=  -1.8602E+02   energy=   3.7674E-01   setid =     806 xmoment=   0.0000E+00 ymoment=   0.0000E+00 zmoment=   0.0000E+00
 nd#     808  xforce=   0.0000E+00   yforce=   0.0000E+00  zforce=  -5.8777E+01   energy=   3.1208E-01   setid =     808 xmoment=   0.0000E+00 ymoment=   0.0000E+00 zmoment=   0.0000E+00
 nd#     852  xforce=   0.0000E+00   yforce=   0.0000E+00  zforce=  -3.8824E+01   energy=   2.1255E-01   setid =     852 xmoment=   0.0000E+00 ymoment=   0.0000E+00 zmoment=   0.0000E+00
 nd#     854  xforce=   0.0000E+00   yforce=   0.0000E+00  zforce=  -1.6188E+02   energy=   3.3472E-01   setid =     854 xmoment=   0.0000E+00 ymoment=   0.0000E+00 zmoment=   0.0000E+00
 nd#     856  xforce=   0.0000E+00   yforce=   0.0000E+00  zforce=  -5.3263E+01   energy=   2.7635E-01   setid =     856 xmoment=   0.0000E+00 ymoment=   0.0000E+00 zmoment=   0.0000E+00
 nd#     864  xforce=   0.0000E+00   yforce=   0.0000E+00  zforce=  -6.1803E+01   energy=   1.1294E-01   setid =     864 xmoment=   0.0000E+00 ymoment=   0.0000E+00 zmoment=   0.0000E+00
 nd#     866  xforce=   0.0000E+00   yforce=   0.0000E+00  zforce=  -1.2358E+02   energy=   2.5295E-01   setid =     866 xmoment=   0.0000E+00 ymoment=   0.0000E+00 zmoment=   0.0000E+00
 nd#     868  xforce=   0.0000E+00   yforce=   0.0000E+00  zforce=  -3.3380E+01   energy=   1.4201E-01   setid =     868 xmoment=   0.0000E+00 ymoment=   0.0000E+00 zmoment=   0.0000E+00
 nd#     880  xforce=   0.0000E+00   yforce=   0.0000E+00  zforce=  -8.1447E+01   energy=   7.3359E-02   setid =     880 xmoment=   0.0000E+00 ymoment=   0.0000E+00 zmoment=   0.0000E+00
 nd#     882  xforce=   0.0000E+00   yforce=   0.0000E+00  zforce=  -8.9822E+01   energy=   1.0023E-01   setid =     882 xmoment=   0.0000E+00 ymoment=   0.0000E+00 zmoment=   0.0000E+00
 nd#     884  xforce=   0.0000E+00   yforce=   0.0000E+00  zforce=  -9.9863E+01   energy=   5.2583E-02   setid =     884 xmoment=   0.0000E+00 ymoment=   0.0000E+00 zmoment=   0.0000E+00
              xtotal=   0.0000E+00   ytotal=   0.0000E+00  ztotal=  -1.2714E+03   etotal=   4.4696E+00

 n o d a l   f o r c e/e n e r g y    o u t p u t  t=   9.05125E+01

 velocity boundary condition forces/rigid body moments 

 nd#     167  xforce=   0.0000E+00   yforce=   0.0000E+00  zforce=  -5.9665E+01   energy=   2.9676E-01   setid =     167 xmoment=   0.0000E+00 ymoment=   0.0000E+00 zmoment=   0.0000E+00
 nd#     168  xforce=   0.0000E+00   yforce=   0.0000E+00  zforce=  -2.5156E+01   energy=   1.9359E-01   setid =     168 xmoment=   0.0000E+00 ymoment=   0.0000E+00 zmoment=   0.0000E+00
 nd#     169  xforce=   0.0000E+00   yforce=   0.0000E+00  zforce=   2.5471E+01   energy=  -2.4070E-01   setid =     169 xmoment=   0.0000E+00 ymoment=   0.0000E+00 zmoment=   0.0000E+00
 nd#     170  xforce=   0.0000E+00   yforce=   0.0000E+00  zforce=   8.2637E+01   energy=   3.7583E-02   setid =     170 xmoment=   0.0000E+00 ymoment=   0.0000E+00 zmoment=   0.0000E+00
 nd#     197  xforce=   0.0000E+00   yforce=   0.0000E+00  zforce=  -2.5753E+01   energy=   4.2224E-01   setid =     197 xmoment=   0.0000E+00 ymoment=   0.0000E+00 zmoment=   0.0000E+00
 nd#     198  xforce=   0.0000E+00   yforce=   0.0000E+00  zforce=  -3.8292E+01   energy=   2.4863E-01   setid =     198 xmoment=   0.0000E+00 ymoment=   0.0000E+00 zmoment=   0.0000E+00
 nd#     280  xforce=   0.0000E+00   yforce=   0.0000E+00  zforce=   2.1614E+01   energy=   1.8787E-01   setid =     280 xmoment=   0.0000E+00 ymoment=   0.0000E+00 zmoment=   0.0000E+00
 nd#     323  xforce=   0.0000E+00   yforce=   0.0000E+00  zforce=  -1.3532E+02   energy=   3.7309E-01   setid =     323 xmoment=   0.0000E+00 ymoment=   0.0000E+00 zmoment=   0.0000E+00
 nd#     324  xforce=   0.0000E+00   yforce=   0.0000E+00  zforce=  -3.9813E+01   energy=   3.0213E-01   setid =     324 xmoment=   0.0000E+00 ymoment=   0.0000E+00 zmoment=   0.0000E+00
 nd#     338  xforce=   0.0000E+00   yforce=   0.0000E+00  zforce=   2.3983E+01   energy=   1.8154E-01   setid =     338 xmoment=   0.0000E+00 ymoment=   0.0000E+00 zmoment=   0.0000E+00
 nd#     804  xforce=   0.0000E+00   yforce=   0.0000E+00  zforce=   2.4628E+00   energy=   2.3458E-01   setid =     804 xmoment=   0.0000E+00 ymoment=   0.0000E+00 zmoment=   0.0000E+00
 nd#     806  xforce=   0.0000E+00   yforce=   0.0000E+00  zforce=  -1.4851E+02   energy=   3.8729E-01   setid =     806 xmoment=   0.0000E+00 ymoment=   0.0000E+00 zmoment=   0.0000E+00
 nd#     808  xforce=   0.0000E+00   yforce=   0.0000E+00  zforce=  -3.9217E+01   energy=   3.1518E-01   setid =     808 xmoment=   0.0000E+00 ymoment=   0.0000E+00 zmoment=   0.0000E+00
 nd#     852  xforce=   0.0000E+00   yforce=   0.0000E+00  zforce=   6.3398E+00   energy=   2.1357E-01   setid =     852 xmoment=   0.0000E+00 ymoment=   0.0000E+00 zmoment=   0.0000E+00
 nd#     854  xforce=   0.0000E+00   yforce=   0.0000E+00  zforce=  -1.2013E+02   energy=   3.4361E-01   setid =     854 xmoment=   0.0000E+00 ymoment=   0.0000E+00 zmoment=   0.0000E+00
 nd#     856  xforce=   0.0000E+00   yforce=   0.0000E+00  zforce=  -1.4950E+01   energy=   2.7850E-01   setid =     856 xmoment=   0.0000E+00 ymoment=   0.0000E+00 zmoment=   0.0000E+00
 nd#     864  xforce=   0.0000E+00   yforce=   0.0000E+00  zforce=   2.4894E+01   energy=   1.1411E-01   setid =     864 xmoment=   0.0000E+00 ymoment=   0.0000E+00 zmoment=   0.0000E+00
 nd#     866  xforce=   0.0000E+00   yforce=   0.0000E+00  zforce=  -8.4892E+01   energy=   2.5953E-01   setid =     866 xmoment=   0.0000E+00 ymoment=   0.0000E+00 zmoment=   0.0000E+00
 nd#     868  xforce=   0.0000E+00   yforce=   0.0000E+00  zforce=   2.5464E+01   energy=   1.4226E-01   setid =     868 xmoment=   0.0000E+00 ymoment=   0.0000E+00 zmoment=   0.0000E+00
 nd#     880  xforce=   0.0000E+00   yforce=   0.0000E+00  zforce=  -3.5091E+01   energy=   7.7036E-02   setid =     880 xmoment=   0.0000E+00 ymoment=   0.0000E+00 zmoment=   0.0000E+00
 nd#     882  xforce=   0.0000E+00   yforce=   0.0000E+00  zforce=  -5.4093E+01   energy=   1.0477E-01   setid =     882 xmoment=   0.0000E+00 ymoment=   0.0000E+00 zmoment=   0.0000E+00
 nd#     884  xforce=   0.0000E+00   yforce=   0.0000E+00  zforce=  -4.4581E+00   energy=   5.5875E-02   setid =     884 xmoment=   0.0000E+00 ymoment=   0.0000E+00 zmoment=   0.0000E+00
              xtotal=   0.0000E+00   ytotal=   0.0000E+00  ztotal=  -6.1248E+02   etotal=   4.5290E+00

 n o d a l   f o r c e/e n e r g y    o u t p u t  t=   9.55125E+01

 velocity boundary condition forces/rigid body moments 

 nd#     167  xforce=   0.0000E+00   yforce=   0.0000E+00  zforce=  -1.1912E+02   energy=   3.0570E-01   setid =     167 xmoment=   0.0000E+00 ymoment=   0.0000E+00 zmoment=   0.0000E+00
 nd#     168  xforce=   0.0000E+00   yforce=   0.0000E+00  zforce=  -6.8006E+01   energy=   1.9824E-01   setid =     168 xmoment=   0.0000E+00 ymoment=   0.0000E+00 zmoment=   0.0000E+00
 nd#     169  xforce=   0.0000E+00   yforce=   0.0000E+00  zforce=   1.0537E+02   energy=  -2.4724E-01   setid =     169 xmoment=   0.0000E+00 ymoment=   0.0000E+00 zmoment=   0.0000E+00
 nd#     170  xforce=   0.0000E+00   yforce=   0.0000E+00  zforce=   1.0776E+02   energy=   2.8063E-02   setid =     170 xmoment=   0.0000E+00 ymoment=   0.0000E+00 zmoment=   0.0000E+00
 nd#     197  xforce=   0.0000E+00   yforce=   0.0000E+00  zforce=  -8.4899E+01   energy=   4.2778E-01   setid =     197 xmoment=   0.0000E+00 ymoment=   0.0000E+00 zmoment=   0.0000E+00
 nd#     198  xforce=   0.0000E+00   yforce=   0.0000E+00  zforce=  -5.7274E+01   energy=   2.5341E-01   setid =     198 xmoment=   0.0000E+00 ymoment=   0.0000E+00 zmoment=   0.0000E+00
 nd#     280  xforce=   0.0000E+00   yforce=   0.0000E+00  zforce=   5.7639E+01   energy=   1.8391E-01   setid =     280 xmoment=   0.0000E+00 ymoment=   0.0000E+00 zmoment=   0.0000E+00
 nd#     323  xforce=   0.0000E+00   yforce=   0.0000E+00  zforce=  -1.6839E+02   energy=   3.8827E-01   setid =     323 xmoment=   0.0000E+00 ymoment=   0.0000E+00 zmoment=   0.0000E+00
 nd#     324  xforce=   0.0000E+00   yforce=   0.0000E+00  zforce=  -4.9981E+01   energy=   3.0662E-01   setid =     324 xmoment=   0.0000E+00 ymoment=   0.0000E+00 zmoment=   0.0000E+00
 nd#     338  xforce=   0.0000E+00   yforce=   0.0000E+00  zforce=   6.1847E+01   energy=   1.7725E-01   setid =     338 xmoment=   0.0000E+00 ymoment=   0.0000E+00 zmoment=   0.0000E+00
 nd#     804  xforce=   0.0000E+00   yforce=   0.0000E+00  zforce=   2.5091E+01   energy=   2.3321E-01   setid =     804 xmoment=   0.0000E+00 ymoment=   0.0000E+00 zmoment=   0.0000E+00
 nd#     806  xforce=   0.0000E+00   yforce=   0.0000E+00  zforce=  -1.8267E+02   energy=   4.0385E-01   setid =     806 xmoment=   0.0000E+00 ymoment=   0.0000E+00 zmoment=   0.0000E+00
 nd#     808  xforce=   0.0000E+00   yforce=   0.0000E+00  zforce=  -6.3609E+01   energy=   3.2032E-01   setid =     808 xmoment=   0.0000E+00 ymoment=   0.0000E+00 zmoment=   0.0000E+00
 nd#     852  xforce=   0.0000E+00   yforce=   0.0000E+00  zforce=   2.0484E+01   energy=   2.1223E-01   setid =     852 xmoment=   0.0000E+00 ymoment=   0.0000E+00 zmoment=   0.0000E+00
 nd#     854  xforce=   0.0000E+00   yforce=   0.0000E+00  zforce=  -1.5126E+02   energy=   3.5718E-01   setid =     854 xmoment=   0.0000E+00 ymoment=   0.0000E+00 zmoment=   0.0000E+00
 nd#     856  xforce=   0.0000E+00   yforce=   0.0000E+00  zforce=  -3.9577E+01   energy=   2.8122E-01   setid =     856 xmoment=   0.0000E+00 ymoment=   0.0000E+00 zmoment=   0.0000E+00
 nd#     864  xforce=   0.0000E+00   yforce=   0.0000E+00  zforce=   3.3956E+01   energy=   1.1116E-01   setid =     864 xmoment=   0.0000E+00 ymoment=   0.0000E+00 zmoment=   0.0000E+00
 nd#     866  xforce=   0.0000E+00   yforce=   0.0000E+00  zforce=  -1.2014E+02   energy=   2.6978E-01   setid =     866 xmoment=   0.0000E+00 ymoment=   0.0000E+00 zmoment=   0.0000E+00
 nd#     868  xforce=   0.0000E+00   yforce=   0.0000E+00  zforce=  -7.7053E+00   energy=   1.4137E-01   setid =     868 xmoment=   0.0000E+00 ymoment=   0.0000E+00 zmoment=   0.0000E+00
 nd#     880  xforce=   0.0000E+00   yforce=   0.0000E+00  zforce=  -2.9020E+01   energy=   8.0241E-02   setid =     880 xmoment=   0.0000E+00 ymoment=   0.0000E+00 zmoment=   0.0000E+00
 nd#     882  xforce=   0.0000E+00   yforce=   0.0000E+00  zforce=  -9.5088E+01   energy=   1.1223E-01   setid =     882 xmoment=   0.0000E+00 ymoment=   0.0000E+00 zmoment=   0.0000E+00
 nd#     884  xforce=   0.0000E+00   yforce=   0.0000E+00  zforce=  -3.6617E+01   energy=   5.7928E-02   setid =     884 xmoment=   0.0000E+00 ymoment=   0.0000E+00 zmoment=   0.0000E+00
              xtotal=   0.0000E+00   ytotal=   0.0000E+00  ztotal=  -8.6120E+02   etotal=   4.6027E+00

 n o d a l   f o r c e/e n e r g y    o u t p u t  t=   1.00000E+02

 velocity boundary condition forces/rigid body moments 

 nd#     167  xforce=   0.0000E+00   yforce=   0.0000E+00  zforce=  -1.0351E+02   energy=   3.1569E-01   setid =     167 xmoment=   0.0000E+00 ymoment=   0.0000E+00 zmoment=   0.0000E+00
 nd#     168  xforce=   0.0000E+00   yforce=   0.0000E+00  zforce=  -6.4472E+01   energy=   2.0419E-01   setid =     168 xmoment=   0.0000E+00 ymoment=   0.0000E+00 zmoment=   0.0000E+00
 nd#     169  xforce=   0.0000E+00   yforce=   0.0000E+00  zforce=   1.2263E+02   energy=  -2.5747E-01   setid =     169 xmoment=   0.0000E+00 ymoment=   0.0000E+00 zmoment=   0.0000E+00
 nd#     170  xforce=   0.0000E+00   yforce=   0.0000E+00  zforce=   1.3240E+02   energy=   1.7286E-02   setid =     170 xmoment=   0.0000E+00 ymoment=   0.0000E+00 zmoment=   0.0000E+00
 nd#     197  xforce=   0.0000E+00   yforce=   0.0000E+00  zforce=  -5.1222E+01   energy=   4.3388E-01   setid =     197 xmoment=   0.0000E+00 ymoment=   0.0000E+00 zmoment=   0.0000E+00
 nd#     198  xforce=   0.0000E+00   yforce=   0.0000E+00  zforce=  -1.0764E+01   energy=   2.5646E-01   setid =     198 xmoment=   0.0000E+00 ymoment=   0.0000E+00 zmoment=   0.0000E+00
 nd#     280  xforce=   0.0000E+00   yforce=   0.0000E+00  zforce=   9.7181E+01   energy=   1.7696E-01   setid =     280 xmoment=   0.0000E+00 ymoment=   0.0000E+00 zmoment=   0.0000E+00
 nd#     323  xforce=   0.0000E+00   yforce=   0.0000E+00  zforce=  -1.3022E+02   energy=   4.0167E-01   setid =     323 xmoment=   0.0000E+00 ymoment=   0.0000E+00 zmoment=   0.0000E+00
 nd#     324  xforce=   0.0000E+00   yforce=   0.0000E+00  zforce=  -7.6773E-01   energy=   3.0890E-01   setid =     324 xmoment=   0.0000E+00 ymoment=   0.0000E+00 zmoment=   0.0000E+00
 nd#     338  xforce=   0.0000E+00   yforce=   0.0000E+00  zforce=   1.0729E+02   energy=   1.6966E-01   setid =     338 xmoment=   0.0000E+00 ymoment=   0.0000E+00 zmoment=   0.0000E+00
 nd#     804  xforce=   0.0000E+00   yforce=   0.0000E+00  zforce=   8.3684E+01   energy=   2.2833E-01   setid =     804 xmoment=   0.0000E+00 ymoment=   0.0000E+00 zmoment=   0.0000E+00
 nd#     806  xforce=   0.0000E+00   yforce=   0.0000E+00  zforce=  -1.2865E+02   energy=   4.1782E-01   setid =     806 xmoment=   0.0000E+00 ymoment=   0.0000E+00 zmoment=   0.0000E+00
 nd#     808  xforce=   0.0000E+00   yforce=   0.0000E+00  zforce=  -4.5558E+00   energy=   3.2338E-01   setid =     808 xmoment=   0.0000E+00 ymoment=   0.0000E+00 zmoment=   0.0000E+00
 nd#     852  xforce=   0.0000E+00   yforce=   0.0000E+00  zforce=   7.9714E+01   energy=   2.0774E-01   setid =     852 xmoment=   0.0000E+00 ymoment=   0.0000E+00 zmoment=   0.0000E+00
 nd#     854  xforce=   0.0000E+00   yforce=   0.0000E+00  zforce=  -8.9861E+01   energy=   3.6800E-01   setid =     854 xmoment=   0.0000E+00 ymoment=   0.0000E+00 zmoment=   0.0000E+00
 nd#     856  xforce=   0.0000E+00   yforce=   0.0000E+00  zforce=   2.3408E+01   energy=   2.8195E-01   setid =     856 xmoment=   0.0000E+00 ymoment=   0.0000E+00 zmoment=   0.0000E+00
 nd#     864  xforce=   0.0000E+00   yforce=   0.0000E+00  zforce=   8.6819E+01   energy=   1.0574E-01   setid =     864 xmoment=   0.0000E+00 ymoment=   0.0000E+00 zmoment=   0.0000E+00
 nd#     866  xforce=   0.0000E+00   yforce=   0.0000E+00  zforce=  -5.7627E+01   energy=   2.7776E-01   setid =     866 xmoment=   0.0000E+00 ymoment=   0.0000E+00 zmoment=   0.0000E+00
 nd#     868  xforce=   0.0000E+00   yforce=   0.0000E+00  zforce=   5.4785E+01   energy=   1.3926E-01   setid =     868 xmoment=   0.0000E+00 ymoment=   0.0000E+00 zmoment=   0.0000E+00
 nd#     880  xforce=   0.0000E+00   yforce=   0.0000E+00  zforce=  -1.4463E+01   energy=   8.2193E-02   setid =     880 xmoment=   0.0000E+00 ymoment=   0.0000E+00 zmoment=   0.0000E+00
 nd#     882  xforce=   0.0000E+00   yforce=   0.0000E+00  zforce=  -7.2227E+01   energy=   1.1974E-01   setid =     882 xmoment=   0.0000E+00 ymoment=   0.0000E+00 zmoment=   0.0000E+00
 nd#     884  xforce=   0.0000E+00   yforce=   0.0000E+00  zforce=  -2.9288E+01   energy=   6.0886E-02   setid =     884 xmoment=   0.0000E+00 ymoment=   0.0000E+00 zmoment=   0.0000E+00
              xtotal=   0.0000E+00   ytotal=   0.0000E+00  ztotal=   3.0279E+01   etotal=   4.6400E+00
