 LS-DYNA keyword deck by LS-PrePost                                      
                    ls-dyna smp d R14 R14.1.1s_1_ef50e1 date 06/16/2024



 n o d a l  s t r e s s  c a l c u l a t i o n s   f o r   t i m e  s t e p        1   ( at time 0.00000E+00 )

 node (global)
          stress       sig-xx      sig-yy      sig-zz      sig-xy      sig-yz      sig-zx       plastic
                                                                                                 strain 
       1-
 mid.  surface    -1.6011E-04 -1.6011E-04 -1.6011E-04  0.0000E+00  0.0000E+00  0.0000E+00  0.0000E+00
       2-
 mid.  surface    -1.1843E-04 -1.1843E-04 -1.1843E-04  0.0000E+00  0.0000E+00  0.0000E+00  0.0000E+00
       8-
 mid.  surface    -2.9208E-05 -2.9208E-05 -2.9208E-05  0.0000E+00  0.0000E+00  0.0000E+00  0.0000E+00
       9-
 mid.  surface     8.3865E-05  8.3865E-05  8.3865E-05  0.0000E+00  0.0000E+00  0.0000E+00  0.0000E+00
      10-
 mid.  surface     2.2199E-05  2.2199E-05  2.2199E-05  0.0000E+00  0.0000E+00  0.0000E+00  0.0000E+00
      11-
 mid.  surface    -4.6801E-05 -4.6801E-05 -4.6801E-05  0.0000E+00  0.0000E+00  0.0000E+00  0.0000E+00
      12-
 mid.  surface     1.5223E-05  1.5223E-05  1.5223E-05  0.0000E+00  0.0000E+00  0.0000E+00  0.0000E+00
      17-
 mid.  surface    -7.2808E-06 -7.2808E-06 -7.2808E-06  0.0000E+00  0.0000E+00  0.0000E+00  0.0000E+00
      18-
 mid.  surface    -3.9787E-05 -3.9787E-05 -3.9787E-05  0.0000E+00  0.0000E+00  0.0000E+00  0.0000E+00
      19-
 mid.  surface     2.0352E-05  2.0352E-05  2.0352E-05  0.0000E+00  0.0000E+00  0.0000E+00  0.0000E+00
      20-
 mid.  surface     3.8997E-05  3.8997E-05  3.8997E-05  0.0000E+00  0.0000E+00  0.0000E+00  0.0000E+00
      21-
 mid.  surface     4.7947E-05  4.7947E-05  4.7947E-05  0.0000E+00  0.0000E+00  0.0000E+00  0.0000E+00
      22-
 mid.  surface     2.7110E-05  2.7110E-05  2.7110E-05  0.0000E+00  0.0000E+00  0.0000E+00  0.0000E+00
      23-
 mid.  surface    -5.2270E-07 -5.2270E-07 -5.2270E-07  0.0000E+00  0.0000E+00  0.0000E+00  0.0000E+00
      40-
 mid.  surface     5.2769E-05  5.2769E-05  5.2769E-05  0.0000E+00  0.0000E+00  0.0000E+00  0.0000E+00
      41-
 mid.  surface     8.6452E-06  8.6452E-06  8.6452E-06  0.0000E+00  0.0000E+00  0.0000E+00  0.0000E+00
      85-
 mid.  surface    -1.5617E-05 -1.5617E-05 -1.5617E-05  0.0000E+00  0.0000E+00  0.0000E+00  0.0000E+00
      86-
 mid.  surface    -5.2982E-05 -5.2982E-05 -5.2982E-05  0.0000E+00  0.0000E+00  0.0000E+00  0.0000E+00
     100-
 mid.  surface    -1.1256E-04 -1.1256E-04 -1.1256E-04  0.0000E+00  0.0000E+00  0.0000E+00  0.0000E+00
     110-
 mid.  surface     3.6241E-05  3.6241E-05  3.6241E-05  0.0000E+00  0.0000E+00  0.0000E+00  0.0000E+00



 n o d a l  s t r a i n  c a l c u l a t i o n s   f o r   t i m e  s t e p        1   ( at time 0.00000E+00 )

 node (global)
          strain       eps-xx      eps-yy      eps-zz      eps-xy      eps-yz      eps-zx       
       1-
 mid.  surface     0.0000E+00  0.0000E+00  0.0000E+00  0.0000E+00  0.0000E+00  0.0000E+00
       2-
 mid.  surface     0.0000E+00  0.0000E+00  0.0000E+00  0.0000E+00  0.0000E+00  0.0000E+00
       8-
 mid.  surface     0.0000E+00  0.0000E+00  0.0000E+00  0.0000E+00  0.0000E+00  0.0000E+00
       9-
 mid.  surface     0.0000E+00  0.0000E+00  0.0000E+00  0.0000E+00  0.0000E+00  0.0000E+00
      10-
 mid.  surface     0.0000E+00  0.0000E+00  0.0000E+00  0.0000E+00  0.0000E+00  0.0000E+00
      11-
 mid.  surface     0.0000E+00  0.0000E+00  0.0000E+00  0.0000E+00  0.0000E+00  0.0000E+00
      12-
 mid.  surface     0.0000E+00  0.0000E+00  0.0000E+00  0.0000E+00  0.0000E+00  0.0000E+00
      17-
 mid.  surface     0.0000E+00  0.0000E+00  0.0000E+00  0.0000E+00  0.0000E+00  0.0000E+00
      18-
 mid.  surface     0.0000E+00  0.0000E+00  0.0000E+00  0.0000E+00  0.0000E+00  0.0000E+00
      19-
 mid.  surface     0.0000E+00  0.0000E+00  0.0000E+00  0.0000E+00  0.0000E+00  0.0000E+00
      20-
 mid.  surface     0.0000E+00  0.0000E+00  0.0000E+00  0.0000E+00  0.0000E+00  0.0000E+00
      21-
 mid.  surface     0.0000E+00  0.0000E+00  0.0000E+00  0.0000E+00  0.0000E+00  0.0000E+00
      22-
 mid.  surface     0.0000E+00  0.0000E+00  0.0000E+00  0.0000E+00  0.0000E+00  0.0000E+00
      23-
 mid.  surface     0.0000E+00  0.0000E+00  0.0000E+00  0.0000E+00  0.0000E+00  0.0000E+00
      40-
 mid.  surface     0.0000E+00  0.0000E+00  0.0000E+00  0.0000E+00  0.0000E+00  0.0000E+00
      41-
 mid.  surface     0.0000E+00  0.0000E+00  0.0000E+00  0.0000E+00  0.0000E+00  0.0000E+00
      85-
 mid.  surface     0.0000E+00  0.0000E+00  0.0000E+00  0.0000E+00  0.0000E+00  0.0000E+00
      86-
 mid.  surface     0.0000E+00  0.0000E+00  0.0000E+00  0.0000E+00  0.0000E+00  0.0000E+00
     100-
 mid.  surface     0.0000E+00  0.0000E+00  0.0000E+00  0.0000E+00  0.0000E+00  0.0000E+00
     110-
 mid.  surface     0.0000E+00  0.0000E+00  0.0000E+00  0.0000E+00  0.0000E+00  0.0000E+00



 n o d a l  s t r e s s  c a l c u l a t i o n s   f o r   t i m e  s t e p       10   ( at time 1.29245E+00 )

 node (global)
          stress       sig-xx      sig-yy      sig-zz      sig-xy      sig-yz      sig-zx       plastic
                                                                                                 strain 
       1-
 mid.  surface    -1.7100E+07 -3.9510E+07 -2.8510E+08  5.7067E+07 -1.4145E+07 -6.1751E+07 -7.2264E-05
       2-
 mid.  surface    -6.7700E+07 -3.4117E+07 -2.9144E+08  2.9138E+07 -5.2611E+06 -6.6592E+06  7.0393E-04
       8-
 mid.  surface    -2.2603E+07  6.7154E+07 -2.2618E+08 -1.2536E+07 -5.3229E+06  4.8378E+06 -1.3623E-04
       9-
 mid.  surface    -5.9010E+07 -3.1272E+07 -2.9805E+08 -2.7652E+07 -1.0235E+07  1.1639E+07  5.7583E-04
      10-
 mid.  surface    -5.2785E+07 -1.0681E+07 -2.7455E+08  9.9896E+06 -2.6703E+07  2.6923E+07  6.7751E-04
      11-
 mid.  surface    -2.2160E+07 -1.2749E+07 -2.6553E+08  2.4674E+07 -1.0015E+08 -4.3463E+06  3.5711E-04
      12-
 mid.  surface    -4.7813E+07 -4.5314E+07 -2.8033E+08  1.7940E+07 -8.9784E+07 -3.9531E+07  1.1754E-04
      17-
 mid.  surface     2.3115E+07 -1.7120E+07 -2.2390E+08  2.6411E+07 -4.2643E+07 -2.9411E+07  2.5915E-04
      18-
 mid.  surface    -9.8384E+06  4.5397E+07 -2.1223E+08  3.6345E+07 -7.2131E+06 -8.3842E+06  1.0239E-04
      19-
 mid.  surface    -3.8874E+07 -4.1750E+07 -2.5223E+08 -1.2617E+07 -2.7442E+07 -1.3494E+07  6.1791E-04
      20-
 mid.  surface    -2.1747E+07 -7.4314E+07 -2.9570E+08  1.7970E+07  2.1651E+07  1.9590E+07  1.8825E-04
      21-
 mid.  surface    -7.9124E+07 -8.2371E+07 -3.1147E+08 -2.0065E+07  2.0283E+07  1.3096E+07  5.3843E-04
      22-
 mid.  surface    -9.8978E+07 -1.0614E+08 -3.5769E+08  1.1921E+07  2.8934E+07 -4.1465E+07  3.8928E-06
      23-
 mid.  surface    -6.8736E+07 -7.3560E+07 -3.5908E+08  1.9760E+07  2.5356E+07 -3.4975E+07  1.6367E-04
      40-
 mid.  surface    -8.0077E+07 -4.5712E+07 -3.1354E+08  6.7644E+06 -1.1392E+07 -3.2295E+07  6.0693E-04
      41-
 mid.  surface    -3.9988E+07  7.1025E+06 -2.5073E+08  3.2489E+07 -1.3395E+07 -4.3326E+06  4.4402E-05
      85-
 mid.  surface    -1.1296E+08 -6.8877E+07 -3.4214E+08  2.2299E+07  3.1621E+07 -1.8632E+06  6.3298E-04
      86-
 mid.  surface    -7.3776E+07 -9.5540E+07 -3.3978E+08  5.1066E+07  7.5520E+07 -4.7850E+07 -8.8435E-05
     100-
 mid.  surface    -4.6757E+07  3.8272E+07 -2.4907E+08 -1.0083E+07 -2.1559E+07 -1.5035E+06 -1.5961E-04
     110-
 mid.  surface    -8.0935E+07 -6.1005E+07 -3.2442E+08 -2.6412E+07 -2.9697E+07 -3.4053E+07  5.3078E-04



 n o d a l  s t r a i n  c a l c u l a t i o n s   f o r   t i m e  s t e p       10   ( at time 1.29245E+00 )

 node (global)
          strain       eps-xx      eps-yy      eps-zz      eps-xy      eps-yz      eps-zx       
       1-
 mid.  surface     1.2972E-03  7.1350E-04 -3.6310E-03  1.1459E-03 -2.2687E-04 -1.2321E-03
       2-
 mid.  surface     1.4721E-03  2.1639E-03 -5.5041E-03  7.4450E-04 -1.4721E-04 -5.5121E-04
       8-
 mid.  surface     1.4450E-04  2.0691E-03 -3.0754E-03 -3.0697E-04 -2.2344E-06  1.0747E-04
       9-
 mid.  surface     1.4467E-03  2.0924E-03 -5.3886E-03 -5.2345E-04 -3.8417E-04  1.7735E-04
      10-
 mid.  surface     1.4582E-03  2.3863E-03 -5.4565E-03  3.0531E-04 -6.9028E-04  3.7403E-04
      11-
 mid.  surface     1.6321E-03  1.5784E-03 -4.6445E-03  5.2571E-04 -1.9924E-03 -3.0437E-04
      12-
 mid.  surface     1.1272E-03  9.6816E-04 -3.8699E-03  3.2547E-04 -1.6885E-03 -8.9775E-04
      17-
 mid.  surface     1.7518E-03  1.0957E-03 -3.8851E-03  6.1622E-04 -6.0550E-04 -8.2738E-04
      18-
 mid.  surface     6.2927E-04  1.9466E-03 -3.4149E-03  7.5794E-04 -1.0743E-04 -2.9080E-04
      19-
 mid.  surface     1.5290E-03  1.6467E-03 -4.7585E-03 -1.3470E-04 -3.2272E-04 -6.3174E-04
      20-
 mid.  surface     1.5971E-03  7.2227E-04 -4.1810E-03  4.2376E-04  1.3206E-04  5.3334E-04
      21-
 mid.  surface     1.2849E-03  1.4878E-03 -5.0211E-03 -2.8692E-04  1.9141E-05  2.5551E-04
      22-
 mid.  surface     8.9750E-04  5.9496E-04 -4.1643E-03  1.7361E-04  5.0263E-04 -7.1164E-04
      23-
 mid.  surface     1.5113E-03  1.1291E-03 -5.0238E-03  3.6634E-04  5.6581E-04 -6.4081E-04
      40-
 mid.  surface     1.3388E-03  2.0611E-03 -5.4907E-03  2.2750E-04 -4.8568E-04 -7.4772E-04
      41-
 mid.  surface     4.6958E-04  1.6105E-03 -3.4258E-03  6.7930E-04 -5.1722E-04  1.7080E-05
      85-
 mid.  surface     1.1305E-03  2.1113E-03 -5.7322E-03  6.1487E-04  1.2958E-04 -7.5001E-05
      86-
 mid.  surface     9.5129E-04  4.3693E-04 -3.8045E-03  1.0157E-03  1.3579E-03 -8.5446E-04
     100-
 mid.  surface    -1.2106E-06  1.8269E-03 -3.0477E-03 -2.4262E-04 -4.6311E-04  1.2194E-04
     110-
 mid.  surface     1.3573E-03  1.8008E-03 -5.3765E-03 -4.8247E-04 -8.1171E-04 -6.8280E-04



 n o d a l  s t r e s s  c a l c u l a t i o n s   f o r   t i m e  s t e p       18   ( at time 2.54839E+00 )

 node (global)
          stress       sig-xx      sig-yy      sig-zz      sig-xy      sig-yz      sig-zx       plastic
                                                                                                 strain 
       1-
 mid.  surface     4.7505E+07  9.9104E+07 -2.4230E+08  6.5308E+07 -2.0918E+07 -1.3650E+07  4.1980E-03
       2-
 mid.  surface    -5.7884E+08 -4.3359E+08 -7.5868E+08  4.1098E+07 -1.8341E+07  3.7809E+07  1.9965E-02
       8-
 mid.  surface     3.7995E+07  7.7647E+07 -1.9343E+08 -3.0915E+07  3.1960E+06  3.2896E+06  6.1910E-03
       9-
 mid.  surface    -7.1664E+07 -9.8115E+07 -3.5115E+08 -3.6746E+07  1.4824E+07  1.3652E+07  1.7307E-02
      10-
 mid.  surface     4.0345E+07  4.1250E+07 -1.9237E+08  5.3128E+06 -4.0927E+07  2.5049E+07  1.9619E-02
      11-
 mid.  surface     2.7427E+08  2.6561E+08 -1.6966E+07  1.1090E+07 -1.5104E+08 -2.2639E+07  1.1381E-02
      12-
 mid.  surface     2.4638E+08  2.5969E+08  3.2211E+07 -6.7666E+04 -1.4586E+08 -7.1123E+07  1.1232E-02
      17-
 mid.  surface     1.5813E+08  1.3420E+08 -6.6664E+07  1.6017E+07 -9.3475E+07 -6.4593E+07  1.3255E-02
      18-
 mid.  surface     1.1019E+08  1.4353E+08 -7.1443E+07  2.1145E+07 -2.9340E+07 -2.6117E+07  1.1923E-02
      19-
 mid.  surface    -2.0174E+08 -1.5743E+08 -3.3217E+08 -1.9805E+07 -7.8140E+07 -5.5761E+07  2.2403E-02
      20-
 mid.  surface    -1.1133E+08 -1.5170E+08 -4.0240E+08  2.0001E+07  4.0763E+07  4.2265E+07  1.0588E-02
      21-
 mid.  surface    -4.8169E+08 -4.7683E+08 -6.7930E+08 -2.1039E+07  6.0451E+07  5.6184E+07  2.0279E-02
      22-
 mid.  surface    -1.0432E+08 -1.3015E+08 -4.0095E+08  1.7264E+06  7.4461E+07  6.1263E+06  8.8320E-03
      23-
 mid.  surface    -1.9458E+07 -4.5772E+07 -4.0006E+08  1.3924E+07  6.6403E+07  9.4075E+06  8.0674E-03
      40-
 mid.  surface    -1.0230E+08 -9.9951E+07 -3.6041E+08  4.1361E+06  2.2248E+07 -1.5418E+07  1.8569E-02
      41-
 mid.  surface    -8.6532E+07 -3.9587E+07 -2.7788E+08  2.0943E+07 -2.4661E+06  6.3177E+06  1.0360E-02
      85-
 mid.  surface    -7.6528E+08 -6.6165E+08 -9.4737E+08  2.7176E+07  8.8713E+07 -4.7039E+07  2.0171E-02
      86-
 mid.  surface    -1.3757E+08 -1.3328E+08 -3.9936E+08  5.6387E+07  1.5634E+08 -9.2984E+07  6.3537E-03
     100-
 mid.  surface    -1.0455E+08 -4.6937E+07 -3.1437E+08 -2.1198E+07 -4.5809E+07  6.8817E+06  5.7668E-03
     110-
 mid.  surface    -1.2778E+08 -1.5117E+08 -3.9419E+08 -2.6346E+07 -3.1994E+07 -3.1763E+07  1.7417E-02



 n o d a l  s t r a i n  c a l c u l a t i o n s   f o r   t i m e  s t e p       18   ( at time 2.54839E+00 )

 node (global)
          strain       eps-xx      eps-yy      eps-zz      eps-xy      eps-yz      eps-zx       
       1-
 mid.  surface     2.9206E-03  8.1273E-03 -1.1471E-02  5.9931E-03 -9.2217E-04 -1.1781E-03
       2-
 mid.  surface     3.7356E-03  1.4461E-02 -2.6647E-02  3.0933E-03 -5.0860E-04  8.6273E-04
       8-
 mid.  surface     4.2985E-03  7.8822E-03 -1.2600E-02 -2.7030E-03  3.1311E-04  4.1602E-04
       9-
 mid.  surface     9.9600E-03  7.7621E-03 -2.0350E-02 -3.0693E-03  5.8046E-04  9.0158E-04
      10-
 mid.  surface     9.5183E-03  9.6608E-03 -1.9875E-02  5.5325E-04 -3.9053E-03  1.7855E-03
      11-
 mid.  surface     9.2235E-03  8.7620E-03 -1.5639E-02  1.1198E-03 -1.2175E-02 -1.9004E-03
      12-
 mid.  surface     5.9675E-03  7.6411E-03 -1.1151E-02  3.6629E-04 -1.1768E-02 -6.6362E-03
      17-
 mid.  surface     9.2085E-03  7.1254E-03 -1.5405E-02  1.4973E-03 -7.6526E-03 -6.2248E-03
      18-
 mid.  surface     5.6592E-03  8.6955E-03 -1.3571E-02  1.8727E-03 -3.1730E-03 -2.2712E-03
      19-
 mid.  surface     7.4710E-03  1.0173E-02 -2.1103E-02 -1.7566E-03 -5.4661E-03 -6.9492E-03
      20-
 mid.  surface     9.0259E-03  5.4903E-03 -1.7832E-02  1.8078E-03  3.6730E-03  3.9050E-03
      21-
 mid.  surface     7.9685E-03  7.8127E-03 -2.3774E-02 -1.9233E-03  2.9906E-03  4.5798E-03
      22-
 mid.  surface     6.2897E-03  5.0469E-03 -1.4473E-02  4.6375E-04  5.3962E-03  1.5817E-03
      23-
 mid.  surface     9.2869E-03  7.2164E-03 -1.8859E-02  1.2474E-03  7.1743E-03  6.4518E-04
      40-
 mid.  surface     8.8281E-03  8.9177E-03 -2.0589E-02  3.8357E-04  8.5311E-04 -2.4037E-03
      41-
 mid.  surface     3.8917E-03  8.0340E-03 -1.3917E-02  1.8077E-03 -1.2729E-03  2.4253E-04
      85-
 mid.  surface     3.6930E-03  1.1865E-02 -2.6930E-02  1.8792E-03  3.0545E-03 -4.6697E-03
      86-
 mid.  surface     2.9514E-03  4.9841E-03 -1.1130E-02  5.2477E-03  9.8759E-03 -7.0085E-03
     100-
 mid.  surface     2.3371E-03  7.3518E-03 -1.1940E-02 -1.8182E-03 -4.0701E-03  5.4199E-04
     110-
 mid.  surface     9.2410E-03  7.0962E-03 -1.9707E-02 -2.1766E-03 -3.5378E-03 -3.2222E-03



 n o d a l  s t r e s s  c a l c u l a t i o n s   f o r   t i m e  s t e p       31   ( at time 3.80433E+00 )

 node (global)
          stress       sig-xx      sig-yy      sig-zz      sig-xy      sig-yz      sig-zx       plastic
                                                                                                 strain 
       1-
 mid.  surface    -1.2576E+08 -2.1120E+06 -2.7688E+08  6.4849E+07 -2.4760E+07  5.5903E+07  1.4855E-02
       2-
 mid.  surface    -9.2740E+08 -8.4634E+08 -1.1192E+09  3.0936E+07 -3.6917E+07  1.0660E+08  3.1865E-02
       8-
 mid.  surface     1.2199E+08  1.8417E+08 -1.1663E+08 -2.7940E+07  1.7209E+07  3.7671E+06  1.3499E-02
       9-
 mid.  surface    -1.9575E+08 -1.9850E+08 -4.8153E+08 -1.7234E+07  1.4407E+07  7.0937E+06  2.8062E-02
      10-
 mid.  surface    -4.0282E+07 -6.0437E+07 -2.5999E+08  2.1399E+07 -4.9359E+07  1.3537E+07  3.2380E-02
      11-
 mid.  surface     3.1957E+08  2.9178E+08  8.1458E+07  1.6935E+07 -1.4742E+08 -3.4144E+07  2.2975E-02
      12-
 mid.  surface     4.9222E+08  5.0059E+08  2.9650E+08  2.1449E+07 -1.7658E+08 -1.0155E+08  2.0855E-02
      17-
 mid.  surface     2.2895E+08  2.4048E+08  2.4504E+07  2.5887E+07 -1.4568E+08 -6.6021E+07  2.5118E-02
      18-
 mid.  surface     2.1079E+08  2.5235E+08  2.9210E+07  1.6339E+07 -4.8059E+07 -1.7301E+07  2.2172E-02
      19-
 mid.  surface    -1.4438E+08 -1.4709E+08 -3.6128E+08  1.3324E+07 -1.7106E+08 -1.0004E+08  3.3062E-02
      20-
 mid.  surface    -1.2964E+08 -1.1669E+08 -4.1026E+08  3.0591E+07  6.0583E+07  5.0734E+07  2.0712E-02
      21-
 mid.  surface    -5.0975E+08 -5.6919E+08 -8.3491E+08  1.6767E+07  9.3589E+07  9.2446E+07  2.9901E-02
      22-
 mid.  surface    -4.1129E+06 -4.3452E+07 -3.1006E+08  2.8421E+07  1.0866E+08  5.7377E+07  1.7610E-02
      23-
 mid.  surface    -1.0390E+08 -1.2871E+08 -4.1065E+08  1.8721E+07  8.1302E+07  4.0102E+07  1.8920E-02
      40-
 mid.  surface    -2.7658E+08 -3.0178E+08 -5.1038E+08  8.3776E+06  2.6981E+07 -8.2551E+06  3.1462E-02
      41-
 mid.  surface    -7.6784E+07 -3.2613E+07 -2.6072E+08  1.8566E+06  1.6391E+07  1.1957E+07  2.0893E-02
      85-
 mid.  surface    -1.1242E+09 -1.1118E+09 -1.3064E+09 -1.8552E+07  2.0331E+08 -9.5728E+07  3.3827E-02
      86-
 mid.  surface    -2.7516E+08 -2.1560E+08 -3.8941E+08  2.8843E+07  2.4619E+08 -1.1517E+08  1.9789E-02
     100-
 mid.  surface    -6.2293E+07 -2.1712E+07 -2.9159E+08 -5.7531E+06 -5.3131E+07 -3.7299E+06  1.3067E-02
     110-
 mid.  surface    -2.9103E+08 -3.2068E+08 -5.6486E+08  2.8339E+06 -5.0669E+07 -3.2433E+07  2.8371E-02



 n o d a l  s t r a i n  c a l c u l a t i o n s   f o r   t i m e  s t e p       31   ( at time 3.80433E+00 )

 node (global)
          strain       eps-xx      eps-yy      eps-zz      eps-xy      eps-yz      eps-zx       
       1-
 mid.  surface     4.0958E-03  1.4002E-02 -1.9779E-02  8.6423E-03 -1.0201E-03  2.5089E-03
       2-
 mid.  surface     5.0858E-03  1.8863E-02 -3.7487E-02  4.5065E-03 -2.2077E-04  5.9864E-03
       8-
 mid.  surface     6.7396E-03  1.3645E-02 -1.9552E-02 -3.7361E-03  1.3797E-03  5.6619E-04
       9-
 mid.  surface     1.4634E-02  1.2868E-02 -3.1881E-02 -3.6642E-03  1.2606E-03  1.1522E-03
      10-
 mid.  surface     1.4593E-02  1.3613E-02 -3.0157E-02  2.0787E-03 -6.6145E-03  1.9220E-03
      11-
 mid.  surface     1.4734E-02  1.2420E-02 -2.4083E-02  2.3855E-03 -1.8615E-02 -4.3577E-03
      12-
 mid.  surface     1.1168E-02  1.1953E-02 -1.7170E-02  1.6993E-03 -1.8681E-02 -1.2617E-02
      17-
 mid.  surface     1.3586E-02  1.2283E-02 -2.3735E-02  2.8223E-03 -1.3584E-02 -9.2775E-03
      18-
 mid.  surface     8.9071E-03  1.4101E-02 -2.0786E-02  2.8283E-03 -5.1914E-03 -2.8582E-03
      19-
 mid.  surface     1.2325E-02  1.4145E-02 -2.9798E-02 -5.8095E-04 -1.1259E-02 -1.2287E-02
      20-
 mid.  surface     1.3392E-02  1.1049E-02 -2.7791E-02  3.2454E-03  7.4773E-03  6.2766E-03
      21-
 mid.  surface     1.4430E-02  1.1186E-02 -3.5072E-02 -4.4281E-04  6.6424E-03  9.7870E-03
      22-
 mid.  surface     1.2829E-02  8.9211E-03 -2.3713E-02  2.3760E-03  8.9809E-03  5.4582E-03
      23-
 mid.  surface     1.4723E-02  1.1327E-02 -2.9339E-02  2.4659E-03  1.1303E-02  2.5004E-03
      40-
 mid.  surface     1.3752E-02  1.2214E-02 -3.1352E-02  9.3842E-04  1.0158E-03 -3.1289E-03
      41-
 mid.  surface     6.8105E-03  1.2788E-02 -2.1461E-02  1.7535E-03 -9.9535E-04  5.8005E-04
      85-
 mid.  surface     5.9299E-03  1.4808E-02 -3.7631E-02  1.0057E-03  6.8012E-03 -1.0483E-02
      86-
 mid.  surface     4.9992E-03  9.4557E-03 -1.8656E-02  6.1199E-03  1.5023E-02 -1.4302E-02
     100-
 mid.  surface     5.0030E-03  1.1627E-02 -1.8465E-02 -1.7148E-03 -6.6319E-03  3.5968E-04
     110-
 mid.  surface     1.4182E-02  1.0623E-02 -3.0622E-02 -1.5995E-03 -6.6727E-03 -4.6499E-03



 n o d a l  s t r e s s  c a l c u l a t i o n s   f o r   t i m e  s t e p       39   ( at time 5.06028E+00 )

 node (global)
          stress       sig-xx      sig-yy      sig-zz      sig-xy      sig-yz      sig-zx       plastic
                                                                                                 strain 
       1-
 mid.  surface    -3.5062E+07  2.5152E+07 -2.3654E+08  3.7373E+07 -2.0024E+07  1.5375E+07  2.7237E-02
       2-
 mid.  surface    -1.1032E+09 -1.0356E+09 -1.3073E+09  3.4288E+07 -2.2912E+07  3.4521E+07  4.7925E-02
       8-
 mid.  surface     1.8042E+08  2.2796E+08 -5.9148E+07 -1.9438E+07 -1.2387E+05  3.2723E+05  2.4662E-02
       9-
 mid.  surface    -2.1911E+08 -2.2311E+08 -4.9176E+08 -1.7578E+07 -8.1667E+05  2.2378E+06  4.2211E-02
      10-
 mid.  surface     1.0379E+07 -5.8408E+06 -2.4817E+08  1.0733E+07 -4.9621E+07  2.0457E+06  4.5497E-02
      11-
 mid.  surface     4.2577E+08  3.9618E+08  1.4997E+08  9.1956E+06 -1.1423E+08 -3.3300E+07  3.3788E-02
      12-
 mid.  surface     6.1655E+08  6.3707E+08  3.6616E+08 -8.3349E+05 -1.1604E+08 -8.9187E+07  2.8614E-02
      17-
 mid.  surface     2.6506E+08  2.7315E+08  2.8370E+07  1.4875E+07 -1.1189E+08 -6.3246E+07  3.7357E-02
      18-
 mid.  surface     2.9686E+08  3.3254E+08  7.6061E+07  1.2804E+07 -4.8286E+07 -2.0208E+07  3.3370E-02
      19-
 mid.  surface    -2.3180E+08 -1.9570E+08 -4.7472E+08  1.1315E+06 -1.0181E+08 -9.5422E+07  4.4079E-02
      20-
 mid.  surface    -1.5927E+08 -1.7475E+08 -4.6148E+08  2.0779E+07  4.1675E+07  5.1044E+07  3.2347E-02
      21-
 mid.  surface    -6.7457E+08 -6.9788E+08 -9.8788E+08  6.7893E+06  6.8647E+07  7.2419E+07  4.1626E-02
      22-
 mid.  surface     1.8717E+07 -1.5249E+06 -2.9752E+08  1.2118E+07  8.3612E+07  4.9882E+07  2.6287E-02
      23-
 mid.  surface    -7.1504E+07 -9.7959E+07 -3.9394E+08  1.0675E+07  7.7350E+07  3.7644E+07  2.9952E-02
      40-
 mid.  surface    -3.4293E+08 -3.5914E+08 -6.2310E+08 -1.5193E+06  3.0232E+07 -6.2296E+06  4.3925E-02
      41-
 mid.  surface    -8.2340E+07 -5.4384E+07 -3.2359E+08  4.8551E+06  1.5766E+07  1.5084E+07  3.1336E-02
      85-
 mid.  surface    -1.3979E+09 -1.3778E+09 -1.6052E+09  1.0056E+07  1.0360E+08 -5.0935E+07  5.0271E-02
      86-
 mid.  surface    -2.7714E+08 -2.6723E+08 -4.7211E+08  2.7806E+07  1.3885E+08 -5.5871E+07  3.2705E-02
     100-
 mid.  surface    -1.2818E+08 -9.8975E+07 -3.7011E+08 -1.2350E+07 -2.1237E+07  8.9561E+06  2.3664E-02
     110-
 mid.  surface    -4.2763E+08 -4.5287E+08 -7.0758E+08 -1.3712E+07 -2.0447E+07 -1.6885E+07  4.1842E-02



 n o d a l  s t r a i n  c a l c u l a t i o n s   f o r   t i m e  s t e p       39   ( at time 5.06028E+00 )

 node (global)
          strain       eps-xx      eps-yy      eps-zz      eps-xy      eps-yz      eps-zx       
       1-
 mid.  surface     9.1069E-03  2.0222E-02 -3.0265E-02  1.0121E-02 -1.5927E-03  2.2943E-03
       2-
 mid.  surface     9.9541E-03  2.6256E-02 -5.2381E-02  6.5111E-03 -6.0142E-04  6.1493E-03
       8-
 mid.  surface     1.0869E-02  2.0351E-02 -2.9699E-02 -4.6375E-03  1.2622E-03  5.7167E-04
       9-
 mid.  surface     2.1065E-02  1.9203E-02 -4.5041E-02 -4.6245E-03  8.0473E-04  1.1143E-03
      10-
 mid.  surface     2.1078E-02  1.9401E-02 -4.1980E-02  2.6705E-03 -9.1414E-03  1.8384E-03
      11-
 mid.  surface     2.1192E-02  1.7095E-02 -3.3976E-02  3.0057E-03 -2.3157E-02 -5.6750E-03
      12-
 mid.  surface     1.4728E-02  1.7085E-02 -2.4318E-02  1.3578E-03 -2.3306E-02 -1.6591E-02
      17-
 mid.  surface     1.9043E-02  1.7974E-02 -3.4619E-02  3.5796E-03 -1.7271E-02 -1.1977E-02
      18-
 mid.  surface     1.3205E-02  2.0515E-02 -3.0554E-02  3.6575E-03 -7.1837E-03 -3.8203E-03
      19-
 mid.  surface     1.5792E-02  2.0407E-02 -4.0741E-02 -6.5269E-04 -1.4099E-02 -1.6330E-02
      20-
 mid.  surface     1.9793E-02  1.5964E-02 -3.9885E-02  4.1718E-03  9.3379E-03  8.6511E-03
      21-
 mid.  surface     1.9699E-02  1.6398E-02 -4.7805E-02 -3.1506E-04  8.8205E-03  1.2975E-02
      22-
 mid.  surface     1.7728E-02  1.3551E-02 -3.2991E-02  2.6810E-03  1.1438E-02  7.5318E-03
      23-
 mid.  surface     2.1407E-02  1.6302E-02 -4.0749E-02  2.8834E-03  1.4426E-02  3.9234E-03
      40-
 mid.  surface     1.9779E-02  1.7431E-02 -4.3817E-02  7.2649E-04  2.0244E-03 -3.7436E-03
      41-
 mid.  surface     1.0948E-02  1.8276E-02 -3.1581E-02  2.1242E-03 -2.1537E-04  1.3232E-03
      85-
 mid.  surface     1.1044E-02  2.1032E-02 -5.3066E-02  2.1585E-03  9.3228E-03 -1.2979E-02
      86-
 mid.  surface     1.0419E-02  1.4096E-02 -2.9468E-02  7.5538E-03  1.9540E-02 -1.6950E-02
     100-
 mid.  surface     8.7298E-03  1.6849E-02 -2.8522E-02 -2.5363E-03 -7.5058E-03  1.0690E-03
     110-
 mid.  surface     2.0381E-02  1.5497E-02 -4.3753E-02 -2.6937E-03 -7.8834E-03 -5.5671E-03



 n o d a l  s t r e s s  c a l c u l a t i o n s   f o r   t i m e  s t e p       47   ( at time 6.31622E+00 )

 node (global)
          stress       sig-xx      sig-yy      sig-zz      sig-xy      sig-yz      sig-zx       plastic
                                                                                                 strain 
       1-
 mid.  surface     2.1341E+08  2.0919E+08 -2.5417E+07  2.4549E+07 -2.7408E+07 -4.1722E+07  3.8481E-02
       2-
 mid.  surface    -1.1988E+09 -1.1815E+09 -1.4302E+09  1.9699E+07 -2.2792E+07 -1.5737E+06  6.2820E-02
       8-
 mid.  surface     2.6961E+08  3.1992E+08  3.2094E+07 -2.2047E+07 -2.1184E+07  5.9646E+05  3.4775E-02
       9-
 mid.  surface    -2.7662E+08 -2.7693E+08 -5.4811E+08 -2.5206E+07 -9.7517E+06  4.3483E+06  5.5736E-02
      10-
 mid.  surface     3.7586E+07  2.4834E+07 -2.2864E+08  1.3978E+07 -5.7872E+07 -1.5532E+06  5.8452E-02
      11-
 mid.  surface     3.6961E+08  3.7255E+08  7.9908E+07 -1.0740E+07 -1.0818E+08 -2.4824E+07  4.2440E-02
      12-
 mid.  surface     5.5556E+08  5.7399E+08  2.9138E+08 -1.4797E+07 -6.5268E+07 -3.4328E+07  3.7602E-02
      17-
 mid.  surface     2.3638E+08  2.6773E+08 -2.5247E+07  1.2879E+06 -1.2816E+08 -6.5693E+07  4.7282E-02
      18-
 mid.  surface     4.0267E+08  4.3106E+08  1.7147E+08  1.7009E+07 -5.9385E+07 -2.4516E+07  4.4704E-02
      19-
 mid.  surface    -4.4065E+08 -3.9756E+08 -6.8098E+08 -7.6524E+06 -8.0070E+07 -8.0884E+07  5.6183E-02
      20-
 mid.  surface    -7.9843E+07 -1.0325E+08 -4.0599E+08  3.0137E+07  3.6994E+07  3.7077E+07  4.3289E-02
      21-
 mid.  surface    -5.5321E+08 -5.6954E+08 -8.5740E+08  4.9989E+07  5.3136E+07  4.7424E+07  5.5913E-02
      22-
 mid.  surface     2.8458E+08  2.4237E+08 -1.9649E+07  3.2937E+07  9.1495E+07  6.4464E+07  3.9346E-02
      23-
 mid.  surface     2.9568E+07 -2.9424E+07 -3.1762E+08  7.2093E+06  9.0474E+07  3.3465E+07  4.0885E-02
      40-
 mid.  surface    -4.4249E+08 -4.5362E+08 -7.2963E+08  1.9939E+06  3.8778E+07 -7.2363E+06  5.6487E-02
      41-
 mid.  surface    -7.5386E+07 -5.0256E+07 -3.2830E+08  6.0627E+06  2.1815E+07  1.3313E+07  4.2049E-02
      85-
 mid.  surface    -1.8255E+09 -1.7572E+09 -2.0486E+09 -5.6784E+06  6.4904E+07 -3.1330E+06  6.3413E-02
      86-
 mid.  surface    -3.2419E+08 -2.7737E+08 -5.4559E+08  9.7622E+06  8.5121E+07 -3.5740E+07  4.2713E-02
     100-
 mid.  surface    -1.4117E+08 -1.0056E+08 -3.7689E+08 -9.1216E+06 -1.2296E+07  1.0852E+07  3.3636E-02
     110-
 mid.  surface    -5.6194E+08 -5.7881E+08 -8.4011E+08 -1.2273E+07 -1.0454E+06 -1.5438E+07  5.5290E-02



 n o d a l  s t r a i n  c a l c u l a t i o n s   f o r   t i m e  s t e p       47   ( at time 6.31622E+00 )

 node (global)
          strain       eps-xx      eps-yy      eps-zz      eps-xy      eps-yz      eps-zx       
       1-
 mid.  surface     1.5951E-02  2.5087E-02 -3.8916E-02  1.2147E-02 -2.7557E-03 -1.7505E-04
       2-
 mid.  surface     1.6244E-02  3.1680E-02 -6.5814E-02  8.4713E-03 -1.0830E-03  6.7856E-03
       8-
 mid.  surface     1.4449E-02  2.6935E-02 -3.8630E-02 -5.8030E-03  4.1209E-04  7.0432E-04
       9-
 mid.  surface     2.6865E-02  2.5349E-02 -5.7890E-02 -6.0305E-03  2.3735E-04  1.3075E-03
      10-
 mid.  surface     2.7207E-02  2.5125E-02 -5.3563E-02  3.7194E-03 -1.1719E-02  1.7512E-03
      11-
 mid.  surface     2.5140E-02  2.1561E-02 -4.3201E-02  2.3814E-03 -2.7769E-02 -6.3066E-03
      12-
 mid.  surface     1.8156E-02  2.1531E-02 -3.3179E-02  3.5818E-04 -2.5947E-02 -1.7554E-02
      17-
 mid.  surface     2.2887E-02  2.3619E-02 -4.4612E-02  3.3571E-03 -2.1693E-02 -1.4268E-02
      18-
 mid.  surface     1.7792E-02  2.6895E-02 -4.0153E-02  4.9240E-03 -9.2947E-03 -4.9306E-03
      19-
 mid.  surface     1.9210E-02  2.5802E-02 -5.2526E-02 -1.3409E-03 -1.6434E-02 -1.9129E-02
      20-
 mid.  surface     2.6647E-02  2.1316E-02 -5.1227E-02  5.8811E-03  1.1574E-02  1.0548E-02
      21-
 mid.  surface     2.7355E-02  2.3743E-02 -6.1148E-02  2.7285E-03  1.0513E-02  1.4159E-02
      22-
 mid.  surface     2.6212E-02  1.9578E-02 -4.3907E-02  4.6371E-03  1.4318E-02  9.6817E-03
      23-
 mid.  surface     2.9480E-02  2.0237E-02 -5.1706E-02  3.3911E-03  1.8147E-02  5.1281E-03
      40-
 mid.  surface     2.5453E-02  2.2485E-02 -5.6063E-02  9.5607E-04  3.2123E-03 -4.4245E-03
      41-
 mid.  surface     1.5184E-02  2.3949E-02 -4.1519E-02  2.5583E-03  8.1952E-04  1.7217E-03
      85-
 mid.  surface     1.2786E-02  2.7809E-02 -6.7596E-02  1.7666E-03  1.1469E-02 -1.2337E-02
      86-
 mid.  surface     1.2995E-02  2.0455E-02 -3.9110E-02  7.6802E-03  2.2613E-02 -1.9298E-02
     100-
 mid.  surface     1.1864E-02  2.2498E-02 -3.7447E-02 -2.9305E-03 -8.4277E-03  1.6731E-03
     110-
 mid.  surface     2.6192E-02  2.0681E-02 -5.6703E-02 -3.2697E-03 -8.5733E-03 -6.6880E-03



 n o d a l  s t r e s s  c a l c u l a t i o n s   f o r   t i m e  s t e p       55   ( at time 7.57216E+00 )

 node (global)
          stress       sig-xx      sig-yy      sig-zz      sig-xy      sig-yz      sig-zx       plastic
                                                                                                 strain 
       1-
 mid.  surface    -2.3862E+09 -2.2712E+09 -1.2785E+09 -3.9187E+07  1.1364E+08  1.0258E+08  2.2094E-04
       2-
 mid.  surface    -3.9414E+09 -3.9103E+09 -2.8771E+09 -4.6293E+07  1.1168E+08  1.4019E+08  2.4479E-02
       8-
 mid.  surface     3.4051E+08  3.7317E+08  1.0687E+08 -2.1116E+07 -3.9205E+07  2.2003E+06  4.5992E-02
       9-
 mid.  surface    -3.4840E+08 -3.6263E+08 -6.1733E+08 -2.8291E+07 -1.7857E+07  7.5069E+06  6.9898E-02
      10-
 mid.  surface     1.2230E+08  1.0264E+08 -1.6368E+08  1.4881E+07 -8.5264E+07 -1.0344E+07  7.0341E-02
      11-
 mid.  surface     4.3903E+08  4.1913E+08  1.4032E+08 -5.8525E+06 -9.7302E+07 -1.8669E+07  5.1556E-02
      12-
 mid.  surface    -6.0689E+08 -5.3756E+08 -1.9992E+08 -1.0524E+07 -5.8279E+06  6.3928E+06  2.2665E-02
      17-
 mid.  surface     8.2195E+07  1.0263E+08 -1.7518E+08 -1.9298E+07 -1.1665E+08 -6.0461E+07  5.9940E-02
      18-
 mid.  surface     5.1242E+08  5.2794E+08  2.5519E+08  1.8674E+07 -8.8919E+07 -3.1544E+07  5.5711E-02
      19-
 mid.  surface    -1.8808E+09 -1.8282E+09 -1.4765E+09 -2.6119E+07 -2.8329E+07 -6.4307E+06  4.3893E-02
      20-
 mid.  surface    -9.7536E+07 -1.1496E+08 -4.1185E+08  1.4784E+07  6.1396E+07  4.5117E+07  5.7286E-02
      21-
 mid.  surface     7.7715E+08  7.2476E+08 -2.5776E+08  5.5486E+07 -2.3847E+07 -2.3179E+07  9.9479E-02
      22-
 mid.  surface     1.8551E+09  1.8317E+09  8.4080E+08  7.3829E+07  4.4329E+06 -2.1393E+07  8.1227E-02
      23-
 mid.  surface     1.8450E+08  1.2616E+08 -1.4661E+08  2.5490E+07  1.0570E+08  5.6153E+07  5.3168E-02
      40-
 mid.  surface    -4.8646E+08 -5.1980E+08 -8.0204E+08 -1.0542E+06  5.1371E+07 -4.4922E+06  6.8451E-02
      41-
 mid.  surface    -1.3041E+08 -1.0887E+08 -3.9806E+08 -2.5684E+06  3.3090E+07  1.3968E+07  5.2982E-02
      85-
 mid.  surface     1.0245E+09  9.3423E+08 -7.0142E+08  4.6824E+07 -6.9835E+07 -1.5183E+08  1.3496E-01
      86-
 mid.  surface     2.6747E+09  2.6681E+09  9.9567E+08  6.1615E+07 -6.2562E+07 -1.8512E+08  1.1450E-01
     100-
 mid.  surface    -1.2209E+08 -6.8336E+07 -3.3570E+08 -4.8742E+06 -1.3694E+06  1.6478E+07  4.5399E-02
     110-
 mid.  surface    -6.8673E+08 -6.8533E+08 -9.4259E+08 -7.9988E+06  2.0476E+07 -8.8465E+06  7.0110E-02



 n o d a l  s t r a i n  c a l c u l a t i o n s   f o r   t i m e  s t e p       55   ( at time 7.57216E+00 )

 node (global)
          strain       eps-xx      eps-yy      eps-zz      eps-xy      eps-yz      eps-zx       
       1-
 mid.  surface     2.3496E-02  3.3905E-02 -5.1435E-02  1.3321E-02 -3.1835E-03 -1.5080E-03
       2-
 mid.  surface     2.5226E-02  3.6805E-02 -7.8881E-02  9.2372E-03 -7.7846E-04  7.9772E-03
       8-
 mid.  surface     1.8707E-02  3.3082E-02 -4.8143E-02 -6.8932E-03 -1.0561E-03  9.2310E-04
       9-
 mid.  surface     3.3110E-02  3.0843E-02 -7.0815E-02 -7.5350E-03 -5.7814E-04  1.6363E-03
      10-
 mid.  surface     3.3484E-02  3.0491E-02 -6.4238E-02  4.9152E-03 -1.5417E-02  1.3452E-03
      11-
 mid.  surface     3.0587E-02  2.5501E-02 -5.1800E-02  2.2013E-03 -3.2437E-02 -7.2079E-03
      12-
 mid.  surface     2.4401E-02  2.9002E-02 -4.3102E-02  2.1528E-03 -2.9597E-02 -2.0665E-02
      17-
 mid.  surface     2.7518E-02  2.9212E-02 -5.7121E-02  2.2368E-03 -2.6058E-02 -1.6585E-02
      18-
 mid.  surface     2.3017E-02  3.2981E-02 -5.0164E-02  6.4465E-03 -1.2231E-02 -6.0784E-03
      19-
 mid.  surface     2.5533E-02  3.2609E-02 -6.6198E-02 -5.7696E-04 -1.9819E-02 -2.1556E-02
      20-
 mid.  surface     3.3904E-02  2.7751E-02 -6.5236E-02  6.3665E-03  1.5329E-02  1.2939E-02
      21-
 mid.  surface     3.3109E-02  3.0074E-02 -7.6563E-02  3.7705E-03  1.2526E-02  1.6742E-02
      22-
 mid.  surface     3.1428E-02  2.6936E-02 -5.6005E-02  7.2199E-03  1.6526E-02  1.1181E-02
      23-
 mid.  surface     3.7626E-02  2.4875E-02 -6.2338E-02  4.8495E-03  2.1939E-02  7.3952E-03
      40-
 mid.  surface     3.2027E-02  2.6681E-02 -6.7813E-02  8.8778E-04  4.7316E-03 -4.9013E-03
      41-
 mid.  surface     1.9508E-02  2.9360E-02 -5.2208E-02  2.3993E-03  2.8929E-03  2.3286E-03
      85-
 mid.  surface     1.7467E-02  3.2571E-02 -8.1388E-02  1.0694E-03  1.4465E-02 -1.4078E-02
      86-
 mid.  surface     1.6429E-02  2.8789E-02 -5.2339E-02  7.7527E-03  2.5336E-02 -2.3409E-02
     100-
 mid.  surface     1.5197E-02  2.9232E-02 -4.7124E-02 -3.0517E-03 -9.2141E-03  2.5539E-03
     110-
 mid.  surface     3.1770E-02  2.6692E-02 -6.9978E-02 -3.5472E-03 -8.7866E-03 -7.5662E-03



 n o d a l  s t r e s s  c a l c u l a t i o n s   f o r   t i m e  s t e p       63   ( at time 8.82811E+00 )

 node (global)
          stress       sig-xx      sig-yy      sig-zz      sig-xy      sig-yz      sig-zx       plastic
                                                                                                 strain 
       1-
 mid.  surface    -2.0616E+09 -2.0758E+09 -1.3867E+09  3.2698E+07  1.0106E+08  1.0903E+08 -1.9856E-02
       2-
 mid.  surface    -3.3990E+09 -3.4297E+09 -2.9516E+09  6.9529E+07  9.1041E+07  1.0761E+08  1.2754E-02
       8-
 mid.  surface     4.3439E+08  4.8115E+08  2.2065E+08 -1.1104E+07 -5.5800E+07 -6.3715E+06  5.9333E-02
       9-
 mid.  surface    -3.3926E+08 -3.1546E+08 -5.8043E+08 -1.8908E+07 -4.4942E+07 -5.2876E+06  8.5087E-02
      10-
 mid.  surface     1.4809E+08  1.1264E+08 -1.6822E+08 -7.1145E+06 -8.6557E+07  2.6145E+06  8.0424E-02
      11-
 mid.  surface     4.4972E+08  3.9685E+08  1.4722E+08 -1.5187E+07 -7.5855E+07 -2.2060E+07  6.2981E-02
      12-
 mid.  surface    -1.1672E+09 -1.1323E+09 -5.5515E+08 -9.5144E+06 -3.2590E+06  1.5078E+07 -2.8284E-03
      17-
 mid.  surface    -4.2980E+07 -6.6157E+07 -2.9738E+08 -1.9850E+07 -1.1842E+08 -7.4005E+07  7.4798E-02
      18-
 mid.  surface     5.5879E+08  5.5095E+08  2.7082E+08 -3.7666E+06 -1.1949E+08 -2.6475E+07  6.5460E-02
      19-
 mid.  surface    -1.9681E+09 -1.9362E+09 -1.7598E+09  1.8511E+07 -2.9474E+07 -5.0362E+06  3.8769E-02
      20-
 mid.  surface    -7.8919E+07 -5.5468E+07 -3.6933E+08  2.3267E+07  3.6659E+07  1.7314E+07  7.1990E-02
      21-
 mid.  surface     5.0848E+08  5.3298E+08 -3.1464E+08 -1.2821E+07 -1.7825E+07 -1.1344E+07  1.3149E-01
      22-
 mid.  surface     1.1361E+09  1.1787E+09  7.0374E+08 -2.6990E+07  1.2635E+07  1.7692E+06  9.6313E-02
      23-
 mid.  surface     3.0517E+08  2.8657E+08 -2.1309E+06  2.4239E+07  1.0223E+08  4.4728E+07  6.7054E-02
      40-
 mid.  surface    -4.4559E+08 -4.7987E+08 -7.6919E+08 -7.6356E+05  7.5622E+07  1.5347E+07  8.0684E-02
      41-
 mid.  surface    -1.0237E+08 -9.6896E+07 -3.9119E+08  7.9706E+06  2.7195E+07  1.4510E+07  6.3837E-02
      85-
 mid.  surface     2.2189E+09  2.2193E+09  1.0180E+08 -3.4713E+06 -6.4229E+07 -1.8683E+08  2.2435E-01
      86-
 mid.  surface     2.6303E+09  2.6878E+09  1.3770E+09 -4.6393E+07 -4.7500E+07 -1.6072E+08  1.6950E-01
     100-
 mid.  surface    -1.7053E+08 -1.6632E+08 -3.9767E+08 -7.1633E+06  2.7181E+07  1.3601E+07  5.8872E-02
     110-
 mid.  surface    -8.4864E+08 -8.6358E+08 -1.0986E+09 -2.1840E+07  3.8400E+07 -3.1911E+06  8.5938E-02



 n o d a l  s t r a i n  c a l c u l a t i o n s   f o r   t i m e  s t e p       63   ( at time 8.82811E+00 )

 node (global)
          strain       eps-xx      eps-yy      eps-zz      eps-xy      eps-yz      eps-zx       
       1-
 mid.  surface     3.1706E-02  4.1785E-02 -6.4937E-02  1.2878E-02 -3.6362E-03 -1.5020E-03
       2-
 mid.  surface     3.2899E-02  4.4615E-02 -9.3631E-02  1.0788E-02 -9.2643E-04  8.5704E-03
       8-
 mid.  surface     2.3033E-02  4.1097E-02 -5.9082E-02 -7.3767E-03 -2.6982E-03  5.5561E-04
       9-
 mid.  surface     3.8652E-02  3.8501E-02 -8.3701E-02 -8.2186E-03 -3.0992E-03  9.8974E-04
      10-
 mid.  surface     3.9498E-02  3.4510E-02 -7.4210E-02  4.3211E-03 -1.9149E-02  1.7605E-03
      11-
 mid.  surface     3.7726E-02  2.8859E-02 -6.2394E-02  1.5209E-03 -3.5383E-02 -8.1986E-03
      12-
 mid.  surface     2.8783E-02  3.5782E-02 -5.2118E-02  1.3221E-03 -3.2773E-02 -2.3184E-02
      17-
 mid.  surface     3.4354E-02  3.3694E-02 -7.0533E-02  1.5187E-03 -2.9549E-02 -1.9228E-02
      18-
 mid.  surface     2.8124E-02  3.7989E-02 -5.9946E-02  6.0706E-03 -1.6405E-02 -6.5334E-03
      19-
 mid.  surface     2.9323E-02  3.9731E-02 -7.9049E-02 -5.4809E-04 -2.2927E-02 -2.3159E-02
      20-
 mid.  surface     4.0330E-02  3.6082E-02 -7.9588E-02  7.7833E-03  1.7649E-02  1.3477E-02
      21-
 mid.  surface     3.7795E-02  3.6364E-02 -9.0542E-02  3.6341E-03  1.4020E-02  1.9359E-02
      22-
 mid.  surface     3.6187E-02  3.3299E-02 -6.6794E-02  7.1246E-03  1.8208E-02  1.2550E-02
      23-
 mid.  surface     4.5071E-02  3.1413E-02 -7.4463E-02  5.9725E-03  2.5250E-02  8.5659E-03
      40-
 mid.  surface     3.9091E-02  3.1432E-02 -7.9185E-02  8.9437E-04  6.6411E-03 -4.7308E-03
      41-
 mid.  surface     2.4714E-02  3.4899E-02 -6.2819E-02  3.1168E-03  4.5780E-03  3.0213E-03
      85-
 mid.  surface     2.3279E-02  3.8358E-02 -9.6332E-02  1.5432E-03  1.7608E-02 -1.7898E-02
      86-
 mid.  surface     2.3190E-02  3.6425E-02 -6.6071E-02  7.7600E-03  2.8558E-02 -2.6747E-02
     100-
 mid.  surface     2.0484E-02  3.4226E-02 -5.8471E-02 -3.4897E-03 -8.5513E-03  3.2146E-03
     110-
 mid.  surface     3.8123E-02  3.1518E-02 -8.3625E-02 -4.8513E-03 -8.8453E-03 -8.0138E-03



 n o d a l  s t r e s s  c a l c u l a t i o n s   f o r   t i m e  s t e p       71   ( at time 1.00840E+01 )

 node (global)
          stress       sig-xx      sig-yy      sig-zz      sig-xy      sig-yz      sig-zx       plastic
                                                                                                 strain 
       1-
 mid.  surface    -2.2291E+09 -2.2816E+09 -1.5811E+09  4.1161E+07  9.6516E+07  8.3183E+07 -4.1845E-02
       2-
 mid.  surface    -3.8492E+09 -3.8955E+09 -3.4192E+09  4.8324E+07  9.2130E+07  9.5142E+07  1.9942E-03
       8-
 mid.  surface     4.8334E+08  4.8658E+08  2.7097E+08 -1.0096E+07 -8.3531E+07 -6.6029E+06  7.4558E-02
       9-
 mid.  surface    -3.6661E+08 -3.5865E+08 -6.0582E+08 -9.6024E+06 -5.5973E+07 -3.9382E+06  1.0001E-01
      10-
 mid.  surface     1.9349E+08  1.5773E+08 -1.2223E+08 -1.5570E+07 -9.1155E+07 -8.9592E+05  9.1321E-02
      11-
 mid.  surface     4.2768E+08  3.9470E+08  1.4164E+08 -2.7524E+07 -7.0517E+07 -4.5710E+06  7.5075E-02
      12-
 mid.  surface    -1.2988E+09 -1.3066E+09 -7.0477E+08 -1.7239E+07  4.9152E+06  3.8568E+07 -2.6417E-02
      17-
 mid.  surface    -1.6961E+08 -1.6054E+08 -3.8536E+08 -3.0007E+07 -1.2669E+08 -6.5458E+07  8.9599E-02
      18-
 mid.  surface     5.5150E+08  5.4886E+08  2.9076E+08 -1.6954E+07 -1.3320E+08 -2.9978E+07  7.6851E-02
      19-
 mid.  surface    -2.3271E+09 -2.3167E+09 -2.1166E+09 -9.3955E+06 -2.2734E+07 -2.1113E+07  3.6376E-02
      20-
 mid.  surface    -4.3141E+07 -5.1665E+07 -3.4472E+08  2.5914E+07  1.4539E+07  6.6150E+06  8.5324E-02
      21-
 mid.  surface     5.7167E+08  6.1523E+08 -2.4777E+08 -5.5441E+06 -2.1867E+07 -4.8264E+07  1.6336E-01
      22-
 mid.  surface     1.4457E+09  1.4791E+09  1.0004E+09 -1.4676E+07  2.5566E+07  3.2775E+06  1.1091E-01
      23-
 mid.  surface     4.0646E+08  3.9542E+08  8.8875E+07  2.1507E+07  1.0351E+08  4.2462E+07  8.0237E-02
      40-
 mid.  surface    -3.9016E+08 -4.1089E+08 -7.3444E+08 -8.7505E+06  9.2839E+07  1.3041E+07  9.2235E-02
      41-
 mid.  surface    -3.7416E+07 -5.3815E+07 -3.5958E+08  5.4554E+06  3.0735E+07  7.0168E+06  7.3928E-02
      85-
 mid.  surface     2.3040E+09  2.4637E+09  2.4189E+08 -2.2844E+07 -4.7869E+07 -1.6900E+08  3.0932E-01
      86-
 mid.  surface     2.9926E+09  3.1458E+09  1.7761E+09 -4.5953E+07 -3.5156E+07 -1.4853E+08  2.1805E-01
     100-
 mid.  surface    -2.7658E+08 -2.9249E+08 -5.1735E+08 -7.0568E+06  2.6104E+07  1.7700E+07  7.3216E-02
     110-
 mid.  surface    -9.3257E+08 -9.5518E+08 -1.1932E+09 -1.7852E+07  6.3772E+07  3.1276E+06  1.0178E-01



 n o d a l  s t r a i n  c a l c u l a t i o n s   f o r   t i m e  s t e p       71   ( at time 1.00840E+01 )

 node (global)
          strain       eps-xx      eps-yy      eps-zz      eps-xy      eps-yz      eps-zx       
       1-
 mid.  surface     3.6680E-02  4.8659E-02 -7.4639E-02  1.3872E-02 -3.4911E-03 -4.0001E-03
       2-
 mid.  surface     3.7721E-02  5.1641E-02 -1.0759E-01  1.1213E-02  1.6069E-04  8.1151E-03
       8-
 mid.  surface     2.9121E-02  4.7748E-02 -7.1427E-02 -7.9552E-03 -5.4339E-03  4.5726E-04
       9-
 mid.  surface     4.4452E-02  4.4385E-02 -9.5931E-02 -8.4747E-03 -6.7995E-03  3.5243E-04
      10-
 mid.  surface     4.5778E-02  3.8954E-02 -8.4371E-02  3.6348E-03 -2.3129E-02  1.8448E-03
      11-
 mid.  surface     4.4006E-02  3.3397E-02 -7.3437E-02  2.6759E-04 -3.8073E-02 -7.6621E-03
      12-
 mid.  surface     3.2532E-02  4.2075E-02 -6.1257E-02  3.8311E-04 -3.4509E-02 -2.4785E-02
      17-
 mid.  surface     3.9084E-02  3.9761E-02 -8.2922E-02  2.6014E-05 -3.2979E-02 -2.0512E-02
      18-
 mid.  surface     3.2671E-02  4.3589E-02 -7.0126E-02  5.1910E-03 -2.0376E-02 -7.2207E-03
      19-
 mid.  surface     3.2870E-02  4.6632E-02 -9.2362E-02 -2.1118E-03 -2.4331E-02 -2.5928E-02
      20-
 mid.  surface     4.7344E-02  4.2114E-02 -9.2476E-02  9.1074E-03  1.8787E-02  1.3734E-02
      21-
 mid.  surface     4.3990E-02  4.2863E-02 -1.0503E-01  4.0413E-03  1.4853E-02  1.9202E-02
      22-
 mid.  surface     4.2919E-02  3.9708E-02 -7.7805E-02  7.6492E-03  1.9707E-02  1.3661E-02
      23-
 mid.  surface     5.2345E-02  3.7593E-02 -8.6624E-02  6.8147E-03  2.8148E-02  9.6553E-03
      40-
 mid.  surface     4.6021E-02  3.6644E-02 -9.0679E-02  2.0370E-04  8.6977E-03 -5.1602E-03
      41-
 mid.  surface     3.0704E-02  4.0127E-02 -7.3479E-02  3.3604E-03  6.8583E-03  3.2995E-03
      85-
 mid.  surface     2.7005E-02  4.5765E-02 -1.1198E-01  7.2390E-04  2.0697E-02 -1.7899E-02
      86-
 mid.  surface     2.7008E-02  4.4128E-02 -7.7198E-02  7.1544E-03  3.1777E-02 -2.9366E-02
     100-
 mid.  surface     2.6308E-02  3.9369E-02 -7.1201E-02 -3.9591E-03 -7.8423E-03  4.1617E-03
     110-
 mid.  surface     4.5284E-02  3.6163E-02 -9.6823E-02 -5.8563E-03 -8.8239E-03 -8.7241E-03



 n o d a l  s t r e s s  c a l c u l a t i o n s   f o r   t i m e  s t e p       81   ( at time 1.13400E+01 )

 node (global)
          stress       sig-xx      sig-yy      sig-zz      sig-xy      sig-yz      sig-zx       plastic
                                                                                                 strain 
       1-
 mid.  surface    -2.2794E+09 -2.4933E+09 -1.7364E+09  7.0166E+07  6.6044E+07  5.9902E+07 -5.7179E-02
       2-
 mid.  surface    -4.3526E+09 -4.4541E+09 -3.9535E+09  1.4176E+08  6.3409E+07  7.7000E+07  2.9979E-03
       8-
 mid.  surface     5.5189E+08  5.4580E+08  3.4963E+08 -1.8765E+07 -1.2674E+08  1.2257E+07  9.0947E-02
       9-
 mid.  surface    -3.1088E+08 -3.1942E+08 -5.7482E+08 -2.7593E+07 -1.0269E+08  3.4653E+06  1.1520E-01
      10-
 mid.  surface     1.7361E+08  8.7022E+07 -1.5786E+08 -3.4742E+07 -9.3745E+07  3.9371E+06  1.0283E-01
      11-
 mid.  surface     4.6538E+08  4.4735E+08  2.0323E+08  6.3340E+06 -8.4966E+07  4.3084E+06  9.2666E-02
      12-
 mid.  surface    -1.4991E+09 -1.4730E+09 -8.7690E+08 -5.2958E+07 -2.3325E+07  2.8163E+07 -5.4633E-02
      17-
 mid.  surface    -3.0045E+08 -3.3888E+08 -4.8067E+08 -1.3527E+07 -1.5770E+08 -6.4311E+07  1.1319E-01
      18-
 mid.  surface     5.3153E+08  4.9596E+08  2.9765E+08 -3.5298E+07 -1.5793E+08 -1.3489E+07  9.0163E-02
      19-
 mid.  surface    -2.8970E+09 -2.8514E+09 -2.6623E+09 -3.6687E+07 -1.6605E+07  1.9867E+04  3.0231E-02
      20-
 mid.  surface    -5.2710E+07 -5.5106E+07 -3.4105E+08  4.5423E+07 -1.6479E+07  6.4157E+06  1.0482E-01
      21-
 mid.  surface     5.3484E+08  6.4939E+08 -2.4915E+08 -4.4975E+07  1.4087E+07 -9.2705E+06  1.8906E-01
      22-
 mid.  surface     1.8592E+09  1.9441E+09  1.4080E+09 -7.7776E+07  4.4012E+07 -4.5225E+06  1.1567E-01
      23-
 mid.  surface     6.1624E+08  6.0517E+08  2.8710E+08  5.1254E+07  1.1485E+08  3.8060E+07  9.8911E-02
      40-
 mid.  surface    -3.8404E+08 -4.0925E+08 -7.1892E+08 -2.0032E+07  1.2804E+08 -9.0799E+06  1.0581E-01
      41-
 mid.  surface    -1.3100E+07 -2.1498E+05 -2.7231E+08 -1.4784E+07  3.5407E+07  1.2268E+07  8.7275E-02
      85-
 mid.  surface     2.2186E+09  2.4824E+09  2.3169E+08 -3.8199E+06 -2.3242E+07 -2.0672E+08  3.9919E-01
      86-
 mid.  surface     3.4965E+09  3.6041E+09  2.2814E+09 -7.8008E+07  8.5778E+06 -1.5819E+08  2.6798E-01
     100-
 mid.  surface    -2.8275E+08 -2.8435E+08 -5.1046E+08 -3.8469E+06  5.3066E+07  4.0312E+07  8.9907E-02
     110-
 mid.  surface    -1.0376E+09 -1.0312E+09 -1.3271E+09 -1.2619E+07  1.0522E+08 -5.3546E+05  1.1785E-01



 n o d a l  s t r a i n  c a l c u l a t i o n s   f o r   t i m e  s t e p       81   ( at time 1.13400E+01 )

 node (global)
          strain       eps-xx      eps-yy      eps-zz      eps-xy      eps-yz      eps-zx       
       1-
 mid.  surface     4.7893E-02  5.3733E-02 -8.6754E-02  1.4965E-02 -6.5450E-03 -8.2809E-03
       2-
 mid.  surface     4.8791E-02  6.1489E-02 -1.2984E-01  1.6133E-02 -2.3727E-03  6.1241E-03
       8-
 mid.  surface     3.5789E-02  5.5545E-02 -8.4934E-02 -9.5084E-03 -1.0454E-02  8.7959E-04
       9-
 mid.  surface     5.1683E-02  5.0307E-02 -1.0863E-01 -1.0460E-02 -1.2856E-02  4.2621E-04
      10-
 mid.  surface     5.3367E-02  4.0600E-02 -9.4321E-02  1.5148E-03 -2.8099E-02  2.9812E-03
      11-
 mid.  surface     5.2806E-02  4.0454E-02 -8.8739E-02  1.9257E-03 -4.0626E-02 -6.7210E-03
      12-
 mid.  surface     2.8973E-02  4.7201E-02 -6.2412E-02 -4.0069E-03 -3.8004E-02 -2.8486E-02
      17-
 mid.  surface     4.9136E-02  4.6496E-02 -1.0183E-01 -7.9182E-05 -3.6218E-02 -2.1693E-02
      18-
 mid.  surface     3.8156E-02  4.7792E-02 -8.0181E-02  2.8113E-03 -2.5632E-02 -6.3104E-03
      19-
 mid.  surface     3.1720E-02  5.2019E-02 -1.0125E-01 -5.9305E-03 -2.5003E-02 -2.7247E-02
      20-
 mid.  surface     5.6653E-02  5.1852E-02 -1.1178E-01  1.1788E-02  1.8235E-02  1.3676E-02
      21-
 mid.  surface     4.5597E-02  4.8820E-02 -1.1606E-01  2.0427E-03  1.7839E-02  2.3974E-02
      22-
 mid.  surface     4.3553E-02  4.5190E-02 -8.1418E-02  4.2429E-03  1.9686E-02  1.1613E-02
      23-
 mid.  surface     6.2829E-02  4.6368E-02 -1.0322E-01  9.4231E-03  3.1138E-02  1.1150E-02
      40-
 mid.  surface     5.3046E-02  4.1390E-02 -1.0250E-01 -1.2116E-03  1.1689E-02 -7.1651E-03
      41-
 mid.  surface     3.5233E-02  4.7039E-02 -8.4263E-02  1.9022E-03  1.0429E-02  3.8810E-03
      85-
 mid.  surface     3.4562E-02  5.6155E-02 -1.3687E-01  4.0168E-03  2.6193E-02 -1.8105E-02
      86-
 mid.  surface     3.5154E-02  5.0736E-02 -9.1954E-02  6.6496E-03  3.9624E-02 -3.0477E-02
     100-
 mid.  surface     3.2986E-02  4.7195E-02 -8.5753E-02 -4.3503E-03 -4.6617E-03  6.5602E-03
     110-
 mid.  surface     5.2229E-02  4.2369E-02 -1.1165E-01 -6.7511E-03 -7.3927E-03 -9.8944E-03



 n o d a l  s t r e s s  c a l c u l a t i o n s   f o r   t i m e  s t e p       89   ( at time 1.25959E+01 )

 node (global)
          stress       sig-xx      sig-yy      sig-zz      sig-xy      sig-yz      sig-zx       plastic
                                                                                                 strain 
       1-
 mid.  surface    -2.4127E+09 -2.6194E+09 -1.8580E+09  4.5539E+07  7.3581E+07  5.0558E+07 -7.2704E-02
       2-
 mid.  surface    -4.7511E+09 -4.7684E+09 -4.3036E+09  1.6138E+08  5.7017E+07  2.9015E+07  1.9551E-03
       8-
 mid.  surface     5.2390E+08  4.7722E+08  2.6558E+08 -3.2106E+07 -1.3907E+08  2.0218E+07  1.0238E-01
       9-
 mid.  surface    -4.6982E+08 -5.4204E+08 -7.7595E+08 -3.3625E+07 -8.4169E+07  1.8477E+07  1.2793E-01
      10-
 mid.  surface     5.3988E+07 -1.6404E+07 -2.8436E+08 -3.9527E+07 -7.0464E+07  1.7738E+07  1.1406E-01
      11-
 mid.  surface    -7.1522E+08 -7.5459E+08 -3.3849E+08  3.7532E+07  6.5672E+07  5.8455E+07  8.4228E-02
      12-
 mid.  surface    -2.9296E+09 -2.8979E+09 -1.6485E+09 -2.9045E+07  8.2021E+07  8.2479E+07 -1.0414E-01
      17-
 mid.  surface    -1.5224E+09 -1.6544E+09 -1.1583E+09  3.3580E+07  6.9544E+07  3.5751E+07  1.0563E-01
      18-
 mid.  surface     4.6243E+08  4.1114E+08  1.7646E+08 -3.4548E+07 -1.4958E+08 -1.7229E+07  1.0088E-01
      19-
 mid.  surface    -4.4466E+09 -4.3944E+09 -3.5958E+09  2.2939E+07  1.4551E+08  1.1600E+08 -1.3279E-03
      20-
 mid.  surface     1.3140E+09  1.3424E+09  3.3770E+08  2.1628E+07 -1.4383E+08 -7.0599E+07  1.4951E-01
      21-
 mid.  surface     1.8994E+09  2.0288E+09  4.0994E+08 -7.9913E+07 -1.6938E+08 -5.4731E+07  2.4167E-01
      22-
 mid.  surface     3.3171E+09  3.4101E+09  2.1764E+09 -1.3225E+08 -1.8489E+08 -1.2838E+08  1.4984E-01
      23-
 mid.  surface     2.0119E+09  2.0183E+09  1.0019E+09  2.1128E+07 -9.6064E+07 -9.4214E+07  1.4348E-01
      40-
 mid.  surface    -2.3456E+08 -2.0944E+08 -5.4961E+08  1.3233E+07  1.3346E+08  6.2205E+06  1.2028E-01
      41-
 mid.  surface     1.0398E+08  2.0317E+08 -1.4055E+08  2.9474E+06  2.8143E+07  1.9388E+07  9.9581E-02
      85-
 mid.  surface     2.7008E+09  2.8333E+09  5.9011E+08  3.6301E+07 -1.9155E+07 -1.9949E+08  4.7989E-01
      86-
 mid.  surface     4.1400E+09  4.0904E+09  2.8071E+09 -6.3484E+07  4.7436E+07 -1.0999E+08  3.1413E-01
     100-
 mid.  surface    -8.3732E+07 -2.6217E+07 -3.1322E+08 -3.4662E+05  2.7138E+07  4.0606E+07  1.0340E-01
     110-
 mid.  surface    -1.0062E+09 -9.7031E+08 -1.2877E+09  1.1790E+07  9.8088E+07  4.9479E+06  1.3298E-01



 n o d a l  s t r a i n  c a l c u l a t i o n s   f o r   t i m e  s t e p       89   ( at time 1.25959E+01 )

 node (global)
          strain       eps-xx      eps-yy      eps-zz      eps-xy      eps-yz      eps-zx       
       1-
 mid.  surface     5.7735E-02  5.8026E-02 -9.7326E-02  1.4448E-02 -8.6820E-03 -1.0949E-02
       2-
 mid.  surface     5.7306E-02  7.1757E-02 -1.4922E-01  2.0595E-02 -4.6473E-03  2.9145E-03
       8-
 mid.  surface     4.1566E-02  5.9961E-02 -9.5996E-02 -1.1458E-02 -1.4169E-02  2.0358E-03
       9-
 mid.  surface     5.8747E-02  5.2209E-02 -1.2048E-01 -1.2478E-02 -1.5540E-02  1.6659E-03
      10-
 mid.  surface     5.9839E-02  4.3304E-02 -1.0527E-01 -4.2375E-04 -2.9970E-02  4.3946E-03
      11-
 mid.  surface     6.2905E-02  4.7467E-02 -1.0323E-01  4.6202E-03 -4.2976E-02 -8.3296E-03
      12-
 mid.  surface     3.0193E-02  5.2401E-02 -6.4731E-02 -5.4794E-03 -4.3595E-02 -3.2964E-02
      17-
 mid.  surface     6.1978E-02  5.1323E-02 -1.1824E-01  3.0410E-03 -3.6256E-02 -2.3085E-02
      18-
 mid.  surface     4.3909E-02  5.1376E-02 -9.0862E-02  1.3457E-03 -2.9423E-02 -5.7708E-03
      19-
 mid.  surface     3.4430E-02  5.8745E-02 -1.1034E-01 -5.0082E-03 -2.6938E-02 -2.7009E-02
      20-
 mid.  surface     6.2146E-02  6.1150E-02 -1.2851E-01  1.2517E-02  1.9604E-02  1.4827E-02
      21-
 mid.  surface     4.5695E-02  5.4748E-02 -1.2708E-01 -1.5052E-03  1.9342E-02  3.0444E-02
      22-
 mid.  surface     4.2496E-02  4.8536E-02 -8.5592E-02 -1.2618E-03  1.7601E-02  9.1547E-03
      23-
 mid.  surface     6.9609E-02  5.3080E-02 -1.1834E-01  9.4763E-03  3.2377E-02  1.0127E-02
      40-
 mid.  surface     5.9760E-02  4.9744E-02 -1.1526E-01  1.0349E-04  1.3818E-02 -8.1110E-03
      41-
 mid.  surface     3.8133E-02  5.7680E-02 -9.5740E-02  2.3954E-03  1.1099E-02  4.5605E-03
      85-
 mid.  surface     4.4171E-02  6.4473E-02 -1.5908E-01  8.4062E-03  3.0906E-02 -2.0515E-02
      86-
 mid.  surface     4.6500E-02  5.4664E-02 -1.0550E-01  7.6860E-03  4.8391E-02 -3.0039E-02
     100-
 mid.  surface     3.7554E-02  5.7348E-02 -9.7449E-02 -4.2399E-03 -4.2880E-03  8.6878E-03
     110-
 mid.  surface     5.8196E-02  5.0200E-02 -1.2498E-01 -5.7836E-03 -7.4619E-03 -1.0479E-02



 n o d a l  s t r e s s  c a l c u l a t i o n s   f o r   t i m e  s t e p      101   ( at time 1.38519E+01 )

 node (global)
          stress       sig-xx      sig-yy      sig-zz      sig-xy      sig-yz      sig-zx       plastic
                                                                                                 strain 
       1-
 mid.  surface     1.4705E+08 -1.3170E+08 -8.3543E+08  6.9143E+07  3.1063E+08  1.0407E+08 -3.0041E-02
       2-
 mid.  surface    -2.4573E+09 -2.5469E+09 -3.5483E+09  2.2431E+08  2.7105E+08 -3.3782E+06  5.8835E-02
       8-
 mid.  surface     4.2761E+08  3.4341E+08  1.5321E+08 -4.1092E+07 -2.1898E+08  2.0580E+07  1.1670E-01
       9-
 mid.  surface    -6.2811E+08 -7.0500E+08 -9.5038E+08 -3.3022E+07 -1.0484E+08  2.8908E+07  1.3911E-01
      10-
 mid.  surface    -2.3356E+06 -4.9458E+07 -3.2493E+08 -4.3881E+07 -4.9923E+07  2.1691E+07  1.2814E-01
      11-
 mid.  surface    -8.1912E+08 -8.8872E+08 -4.7232E+08  7.5126E+07  9.9015E+07  6.1448E+07  7.9116E-02
      12-
 mid.  surface    -1.8730E+09 -1.8444E+09 -1.3616E+09 -4.9303E+06  2.2970E+08  1.0353E+08 -1.3031E-01
      17-
 mid.  surface    -1.8468E+09 -1.9951E+09 -1.4551E+09  6.9095E+07  6.9973E+07  4.2627E+07  1.0497E-01
      18-
 mid.  surface     3.9982E+08  3.6693E+08  1.6910E+08 -3.4511E+07 -1.7378E+08 -1.5700E+07  1.1700E-01
      19-
 mid.  surface    -3.7440E+09 -3.6731E+09 -3.6334E+09  5.7432E+07  2.6709E+08  1.0399E+08 -5.8127E-03
      20-
 mid.  surface     1.4746E+09  1.4678E+09  5.0295E+08 -1.8667E+07 -1.8896E+08 -6.9534E+07  1.9321E-01
      21-
 mid.  surface     8.2489E+08  9.9231E+08  5.5314E+07 -1.3900E+08 -2.9124E+08 -6.1119E+07  2.6593E-01
      22-
 mid.  surface     2.6566E+09  2.8022E+09  2.2350E+09 -1.9315E+08 -2.8163E+08 -9.6134E+07  1.5371E-01
      23-
 mid.  surface     2.2841E+09  2.2919E+09  1.2747E+09 -1.5416E+07 -1.0352E+08 -8.4780E+07  1.8659E-01
      40-
 mid.  surface    -1.9825E+08 -1.6399E+08 -4.9422E+08 -4.8810E+06  1.6360E+08  3.5289E+06  1.3825E-01
      41-
 mid.  surface     2.1425E+08  2.9163E+08 -1.8880E+07 -6.5896E+06  1.7281E+07 -3.6591E+06  1.1488E-01
      85-
 mid.  surface     2.0408E+08  3.8432E+08 -4.9285E+08  1.4025E+07 -2.2812E+08 -2.7527E+08  5.2009E-01
      86-
 mid.  surface     2.1309E+09  2.1104E+09  2.2073E+09 -1.1514E+08 -1.4668E+08 -8.5286E+07  3.1753E-01
     100-
 mid.  surface     3.9296E+07  6.8779E+07 -2.0374E+08  1.0306E+07 -4.2944E+06  3.1701E+07  1.2022E-01
     110-
 mid.  surface    -8.9134E+08 -8.6480E+08 -1.1807E+09  2.5736E+07  1.3126E+08  1.7403E+07  1.4970E-01



 n o d a l  s t r a i n  c a l c u l a t i o n s   f o r   t i m e  s t e p      101   ( at time 1.38519E+01 )

 node (global)
          strain       eps-xx      eps-yy      eps-zz      eps-xy      eps-yz      eps-zx       
       1-
 mid.  surface     6.8317E-02  6.3754E-02 -1.1222E-01  1.3092E-02 -1.1804E-02 -1.1744E-02
       2-
 mid.  surface     6.7316E-02  8.2338E-02 -1.7210E-01  2.5840E-02 -7.9424E-03  9.3177E-05
       8-
 mid.  surface     4.9786E-02  6.4410E-02 -1.1036E-01 -1.4306E-02 -2.2110E-02  3.8566E-03
       9-
 mid.  surface     6.5820E-02  5.4039E-02 -1.3183E-01 -1.4594E-02 -2.3028E-02  3.1677E-03
      10-
 mid.  surface     6.7131E-02  4.8154E-02 -1.1815E-01 -2.8112E-03 -3.2809E-02  5.8283E-03
      11-
 mid.  surface     7.3438E-02  5.4070E-02 -1.1886E-01  7.1356E-03 -4.4033E-02 -8.2484E-03
      12-
 mid.  surface     2.5232E-02  5.7472E-02 -6.3802E-02 -9.5063E-03 -4.8704E-02 -3.6093E-02
      17-
 mid.  surface     7.3739E-02  5.6368E-02 -1.3638E-01  5.0861E-03 -3.6693E-02 -2.3319E-02
      18-
 mid.  surface     4.9982E-02  5.7115E-02 -1.0336E-01 -6.7151E-04 -3.4054E-02 -4.8624E-03
      19-
 mid.  surface     3.1247E-02  6.5389E-02 -1.1734E-01 -6.7340E-03 -2.9170E-02 -2.7358E-02
      20-
 mid.  surface     7.0665E-02  6.8644E-02 -1.4630E-01  1.3595E-02  1.9538E-02  1.5260E-02
      21-
 mid.  surface     4.6908E-02  5.9997E-02 -1.3673E-01 -4.5021E-03  2.2249E-02  3.6158E-02
      22-
 mid.  surface     4.2098E-02  5.3536E-02 -8.7581E-02 -5.7251E-03  1.6765E-02  6.2163E-03
      23-
 mid.  surface     7.8523E-02  6.0330E-02 -1.3455E-01  1.0215E-02  3.3510E-02  1.1649E-02
      40-
 mid.  surface     6.6855E-02  5.7970E-02 -1.3011E-01 -6.8057E-04  1.7086E-02 -9.9771E-03
      41-
 mid.  surface     4.2399E-02  6.7389E-02 -1.0833E-01  1.4278E-03  1.2325E-02  3.8622E-03
      85-
 mid.  surface     5.8347E-02  7.2775E-02 -1.8544E-01  1.3440E-02  3.8316E-02 -2.6056E-02
      86-
 mid.  surface     6.2022E-02  6.0112E-02 -1.2393E-01  7.8160E-03  5.9634E-02 -2.8858E-02
     100-
 mid.  surface     4.4258E-02  6.7187E-02 -1.1258E-01 -3.2558E-03 -2.6947E-03  1.0918E-02
     110-
 mid.  surface     6.5773E-02  5.8012E-02 -1.3897E-01 -4.1189E-03 -6.7164E-03 -1.0470E-02



 n o d a l  s t r e s s  c a l c u l a t i o n s   f o r   t i m e  s t e p      111   ( at time 1.51078E+01 )

 node (global)
          stress       sig-xx      sig-yy      sig-zz      sig-xy      sig-yz      sig-zx       plastic
                                                                                                 strain 
       1-
 mid.  surface    -2.3374E+09 -2.5236E+09 -1.8439E+09  1.9167E+08  2.4379E+08  1.6637E+08 -3.7029E-02
       2-
 mid.  surface     1.3665E+09  1.1505E+09 -1.3087E+09  2.1238E+08  2.8566E+08 -2.6083E+07  1.9441E-01
       8-
 mid.  surface     4.6272E+08  3.5665E+08  2.2183E+08 -6.5455E+07 -2.5749E+08  2.4746E+07  1.3039E-01
       9-
 mid.  surface    -8.5205E+08 -9.7168E+08 -1.1814E+09 -3.7742E+07 -6.3294E+07  4.4671E+07  1.5197E-01
      10-
 mid.  surface     5.9108E+07  9.5104E+07 -2.2548E+08  4.3603E+07 -6.4120E+07 -9.4652E+06  1.4761E-01
      11-
 mid.  surface    -4.1372E+08 -4.4310E+08 -2.5186E+08 -7.2498E+04 -1.7145E+08 -6.4812E+07  8.4280E-02
      12-
 mid.  surface    -3.0736E+09 -3.0416E+09 -2.0180E+09  1.2857E+07  1.2218E+08  3.8859E+07 -1.7250E-01
      17-
 mid.  surface    -1.8184E+09 -2.0042E+09 -1.6536E+09 -4.2400E+06 -3.1038E+07  8.0199E+07  1.0526E-01
      18-
 mid.  surface     4.3040E+08  3.8762E+08  2.4742E+08  3.2915E+07 -1.9536E+08 -4.9957E+07  1.4416E-01
      19-
 mid.  surface    -2.4140E+09 -2.4664E+09 -3.0035E+09  5.0785E+07  4.1000E+08  1.3664E+08  1.7930E-02
      20-
 mid.  surface     1.0956E+09  1.0243E+09  3.2060E+08 -6.4670E+07 -3.5934E+07  8.6164E+07  2.2544E-01
      21-
 mid.  surface     1.7287E+09  1.8576E+09  6.6805E+08 -9.8861E+07  3.3181E+07 -9.3931E+05  3.0050E-01
      22-
 mid.  surface     1.0650E+09  1.3579E+09  1.6407E+09 -9.0390E+07 -1.9269E+08 -1.3352E+08  1.2015E-01
      23-
 mid.  surface     2.8747E+09  2.9969E+09  1.7635E+09 -6.5643E+07 -2.7029E+08 -1.2091E+08  2.3013E-01
      40-
 mid.  surface    -1.5592E+08 -5.0526E+07 -4.0085E+08  4.3829E+07  2.0161E+08  2.4659E+07  1.6492E-01
      41-
 mid.  surface     3.9073E+08  4.3516E+08  1.5212E+08  2.4396E+07  3.4891E+07 -4.9346E+05  1.3825E-01
      85-
 mid.  surface     3.7367E+09  3.6757E+09  1.3638E+09 -4.0518E+07 -1.5187E+08 -3.2501E+08  6.3873E-01
      86-
 mid.  surface    -8.2625E+08 -7.7288E+08  6.9626E+08 -4.1322E+07 -1.3023E+08 -6.2312E+07  2.6644E-01
     100-
 mid.  surface     1.9035E+08  1.9414E+08  5.9635E+06 -2.0783E+07 -5.8803E+07  8.6673E+06  1.3624E-01
     110-
 mid.  surface    -9.6348E+08 -9.8915E+08 -1.2406E+09  3.3021E+07  1.5401E+08 -4.0350E+06  1.6761E-01



 n o d a l  s t r a i n  c a l c u l a t i o n s   f o r   t i m e  s t e p      111   ( at time 1.51078E+01 )

 node (global)
          strain       eps-xx      eps-yy      eps-zz      eps-xy      eps-yz      eps-zx       
       1-
 mid.  surface     7.9819E-02  7.2457E-02 -1.3037E-01  1.3631E-02 -1.6020E-02 -1.4997E-02
       2-
 mid.  surface     8.0739E-02  9.7780E-02 -2.0186E-01  3.4361E-02 -1.2337E-02 -3.7288E-03
       8-
 mid.  surface     5.7241E-02  6.7218E-02 -1.2017E-01 -1.9311E-02 -2.8988E-02  7.0271E-03
       9-
 mid.  surface     7.4622E-02  5.3498E-02 -1.4350E-01 -1.7523E-02 -3.0369E-02  6.0770E-03
      10-
 mid.  surface     7.4995E-02  5.9234E-02 -1.3586E-01  1.9180E-03 -3.5285E-02  4.1427E-03
      11-
 mid.  surface     7.6145E-02  5.7888E-02 -1.2229E-01  5.2211E-03 -5.0310E-02 -1.1647E-02
      12-
 mid.  surface     2.4778E-02  6.4475E-02 -6.5103E-02 -1.4567E-02 -5.7138E-02 -3.8605E-02
      17-
 mid.  surface     8.1903E-02  6.1575E-02 -1.5024E-01  6.8332E-03 -3.8907E-02 -2.5368E-02
      18-
 mid.  surface     6.1754E-02  6.8288E-02 -1.2588E-01  3.8726E-03 -3.9043E-02 -8.3628E-03
      19-
 mid.  surface     3.1826E-02  7.9000E-02 -1.3084E-01 -4.7939E-03 -3.5118E-02 -2.7384E-02
      20-
 mid.  surface     7.9414E-02  7.0435E-02 -1.6337E-01  9.9839E-03  2.8051E-02  2.4824E-02
      21-
 mid.  surface     5.3800E-02  7.0295E-02 -1.5535E-01 -2.9565E-03  2.7718E-02  4.2672E-02
      22-
 mid.  surface     4.5224E-02  6.1307E-02 -9.3873E-02 -6.7575E-03  1.7635E-02  2.9571E-04
      23-
 mid.  surface     8.1188E-02  6.2900E-02 -1.4074E-01  4.4943E-03  3.0456E-02  1.0234E-02
      40-
 mid.  surface     7.4649E-02  7.1520E-02 -1.5068E-01  1.6251E-03  2.2230E-02 -7.2898E-03
      41-
 mid.  surface     5.1988E-02  8.1808E-02 -1.3018E-01  3.5171E-03  1.2478E-02  3.0974E-03
      85-
 mid.  surface     8.0183E-02  8.1435E-02 -2.1988E-01  2.0124E-02  4.6351E-02 -3.1661E-02
      86-
 mid.  surface     8.2659E-02  6.6069E-02 -1.4675E-01  1.0611E-02  7.5616E-02 -2.8311E-02
     100-
 mid.  surface     4.8627E-02  7.4304E-02 -1.2189E-01 -4.7960E-03 -3.4716E-03  1.0587E-02
     110-
 mid.  surface     7.3470E-02  6.2371E-02 -1.5226E-01 -1.6792E-03 -8.5664E-03 -1.4357E-02



 n o d a l  s t r e s s  c a l c u l a t i o n s   f o r   t i m e  s t e p      121   ( at time 1.63638E+01 )

 node (global)
          stress       sig-xx      sig-yy      sig-zz      sig-xy      sig-yz      sig-zx       plastic
                                                                                                 strain 
       1-
 mid.  surface    -4.8206E+08 -6.9553E+08 -1.0485E+09  1.1668E+08  2.3221E+08  5.1360E+07  5.5484E-04
       2-
 mid.  surface     2.9681E+09  2.6743E+09  1.8180E+08  8.1574E+07  3.8843E+08  1.6829E+07  3.3280E-01
       8-
 mid.  surface     3.6639E+08  2.4337E+08  1.9587E+08 -3.6831E+07 -2.8321E+08  1.6467E+07  1.5044E-01
       9-
 mid.  surface    -1.1585E+09 -1.2690E+09 -1.4236E+09 -1.2617E+07 -4.8043E+07  5.6879E+07  1.6976E-01
      10-
 mid.  surface     2.0723E+08  3.2658E+08 -4.9059E+07  1.6681E+07 -8.1564E+07  3.4884E+06  1.6754E-01
      11-
 mid.  surface     1.1214E+09  1.0735E+09  4.9859E+08  1.4636E+07  6.7753E+07  1.0176E+08  1.2112E-01
      12-
 mid.  surface    -9.8543E+08 -8.9012E+08 -1.1457E+09  6.4492E+07  2.0189E+08  1.0328E+08 -1.5785E-01
      17-
 mid.  surface    -4.3650E+08 -6.7632E+08 -9.3680E+08  7.5724E+06  1.2529E+08  1.2500E+08  1.4770E-01
      18-
 mid.  surface     3.8382E+08  3.8199E+08  2.6003E+08  3.9948E+07 -2.6632E+08 -5.3593E+07  1.7037E-01
      19-
 mid.  surface    -4.0201E+08 -3.8133E+08 -1.5883E+09  3.5042E+07  4.1594E+08  1.4721E+08  8.9921E-02
      20-
 mid.  surface    -5.6931E+08 -7.5904E+08 -6.5420E+08 -9.2196E+07 -1.9094E+08 -4.2413E+07  2.3823E-01
      21-
 mid.  surface    -9.6803E+08 -8.1188E+08 -4.3283E+08 -7.8412E+07 -1.5497E+08 -6.6360E+07  2.7789E-01
      22-
 mid.  surface    -9.4571E+08 -6.2799E+08  3.4723E+08 -6.2048E+07 -3.8942E+08 -2.0069E+08  5.1596E-02
      23-
 mid.  surface     1.5619E+09  1.6038E+09  1.0388E+09 -1.1511E+08 -2.8527E+08 -1.3292E+08  2.4786E-01
      40-
 mid.  surface     2.9280E+07  1.9777E+08 -2.9527E+08  2.3359E+07  2.3148E+08  2.7571E+07  1.8587E-01
      41-
 mid.  surface     6.9454E+08  7.5287E+08  4.0237E+08  3.2469E+07 -6.7963E+06 -7.7170E+06  1.5343E-01
      85-
 mid.  surface     2.4760E+09  2.3554E+09  1.5913E+09  3.0740E+07  1.1483E+08 -7.4697E+07  6.6878E-01
      86-
 mid.  surface    -1.2930E+09 -1.2753E+09  1.8030E+08  4.4849E+07  6.1889E+06 -1.4207E+08  1.9812E-01
     100-
 mid.  surface     2.9511E+08  3.0347E+08  1.4718E+08 -2.4701E+07 -3.9191E+07  2.2833E+06  1.5583E-01
     110-
 mid.  surface    -9.6495E+08 -9.7049E+08 -1.2240E+09  2.6717E+07  2.0260E+08  2.7520E+07  1.8800E-01



 n o d a l  s t r a i n  c a l c u l a t i o n s   f o r   t i m e  s t e p      121   ( at time 1.63638E+01 )

 node (global)
          strain       eps-xx      eps-yy      eps-zz      eps-xy      eps-yz      eps-zx       
       1-
 mid.  surface     8.9246E-02  8.3510E-02 -1.3577E-01  1.7192E-02 -1.7027E-02 -2.7897E-02
       2-
 mid.  surface     9.4395E-02  1.0895E-01 -2.2284E-01  3.9808E-02 -1.0785E-02 -5.9073E-03
       8-
 mid.  surface     6.5590E-02  7.0188E-02 -1.3280E-01 -2.1710E-02 -3.5638E-02  1.0393E-02
       9-
 mid.  surface     8.2815E-02  5.2825E-02 -1.5516E-01 -1.7997E-02 -4.0257E-02  8.7220E-03
      10-
 mid.  surface     8.1851E-02  7.2825E-02 -1.5386E-01  3.3478E-03 -3.5920E-02  4.3026E-03
      11-
 mid.  surface     7.9692E-02  6.0044E-02 -1.3014E-01  2.0774E-03 -5.2818E-02 -1.2164E-02
      12-
 mid.  surface     2.5696E-02  7.1323E-02 -6.7797E-02 -1.5293E-02 -6.2805E-02 -4.7096E-02
      17-
 mid.  surface     9.1308E-02  6.6283E-02 -1.6825E-01  5.0397E-03 -4.0535E-02 -2.8099E-02
      18-
 mid.  surface     6.9452E-02  8.0047E-02 -1.4577E-01  7.3079E-03 -4.2925E-02 -9.9865E-03
      19-
 mid.  surface     3.8572E-02  9.2168E-02 -1.5264E-01 -5.6468E-03 -3.6624E-02 -3.2417E-02
      20-
 mid.  surface     9.4513E-02  7.3768E-02 -1.8513E-01  9.7777E-03  3.2472E-02  3.1222E-02
      21-
 mid.  surface     6.5135E-02  8.4290E-02 -1.8605E-01 -2.5572E-03  3.1914E-02  5.5047E-02
      22-
 mid.  surface     5.1824E-02  7.0266E-02 -1.0435E-01 -6.2081E-03  1.6059E-02 -4.3082E-03
      23-
 mid.  surface     9.1810E-02  6.6185E-02 -1.5248E-01  2.4087E-03  2.8226E-02  1.2037E-02
      40-
 mid.  surface     8.2486E-02  8.6877E-02 -1.7164E-01  2.5117E-03  2.7886E-02 -6.8891E-03
      41-
 mid.  surface     5.9189E-02  9.6566E-02 -1.4813E-01  5.4860E-03  1.1839E-02  2.4070E-03
      85-
 mid.  surface     9.0567E-02  9.5057E-02 -2.5077E-01  1.9572E-02  5.2428E-02 -1.9739E-02
      86-
 mid.  surface     8.5880E-02  7.7808E-02 -1.6036E-01  1.0167E-02  8.3427E-02 -4.1872E-02
     100-
 mid.  surface     5.3512E-02  8.2485E-02 -1.3352E-01 -6.6447E-03 -3.0881E-03  1.0444E-02
     110-
 mid.  surface     8.1302E-02  6.7973E-02 -1.6567E-01  3.1172E-04 -1.2708E-02 -1.6129E-02



 n o d a l  s t r e s s  c a l c u l a t i o n s   f o r   t i m e  s t e p      131   ( at time 1.76197E+01 )

 node (global)
          stress       sig-xx      sig-yy      sig-zz      sig-xy      sig-yz      sig-zx       plastic
                                                                                                 strain 
       1-
 mid.  surface    -1.2247E+09 -1.3111E+09 -1.3155E+09  4.0171E+07  2.2115E+08 -1.0112E+07  9.0925E-03
       2-
 mid.  surface     1.4752E+09  1.2593E+09 -5.8535E+07 -2.3433E+07  4.1281E+08 -9.6850E+06  3.9990E-01
       8-
 mid.  surface     4.3587E+07 -9.3926E+07 -7.8443E+07  3.6308E+07 -3.2013E+08 -1.1352E+07  1.8637E-01
       9-
 mid.  surface    -1.6968E+09 -1.7184E+09 -1.9336E+09 -4.1439E+07 -7.9990E+06  8.8917E+07  1.9409E-01
      10-
 mid.  surface    -7.2713E+08 -7.6831E+08 -5.0917E+08  2.0175E+07  6.5301E+07 -2.1572E+07  1.4250E-01
      11-
 mid.  surface    -5.5430E+08 -4.9983E+08 -6.2901E+07  1.3464E+08  3.5036E+08  1.4001E+08  1.1041E-01
      12-
 mid.  surface    -2.2638E+09 -2.3092E+09 -1.7595E+09  4.9293E+07  1.7839E+08  1.0974E+07 -1.7850E-01
      17-
 mid.  surface    -3.0229E+08 -3.2662E+08 -7.8954E+08  1.0781E+08  4.0900E+08  1.5359E+08  1.8772E-01
      18-
 mid.  surface    -9.4903E+08 -1.1388E+09 -7.1569E+08  4.2972E+07  5.4397E+07 -1.6061E+07  1.4896E-01
      19-
 mid.  surface     4.1134E+07 -5.3430E+07 -1.1789E+09  4.6816E+07  2.4071E+08 -2.5664E+07  1.4528E-01
      20-
 mid.  surface     2.2950E+09  2.3534E+09  7.5702E+08 -1.2097E+08 -3.6257E+08 -2.6805E+07  3.4680E-01
      21-
 mid.  surface     1.7434E+08  2.0328E+08 -1.2339E+08 -5.2016E+07 -2.4011E+08 -8.0487E+07  2.8708E-01
      22-
 mid.  surface    -1.8531E+09 -1.6750E+09 -3.7668E+08 -3.4169E+07 -3.1972E+08 -9.8542E+07 -1.4753E-02
      23-
 mid.  surface     1.9778E+09  2.1218E+09  1.4437E+09 -1.1914E+08 -5.0547E+08 -1.0571E+08  3.0665E-01
      40-
 mid.  surface     1.7410E+09  1.8527E+09  7.9295E+08 -6.4833E+07 -1.5908E+08 -5.4566E+07  2.3120E-01
      41-
 mid.  surface     2.0443E+09  2.0652E+09  1.1900E+09 -8.8101E+07 -2.0438E+08 -3.9613E+07  2.0613E-01
      85-
 mid.  surface     1.9019E+09  1.8582E+09  1.5267E+09 -1.5538E+07  9.5887E+07 -1.9649E+06  6.7646E-01
      86-
 mid.  surface    -1.0833E+09 -9.6722E+08  2.8982E+07  3.8725E+07 -4.5887E+07 -7.5330E+07  1.5227E-01
     100-
 mid.  surface     5.4698E+08  7.4075E+08  4.9100E+08  5.8046E+07 -4.5599E+07  5.4081E+07  1.8847E-01
     110-
 mid.  surface    -9.2904E+08 -6.7423E+08 -1.0668E+09  5.3335E+07  2.9542E+08  1.4763E+08  2.2352E-01



 n o d a l  s t r a i n  c a l c u l a t i o n s   f o r   t i m e  s t e p      131   ( at time 1.76197E+01 )

 node (global)
          strain       eps-xx      eps-yy      eps-zz      eps-xy      eps-yz      eps-zx       
       1-
 mid.  surface     9.5356E-02  9.3547E-02 -1.4361E-01  1.7828E-02 -1.7305E-02 -3.1555E-02
       2-
 mid.  surface     1.0065E-01  1.1923E-01 -2.3991E-01  4.1862E-02 -8.8888E-03 -6.3943E-03
       8-
 mid.  surface     8.0572E-02  7.8929E-02 -1.6118E-01 -1.7623E-02 -4.5114E-02  8.6811E-03
       9-
 mid.  surface     9.1781E-02  5.8419E-02 -1.7702E-01 -2.2391E-02 -4.8324E-02  7.7947E-03
      10-
 mid.  surface     8.7973E-02  7.6507E-02 -1.5729E-01  4.2966E-03 -4.3805E-02 -4.8581E-04
      11-
 mid.  surface     8.4339E-02  7.9865E-02 -1.4858E-01  5.5868E-03 -5.7640E-02 -8.5838E-03
      12-
 mid.  surface     3.0192E-02  8.0043E-02 -7.7883E-02 -1.9264E-02 -6.6132E-02 -4.8161E-02
      17-
 mid.  surface     9.6782E-02  8.7246E-02 -1.9398E-01  9.5531E-03 -4.1929E-02 -2.4400E-02
      18-
 mid.  surface     7.8046E-02  8.4478E-02 -1.5853E-01  1.1741E-02 -4.6004E-02 -1.3445E-02
      19-
 mid.  surface     4.4646E-02  1.0201E-01 -1.7152E-01 -7.1469E-03 -3.8059E-02 -3.4700E-02
      20-
 mid.  surface     1.0812E-01  8.1684E-02 -2.1161E-01  8.1954E-03  3.8433E-02  3.2142E-02
      21-
 mid.  surface     7.9184E-02  9.1967E-02 -2.0946E-01 -1.0848E-03  3.2018E-02  5.7171E-02
      22-
 mid.  surface     6.2571E-02  8.0832E-02 -1.1929E-01 -4.8926E-03  1.2157E-02 -4.9525E-03
      23-
 mid.  surface     1.0190E-01  7.3912E-02 -1.7276E-01  1.1215E-03  2.9907E-02  1.0531E-02
      40-
 mid.  surface     8.8619E-02  8.8872E-02 -1.7886E-01 -2.4189E-03  2.7136E-02 -7.8681E-03
      41-
 mid.  surface     6.4315E-02  1.0053E-01 -1.6107E-01 -9.6034E-04  2.4569E-02  5.8954E-03
      85-
 mid.  surface     9.7304E-02  1.0592E-01 -2.7596E-01  1.9194E-02  5.7550E-02 -1.9227E-02
      86-
 mid.  surface     9.1100E-02  8.8692E-02 -1.7493E-01  1.1909E-02  9.1467E-02 -4.9997E-02
     100-
 mid.  surface     5.7212E-02  1.0963E-01 -1.5957E-01 -1.5008E-03 -9.7683E-03  1.7345E-02
     110-
 mid.  surface     8.5023E-02  9.1265E-02 -1.9093E-01  3.8882E-03 -1.0523E-02 -8.3262E-03



 n o d a l  s t r e s s  c a l c u l a t i o n s   f o r   t i m e  s t e p      146   ( at time 1.88757E+01 )

 node (global)
          stress       sig-xx      sig-yy      sig-zz      sig-xy      sig-yz      sig-zx       plastic
                                                                                                 strain 
       1-
 mid.  surface     9.8346E+08  6.3072E+08 -8.7492E+08  1.4383E+07  1.7181E+08 -4.6826E+07  1.1660E-01
       2-
 mid.  surface    -8.1053E+08 -9.6085E+08 -8.2656E+08  6.1337E+07  3.7293E+08 -1.3193E+08  4.3048E-01
       8-
 mid.  surface     1.9709E+08  9.9465E+07  9.1676E+07  1.2010E+06 -3.1136E+08 -1.6292E+07  2.1152E-01
       9-
 mid.  surface    -2.3106E+09 -2.2849E+09 -2.5471E+09 -6.7083E+07 -4.4118E+07  9.2334E+07  2.1329E-01
      10-
 mid.  surface    -1.0735E+09 -1.0208E+09 -8.6589E+08  5.6619E+07  5.5493E+07 -1.5360E+07  1.2163E-01
      11-
 mid.  surface    -3.5859E+08 -1.7092E+08  1.2284E+08  1.1804E+08  3.8193E+08  5.1804E+06  9.4485E-02
      12-
 mid.  surface    -5.6457E+08 -7.3039E+08 -9.5373E+08  8.1927E+07  2.6369E+08 -1.7224E+08 -1.5378E-01
      17-
 mid.  surface    -8.0387E+08 -7.7796E+08 -1.2789E+09  4.7932E+07  4.7902E+08  1.0364E+07  2.1793E-01
      18-
 mid.  surface    -1.3032E+09 -1.5524E+09 -1.0998E+09  9.4445E+07  1.2079E+08 -4.0233E+07  1.3620E-01
      19-
 mid.  surface    -8.3795E+08 -8.9722E+08 -1.3127E+09  5.4658E+07  3.3722E+08 -2.4233E+08  1.7297E-01
      20-
 mid.  surface     2.1106E+09  2.3019E+09  8.1695E+08 -1.7209E+08 -4.3422E+08  1.0175E+08  4.5503E-01
      21-
 mid.  surface    -1.2363E+09 -1.1607E+09 -7.6237E+08 -6.7304E+07 -2.0276E+08 -3.6033E+07  2.5184E-01
      22-
 mid.  surface    -7.1055E+08 -6.9759E+08 -1.3063E+08 -4.3351E+07 -2.8442E+08  4.1016E+07 -5.3578E-02
      23-
 mid.  surface     2.2514E+09  2.5629E+09  1.9297E+09 -1.3663E+08 -6.4374E+08  4.6247E+07  3.6783E-01
      40-
 mid.  surface     2.3219E+09  2.5255E+09  1.5810E+09 -5.8959E+07 -2.4747E+08  1.7307E+07  2.9234E-01
      41-
 mid.  surface     2.7529E+09  2.7296E+09  2.1061E+09 -6.7774E+07 -2.2172E+08  3.5283E+07  2.7637E-01
      85-
 mid.  surface    -4.0698E+08 -4.8273E+08  6.6517E+08 -2.0071E+06  5.8621E+07  1.4177E+08  6.2056E-01
      86-
 mid.  surface     1.1912E+09  1.0178E+09  5.0851E+08  5.4597E+06 -7.0584E+07  1.9114E+08  1.8653E-01
     100-
 mid.  surface     1.3675E+09  1.5321E+09  1.3755E+09  4.6600E+07  2.7687E+06  1.3278E+07  2.1868E-01
     110-
 mid.  surface    -9.3904E+08 -6.9180E+08 -1.0900E+09  4.1210E+07  2.8977E+08  9.1860E+07  2.5469E-01



 n o d a l  s t r a i n  c a l c u l a t i o n s   f o r   t i m e  s t e p      146   ( at time 1.88757E+01 )

 node (global)
          strain       eps-xx      eps-yy      eps-zz      eps-xy      eps-yz      eps-zx       
       1-
 mid.  surface     1.0590E-01  1.0927E-01 -1.5979E-01  2.4771E-02 -2.1268E-02 -3.5131E-02
       2-
 mid.  surface     1.1951E-01  1.3288E-01 -2.7062E-01  4.4974E-02 -8.1646E-03 -4.6592E-04
       8-
 mid.  surface     9.2147E-02  8.8611E-02 -1.8000E-01 -1.9664E-02 -5.5134E-02  1.0016E-02
       9-
 mid.  surface     1.0047E-01  5.9876E-02 -1.9617E-01 -2.9192E-02 -5.9938E-02  1.0452E-02
      10-
 mid.  surface     9.3148E-02  8.5613E-02 -1.6795E-01  7.2120E-03 -5.0244E-02 -1.5254E-03
      11-
 mid.  surface     8.1465E-02  9.6813E-02 -1.5944E-01  6.2405E-03 -6.3878E-02 -4.1382E-03
      12-
 mid.  surface     3.3270E-02  9.2838E-02 -8.5893E-02 -1.8899E-02 -7.4117E-02 -4.8186E-02
      17-
 mid.  surface     9.9492E-02  1.0108E-01 -2.1491E-01  7.8888E-03 -4.5222E-02 -2.3084E-02
      18-
 mid.  surface     8.8257E-02  9.5006E-02 -1.7614E-01  1.8111E-02 -5.0417E-02 -1.6507E-02
      19-
 mid.  surface     5.2361E-02  1.1289E-01 -1.9480E-01 -1.1091E-02 -4.1046E-02 -3.4889E-02
      20-
 mid.  surface     1.1885E-01  8.8314E-02 -2.3523E-01  3.8730E-03  4.5853E-02  3.4267E-02
      21-
 mid.  surface     9.4543E-02  1.0216E-01 -2.3941E-01 -3.7051E-03  3.7598E-02  5.7703E-02
      22-
 mid.  surface     7.1105E-02  9.4693E-02 -1.3349E-01 -1.1685E-04  1.1761E-02 -1.0507E-02
      23-
 mid.  surface     1.0975E-01  8.0828E-02 -1.8572E-01  1.0708E-03  2.8972E-02  6.4748E-03
      40-
 mid.  surface     9.4319E-02  9.7387E-02 -1.9316E-01 -4.4015E-03  2.7566E-02 -6.2831E-03
      41-
 mid.  surface     7.0005E-02  1.1312E-01 -1.7791E-01 -4.2508E-03  3.3321E-02  8.4571E-03
      85-
 mid.  surface     1.0482E-01  1.2120E-01 -3.1338E-01  1.8029E-02  6.5161E-02 -2.0042E-02
      86-
 mid.  surface     9.1369E-02  1.0576E-01 -1.9642E-01  1.7823E-02  1.0630E-01 -5.8295E-02
     100-
 mid.  surface     6.0941E-02  1.3402E-01 -1.7564E-01  4.7113E-04 -1.5238E-02  2.1999E-02
     110-
 mid.  surface     9.0541E-02  1.0863E-01 -2.1440E-01  7.0854E-03 -1.5482E-02 -7.2209E-03



 n o d a l  s t r e s s  c a l c u l a t i o n s   f o r   t i m e  s t e p      154   ( at time 2.01316E+01 )

 node (global)
          stress       sig-xx      sig-yy      sig-zz      sig-xy      sig-yz      sig-zx       plastic
                                                                                                 strain 
       1-
 mid.  surface    -2.5594E+08 -3.8051E+08 -1.5341E+09  9.5999E+06  9.8126E+07  9.9936E+05  1.5960E-01
       2-
 mid.  surface    -8.0348E+08 -8.3928E+08 -1.2297E+09  1.8307E+07  1.8680E+08  2.5139E+07  4.4923E-01
       8-
 mid.  surface     2.8833E+08  2.1301E+08 -3.0184E+06 -1.0350E+07 -2.4251E+08  4.2775E+06  2.1908E-01
       9-
 mid.  surface    -2.4110E+09 -2.4391E+09 -2.7142E+09 -2.3571E+07 -1.4681E+08  2.9140E+07  2.2364E-01
      10-
 mid.  surface    -5.7037E+08 -6.2883E+08 -7.7353E+08  2.5169E+07  2.9842E+08  7.0587E+07  1.3063E-01
      11-
 mid.  surface     7.6923E+08  9.0403E+08  3.6012E+08  2.3134E+07  3.3283E+08  1.1086E+08  1.1652E-01
      12-
 mid.  surface    -5.0921E+08 -5.7859E+08 -1.0604E+09  1.5611E+06  1.1926E+08 -6.6001E+07 -1.3677E-01
      17-
 mid.  surface     5.4207E+08  6.5878E+08 -9.7031E+08 -8.6334E+06  2.8666E+08 -1.7181E+07  2.7729E-01
      18-
 mid.  surface    -1.7993E+07 -1.1682E+08 -6.1576E+08  4.7549E+06  1.7790E+08  8.0617E+06  1.6302E-01
      19-
 mid.  surface    -7.2665E+08 -8.1444E+08 -1.5425E+09 -1.7763E+07  1.6314E+08 -1.2624E+08  1.9797E-01
      20-
 mid.  surface     2.1150E+09  2.1953E+09  8.0824E+08 -2.6562E+07 -5.2595E+08 -7.7432E+07  5.0504E-01
      21-
 mid.  surface    -4.4486E+08 -4.5348E+08 -2.3399E+08 -1.7819E+07 -1.0106E+08 -8.3195E+07  2.4227E-01
      22-
 mid.  surface    -5.2989E+08 -5.5407E+08  2.7609E+08  1.1616E+07 -1.1726E+08 -4.3026E+07 -8.3502E-02
      23-
 mid.  surface     1.6988E+09  1.7942E+09  1.8014E+09  2.9162E+06 -4.7779E+08  1.0424E+07  3.6754E-01
      40-
 mid.  surface     5.4131E+08  5.7326E+08  8.3875E+08  9.0903E+06 -9.9680E+07  2.1057E+07  2.8315E-01
      41-
 mid.  surface     1.6507E+09  1.6614E+09  1.5743E+09 -1.6874E+06 -2.4167E+08 -1.4577E+07  2.7876E-01
      85-
 mid.  surface    -1.2562E+09 -1.2571E+09  3.8195E+08 -1.1276E+07  1.0012E+08  9.4511E+07  5.6552E-01
      86-
 mid.  surface    -8.2731E+08 -8.6285E+08 -1.1776E+08 -4.5142E+06  5.5678E+07  1.0391E+08  1.6110E-01
     100-
 mid.  surface     1.6139E+09  1.6525E+09  1.3039E+09  3.7004E+06  5.3324E+07  2.1406E+07  2.2585E-01
     110-
 mid.  surface    -8.2252E+08 -7.5133E+08 -1.1794E+09  1.4974E+07  1.6325E+08  2.4392E+07  2.6404E-01



 n o d a l  s t r a i n  c a l c u l a t i o n s   f o r   t i m e  s t e p      154   ( at time 2.01316E+01 )

 node (global)
          strain       eps-xx      eps-yy      eps-zz      eps-xy      eps-yz      eps-zx       
       1-
 mid.  surface     1.1440E-01  1.1610E-01 -1.7433E-01  2.7364E-02 -2.3560E-02 -3.5668E-02
       2-
[...]
      23-
 mid.  surface     4.4218E-01  3.9931E-01 -8.2032E-01 -8.7067E-04  2.0724E-01 -1.4070E-01
      40-
 mid.  surface     4.5291E-01  3.2076E-01 -7.8238E-01 -5.0925E-02  8.7833E-03  1.6168E-01
      41-
 mid.  surface     5.0524E-01  3.3214E-01 -7.6839E-01 -6.9250E-02  2.7807E-01  1.3500E-01
      85-
 mid.  surface     3.7035E-01  4.9277E-01 -1.0463E+00 -7.0176E-03  5.1121E-02  1.8255E-01
      86-
 mid.  surface     3.7410E-01  4.4207E-01 -7.1322E-01  5.1145E-03  1.9878E-01  3.2261E-01
     100-
 mid.  surface     5.1493E-01  5.2932E-01 -1.0013E+00 -2.4816E-02  1.1456E-01 -3.4236E-02
     110-
 mid.  surface     5.2224E-01  3.8390E-01 -1.1884E+00 -3.9025E-02  1.4425E-01 -1.0382E-01



 n o d a l  s t r e s s  c a l c u l a t i o n s   f o r   t i m e  s t e p      478   ( at time 8.73577E+01 )

 node (global)
          stress       sig-xx      sig-yy      sig-zz      sig-xy      sig-yz      sig-zx       plastic
                                                                                                 strain 
       1-
 mid.  surface     0.0000E+00  0.0000E+00  0.0000E+00  0.0000E+00  0.0000E+00  0.0000E+00  2.0776E+00
       2-
 mid.  surface     0.0000E+00  0.0000E+00  0.0000E+00  0.0000E+00  0.0000E+00  0.0000E+00  1.6670E+00
       8-
 mid.  surface    -4.4372E+08 -2.1950E+08 -4.4916E+08 -1.4007E+08  1.3883E+07  1.1032E+08  4.3105E-01
       9-
 mid.  surface     9.3740E+08  9.0686E+07 -8.8004E+08 -3.2836E+08  8.8534E+08  7.0132E+07  6.0730E+00
      10-
 mid.  surface    -5.7009E+08 -3.8476E+08 -3.8103E+08  4.0372E+08  5.3171E+08 -1.5705E+08  7.1074E-01
      11-
 mid.  surface    -2.9531E+07  5.2987E+08  4.8552E+08  2.2056E+08  1.9112E+08 -4.0584E+07 -1.3787E+00
      12-
 mid.  surface     1.1379E+09  9.3475E+08  1.6636E+08 -1.5454E+08 -4.8362E+07 -2.3506E+07  1.0279E+00
      17-
 mid.  surface     7.3234E+08 -8.6033E+07  5.7580E+08 -1.7452E+08  7.8742E+07 -1.5178E+08  1.1524E+00
      18-
 mid.  surface     4.1805E+08 -4.0390E+06 -1.8471E+08 -2.7313E+08  1.9440E+08  4.9668E+07  1.5028E-01
      19-
 mid.  surface     9.8446E+07  5.7896E+07  3.3953E+08  1.4100E+08 -7.0038E+07 -9.0843E+07  1.2954E+00
      20-
 mid.  surface     2.0105E+08 -7.3129E+08 -6.6452E+08 -4.2079E+08 -2.1453E+08  1.4225E+08  1.4727E+00
      21-
 mid.  surface    -1.6860E+08 -2.2428E+08 -2.7577E+07  9.0063E+07  2.2961E+07 -6.0162E+07  1.0295E+00
      22-
 mid.  surface     9.7185E+08  8.1244E+08 -3.6687E+08 -3.5619E+08  6.5645E+07  1.0255E+08  9.4444E-01
      23-
 mid.  surface    -3.9918E+08 -6.5509E+06 -3.4948E+08  6.8423E+07 -9.5608E+07  8.3178E+07 -1.1494E+00
      40-
 mid.  surface    -1.2199E+09 -4.3210E+08 -1.9462E+08  5.1222E+08 -1.1145E+08  2.1259E+07 -1.2876E+00
      41-
 mid.  surface     3.0400E+08 -9.4761E+07 -3.8357E+08 -4.0807E+08 -3.0933E+08  2.7871E+08 -5.8287E-01
      85-
 mid.  surface     0.0000E+00  0.0000E+00  0.0000E+00  0.0000E+00  0.0000E+00  0.0000E+00  1.0094E+00
      86-
 mid.  surface     0.0000E+00  0.0000E+00  0.0000E+00  0.0000E+00  0.0000E+00  0.0000E+00  1.1729E+00
     100-
 mid.  surface    -6.8208E+08  4.3431E+07  4.7621E+08  9.5249E+07 -5.5503E+08  4.5570E+07 -2.2545E+00
     110-
 mid.  surface    -2.7400E+08 -4.9782E+07 -2.7944E+08 -1.4007E+08  1.3885E+07  1.1032E+08  2.1191E+00



 n o d a l  s t r a i n  c a l c u l a t i o n s   f o r   t i m e  s t e p      478   ( at time 8.73577E+01 )

 node (global)
          strain       eps-xx      eps-yy      eps-zz      eps-xy      eps-yz      eps-zx       
       1-
 mid.  surface     5.2043E-01  4.5242E-01 -9.2257E-01 -2.0702E-03 -9.3573E-02  2.8010E-02
       2-
 mid.  surface     5.0702E-01  4.9202E-01 -1.1568E+00 -4.4009E-02 -6.3828E-02 -9.5769E-02
       8-
 mid.  surface     5.3709E-01  6.1364E-01 -1.0155E+00  4.9202E-02 -4.9745E-02 -1.1351E-01
       9-
 mid.  surface     5.5776E-01  3.9226E-01 -1.1782E+00 -9.3014E-03 -1.6334E-01 -7.9157E-02
      10-
 mid.  surface     4.6287E-01  1.8103E-01 -5.6522E-01 -3.0578E-04 -1.8129E-01  1.1176E-02
      11-
 mid.  surface     3.8076E-01  4.3662E-01 -8.3265E-01 -7.7357E-02 -1.3157E-01  2.5745E-03
      12-
 mid.  surface     4.3248E-01  5.0533E-01 -8.9557E-01 -6.4085E-02 -1.1897E-01 -1.3582E-01
      17-
 mid.  surface     4.6191E-01  4.8965E-01 -9.5202E-01 -1.1241E-01 -1.9042E-01  4.3603E-02
      18-
 mid.  surface     5.0422E-01  4.1561E-01 -7.0374E-01 -3.9658E-03 -1.1376E-01 -1.3331E-03
      19-
 mid.  surface     4.5122E-01  4.7445E-01 -9.5629E-01 -7.0515E-02 -9.9674E-02 -1.1323E-01
      20-
 mid.  surface     5.4175E-01  4.6593E-01 -1.0230E+00 -5.6733E-02  1.8528E-01 -4.8680E-02
      21-
 mid.  surface     4.5146E-01  4.3539E-01 -8.5918E-01 -2.2979E-02  1.8624E-01  7.0080E-02
      22-
 mid.  surface     4.2380E-01  4.8159E-01 -7.8074E-01 -8.2636E-03  2.1107E-01  1.7079E-01
      23-
 mid.  surface     4.6529E-01  4.3177E-01 -8.9814E-01 -7.3475E-03  2.8294E-01 -1.9989E-01
      40-
 mid.  surface     4.6058E-01  3.3622E-01 -7.8181E-01 -5.8889E-02 -1.9450E-01  1.9639E-01
      41-
 mid.  surface     5.1672E-01  3.5924E-01 -7.6839E-01 -8.9309E-02  3.5457E-01  1.9777E-01
      85-
 mid.  surface     3.4557E-01  5.0195E-01 -9.9133E-01 -2.7530E-02  4.5136E-02  2.4905E-01
      86-
 mid.  surface     3.6257E-01  4.5176E-01 -7.0662E-01 -1.3586E-02  1.9218E-01  4.5367E-01
     100-
 mid.  surface     5.4341E-01  5.8500E-01 -1.1392E+00 -4.0706E-03  5.8125E-02 -1.0919E-02
     110-
 mid.  surface     5.4187E-01  3.6944E-01 -1.3157E+00 -4.6996E-02  1.6220E-01 -3.3201E-02



 n o d a l  s t r e s s  c a l c u l a t i o n s   f o r   t i m e  s t e p      484   ( at time 9.05125E+01 )

 node (global)
          stress       sig-xx      sig-yy      sig-zz      sig-xy      sig-yz      sig-zx       plastic
                                                                                                 strain 
       1-
 mid.  surface    -4.2946E+07 -4.2946E+07 -4.2946E+07  0.0000E+00  0.0000E+00  0.0000E+00  2.0776E+00
       2-
 mid.  surface     3.9648E+07  3.9648E+07  3.9648E+07  0.0000E+00  0.0000E+00  0.0000E+00  1.6670E+00
       8-
 mid.  surface     6.3604E+08  1.8075E+08  7.5539E+07 -1.1296E+08  1.6130E+08  8.1042E+07  4.3833E-01
       9-
 mid.  surface     1.4588E+09  2.1844E+08 -6.8189E+07 -3.0774E+08  4.3943E+08  2.2079E+08  6.0928E+00
      10-
 mid.  surface    -1.4374E+09 -1.2969E+09 -1.8357E+09  4.7174E+07  2.1495E+08  4.4469E+06  7.3102E-01
      11-
 mid.  surface    -1.0249E+09 -6.0930E+08 -3.3628E+08  1.6049E+08  7.3250E+07 -6.4868E+07 -1.3976E+00
      12-
 mid.  surface    -5.5718E+08 -6.1549E+08 -8.8633E+08 -4.6194E+07 -7.5887E+06 -4.8339E+06  1.0442E+00
      17-
 mid.  surface     7.9302E+08  7.6439E+08  1.5704E+09  3.6524E+07 -8.8617E+07 -5.8173E+07  1.1170E+00
      18-
 mid.  surface    -7.1856E+08 -4.2895E+08 -8.3938E+08  6.8770E+07  2.1328E+07  3.1072E+07  1.6145E-01
      19-
 mid.  surface    -6.5889E+07 -1.2061E+07  2.3798E+08  4.2646E+07  7.0058E+06  4.4626E+06  1.2804E+00
      20-
 mid.  surface     1.8805E+09  1.1843E+09  1.6329E+09 -2.0457E+08 -2.0204E+08  3.0090E+07  1.4622E+00
      21-
 mid.  surface     9.5066E+07  3.6760E+07 -2.3408E+08 -4.6194E+07 -7.5887E+06 -4.8340E+06  1.0457E+00
      22-
 mid.  surface    -4.4505E+08 -6.0390E+08 -1.3418E+09 -1.2585E+08 -2.0674E+07 -1.3169E+07  9.8861E-01
      23-
 mid.  surface     5.7771E+08  4.0934E+08  5.6630E+08 -7.4184E+07 -1.0680E+08 -6.9758E+07 -1.1459E+00
      40-
 mid.  surface    -7.9073E+08 -5.0112E+08 -9.1156E+08  6.8770E+07  2.1329E+07  3.1072E+07 -1.2764E+00
      41-
 mid.  surface     8.0553E+08  5.8372E+08  3.5143E+08 -1.0316E+08 -1.6689E+08  8.8229E+07 -5.7274E-01
      85-
 mid.  surface    -4.2947E+07 -4.2947E+07 -4.2947E+07  0.0000E+00  0.0000E+00  0.0000E+00  1.0094E+00
      86-
 mid.  surface    -1.1700E+08 -1.1700E+08 -1.1700E+08  0.0000E+00  0.0000E+00  0.0000E+00  1.1729E+00
     100-
 mid.  surface    -4.4258E+08 -2.2263E+07  7.4866E+07  1.0428E+08 -1.4891E+08 -7.4818E+07 -2.2612E+00
     110-
 mid.  surface     4.9171E+08  3.6418E+07 -6.8793E+07 -1.1296E+08  1.6130E+08  8.1043E+07  2.1264E+00



 n o d a l  s t r a i n  c a l c u l a t i o n s   f o r   t i m e  s t e p      484   ( at time 9.05125E+01 )

 node (global)
          strain       eps-xx      eps-yy      eps-zz      eps-xy      eps-yz      eps-zx       
       1-
 mid.  surface     5.1542E-01  4.5099E-01 -9.2135E-01 -8.8338E-03 -1.0117E-01  1.9068E-02
       2-
 mid.  surface     4.9834E-01  4.9526E-01 -1.1620E+00 -5.0094E-02 -8.5889E-02 -1.0644E-01
       8-
 mid.  surface     5.4688E-01  6.0934E-01 -1.0062E+00  5.3512E-02 -2.9651E-02 -1.1529E-01
       9-
 mid.  surface     5.6710E-01  3.8753E-01 -1.1775E+00 -1.0451E-02 -1.7306E-01 -9.6506E-02
      10-
 mid.  surface     4.6759E-01  1.6801E-01 -5.6840E-01  4.6004E-04 -1.6635E-01  1.6173E-02
      11-
 mid.  surface     3.9215E-01  4.4050E-01 -8.5149E-01 -7.5446E-02 -1.1741E-01  4.1839E-03
      12-
 mid.  surface     4.3190E-01  5.1559E-01 -8.8693E-01 -6.1327E-02 -1.1898E-01 -1.6503E-01
      17-
 mid.  surface     4.7799E-01  4.9012E-01 -9.8308E-01 -1.1493E-01 -1.8793E-01  4.9207E-02
      18-
 mid.  surface     5.1078E-01  4.0048E-01 -6.8208E-01 -5.3487E-03 -9.0221E-02  1.3297E-02
      19-
 mid.  surface     4.5450E-01  4.8132E-01 -9.6894E-01 -6.9075E-02 -1.1190E-01 -1.4374E-01
      20-
 mid.  surface     5.5215E-01  4.7485E-01 -1.0566E+00 -6.3080E-02  1.8087E-01 -6.8950E-02
      21-
 mid.  surface     4.4892E-01  4.3994E-01 -8.5491E-01 -3.1305E-02  1.8933E-01  9.6995E-02
      22-
 mid.  surface     4.2170E-01  4.8841E-01 -7.5847E-01 -1.1811E-02  2.3060E-01  1.7155E-01
      23-
 mid.  surface     4.7018E-01  4.4697E-01 -9.2146E-01 -1.0388E-02  2.8410E-01 -1.8638E-01
      40-
 mid.  surface     4.6739E-01  3.3561E-01 -7.9773E-01 -5.9522E-02 -2.1370E-01  1.9235E-01
      41-
 mid.  surface     5.2320E-01  3.6358E-01 -7.6022E-01 -9.1884E-02  3.4399E-01  2.0524E-01
      85-
 mid.  surface     3.4161E-01  5.0418E-01 -9.9051E-01 -3.3598E-02  4.5644E-02  2.8778E-01
      86-
 mid.  surface     3.5844E-01  4.4973E-01 -6.9870E-01 -1.9941E-02  2.0450E-01  4.8722E-01
     100-
 mid.  surface     5.5042E-01  5.8838E-01 -1.1349E+00 -3.4365E-03  6.5333E-02 -1.7066E-02
     110-
 mid.  surface     5.4869E-01  3.7313E-01 -1.3218E+00 -4.7381E-02  1.3561E-01 -5.6441E-02



 n o d a l  s t r e s s  c a l c u l a t i o n s   f o r   t i m e  s t e p      492   ( at time 9.55125E+01 )

 node (global)
          stress       sig-xx      sig-yy      sig-zz      sig-xy      sig-yz      sig-zx       plastic
                                                                                                 strain 
       1-
 mid.  surface     1.5952E+08  1.5952E+08  1.5952E+08  0.0000E+00  0.0000E+00  0.0000E+00  2.0776E+00
       2-
 mid.  surface    -1.4614E+08 -1.4614E+08 -1.4614E+08  0.0000E+00  0.0000E+00  0.0000E+00  1.6670E+00
       8-
 mid.  surface     0.0000E+00  0.0000E+00  0.0000E+00  0.0000E+00  0.0000E+00  0.0000E+00  4.3833E-01
       9-
 mid.  surface     0.0000E+00  0.0000E+00  0.0000E+00  0.0000E+00  0.0000E+00  0.0000E+00  6.0928E+00
      10-
 mid.  surface    -4.1448E+08 -2.4903E+08 -7.6202E+08  1.3675E+06 -4.8056E+07 -1.4131E+08  7.8286E-01
      11-
 mid.  surface    -4.3499E+08 -2.8996E+08 -2.2943E+08  1.9415E+07 -4.2632E+07 -1.1927E+08 -5.8054E-02
      12-
 mid.  surface     2.2736E+08  2.2736E+08  2.2736E+08  0.0000E+00  0.0000E+00  0.0000E+00 -2.2876E-01
      17-
 mid.  surface    -1.9008E+08 -1.4763E+08  3.1697E+08  2.1638E+07 -1.2921E+07 -3.0876E+07  1.8579E+00
      18-
 mid.  surface     2.0589E+08  1.5992E+08 -3.4334E+08 -2.3438E+07  1.3996E+07  3.3445E+07  2.1255E-01
      19-
 mid.  surface    -3.6736E+07 -3.6736E+07 -3.6736E+07  0.0000E+00  0.0000E+00  0.0000E+00 -2.9520E-01
      20-
 mid.  surface     3.5334E+08  2.2654E+08  3.6559E+08 -1.0120E+07  3.7081E+07  1.0601E+08  1.9275E+00
      21-
 mid.  surface    -7.3069E+07 -7.3069E+07 -7.3069E+07  0.0000E+00  0.0000E+00  0.0000E+00 -6.0291E-01
      22-
 mid.  surface     7.9758E+07  7.9758E+07  7.9758E+07  0.0000E+00  0.0000E+00  0.0000E+00 -7.6503E-01
      23-
 mid.  surface    -1.9008E+08 -1.4763E+08  3.1697E+08  2.1638E+07 -1.2921E+07 -3.0876E+07 -1.7522E-01
      40-
 mid.  surface     2.0589E+08  1.5992E+08 -3.4334E+08 -2.3438E+07  1.3996E+07  3.3445E+07 -1.2253E+00
      41-
 mid.  surface     7.8533E+08  5.3706E+08  1.4361E+08 -4.3583E+07  7.3265E+07  2.0155E+08 -5.3254E-01
      85-
 mid.  surface    -4.4134E+08 -4.4134E+08 -4.4134E+08  0.0000E+00  0.0000E+00  0.0000E+00  1.0094E+00
      86-
 mid.  surface    -1.0516E+08 -1.0516E+08 -1.0516E+08  0.0000E+00  0.0000E+00  0.0000E+00  1.1729E+00
     100-
 mid.  surface     0.0000E+00  0.0000E+00  0.0000E+00  0.0000E+00  0.0000E+00  0.0000E+00 -2.2612E+00
     110-
 mid.  surface     0.0000E+00  0.0000E+00  0.0000E+00  0.0000E+00  0.0000E+00  0.0000E+00  2.1264E+00



 n o d a l  s t r a i n  c a l c u l a t i o n s   f o r   t i m e  s t e p      492   ( at time 9.55125E+01 )

 node (global)
          strain       eps-xx      eps-yy      eps-zz      eps-xy      eps-yz      eps-zx       
       1-
 mid.  surface     5.0350E-01  4.3589E-01 -9.0085E-01 -2.2058E-02 -1.0293E-01  4.3294E-02
       2-
 mid.  surface     4.8124E-01  4.8440E-01 -1.1574E+00 -7.2546E-02 -1.1366E-01 -1.9548E-01
       8-
 mid.  surface     5.6978E-01  6.0727E-01 -1.0121E+00  6.3185E-02 -1.9948E-02 -1.3323E-01
       9-
 mid.  surface     5.8808E-01  3.7739E-01 -1.1746E+00 -9.7739E-03 -2.1358E-01 -1.4644E-01
      10-
 mid.  surface     4.7905E-01  1.2811E-01 -5.4867E-01 -2.9373E-05 -1.1164E-01  2.5035E-02
      11-
 mid.  surface     2.0869E-01  1.9880E-01 -4.7826E-01  1.1789E-02 -5.3748E-02 -5.0051E-02
      12-
 mid.  surface     2.7401E-01  2.5623E-01 -4.0655E-01  8.9720E-03 -1.5205E-01 -2.3779E-01
      17-
 mid.  surface     2.5039E-01  3.0095E-01 -5.6404E-01 -5.4817E-02 -7.7623E-02  7.4770E-03
      18-
 mid.  surface     5.2035E-01  3.5899E-01 -6.0164E-01 -1.5378E-02 -3.8251E-02  4.6239E-02
      19-
 mid.  surface     2.6728E-01  2.8340E-01 -5.5787E-01 -1.9942E-04 -1.0832E-01 -2.5988E-01
      20-
 mid.  surface     2.9286E-01  2.8200E-01 -6.2129E-01 -5.2511E-02  1.6705E-01 -1.0711E-01
      21-
 mid.  surface     1.8325E-01  2.6429E-01 -4.6388E-01 -2.0407E-02  1.7775E-01  1.0754E-01
      22-
 mid.  surface     2.0585E-01  2.5460E-01 -3.2242E-01 -3.5265E-03  1.4073E-01  1.9010E-01
      23-
 mid.  surface     2.6514E-01  2.2056E-01 -5.4103E-01  4.0337E-03  1.6112E-01 -1.1742E-01
      40-
 mid.  surface     4.8490E-01  3.2132E-01 -8.0133E-01 -5.5742E-02 -2.4273E-01  1.7166E-01
      41-
 mid.  surface     5.3074E-01  3.6732E-01 -7.1455E-01 -9.9560E-02  3.3568E-01  2.2989E-01
      85-
 mid.  surface     3.2202E-01  5.1304E-01 -9.8454E-01 -5.3576E-02  5.7202E-02  3.9520E-01
      86-
 mid.  surface     3.3504E-01  4.5443E-01 -6.7768E-01 -4.3964E-02  2.2600E-01  6.7441E-01
     100-
 mid.  surface     5.6727E-01  6.0706E-01 -1.1643E+00 -6.7573E-03  8.1571E-02 -3.2517E-02
     110-
 mid.  surface     5.6454E-01  3.8425E-01 -1.3496E+00 -5.5635E-02  1.1754E-01 -9.0607E-02



 n o d a l  s t r e s s  c a l c u l a t i o n s   f o r   t i m e  s t e p      496   ( at time 1.00000E+02 )

 node (global)
          stress       sig-xx      sig-yy      sig-zz      sig-xy      sig-yz      sig-zx       plastic
                                                                                                 strain 
       1-
 mid.  surface    -2.7457E+07  4.2730E+06 -7.8431E+07  1.8767E+07 -1.0962E+07  1.0571E+07  2.0776E+00
       2-
 mid.  surface     2.5432E+07 -3.6357E+06  7.2396E+07 -1.7242E+07  1.0133E+07 -9.7061E+06  1.6670E+00
       8-
 mid.  surface     0.0000E+00  0.0000E+00  0.0000E+00  0.0000E+00  0.0000E+00  0.0000E+00  4.3833E-01
       9-
 mid.  surface     0.0000E+00  0.0000E+00  0.0000E+00  0.0000E+00  0.0000E+00  0.0000E+00  6.0928E+00
      10-
 mid.  surface    -4.3232E+06  2.3808E+07 -4.3971E+08 -5.9452E+06 -1.1920E+08 -9.9789E+07  7.8286E-01
      11-
 mid.  surface    -1.5869E+06  8.7388E+06 -1.6140E+08 -2.1822E+06 -4.3752E+07 -3.6629E+07 -5.8054E-02
      12-
 mid.  surface     3.5223E+07  8.0443E+07  3.3419E+07  1.3564E+07  8.4756E+06  9.2293E+06 -2.2876E-01
      17-
 mid.  surface     1.4650E+06 -8.0676E+06  1.4900E+08  2.0146E+06  4.0392E+07  3.3815E+07  1.8579E+00
      18-
 mid.  surface    -1.5869E+06  8.7388E+06 -1.6140E+08 -2.1822E+06 -4.3752E+07 -3.6629E+07  2.1255E-01
      19-
 mid.  surface     2.4766E+07  1.7457E+07  5.4077E+07 -7.5922E+06  8.5021E+06 -3.8822E+06 -2.9520E-01
      20-
 mid.  surface     2.2162E+06 -1.2204E+07  2.2541E+08  3.0477E+06  6.1103E+07  5.1155E+07  1.9275E+00
      21-
 mid.  surface     1.2716E+07 -1.8179E+06  3.6198E+07 -8.6212E+06  5.0666E+06 -4.8530E+06 -6.0291E-01
      22-
 mid.  surface    -1.3729E+07  2.1361E+06 -3.9216E+07  9.3836E+06 -5.4812E+06  5.2854E+06 -7.6503E-01
      23-
 mid.  surface     1.4650E+06 -8.0676E+06  1.4900E+08  2.0146E+06  4.0392E+07  3.3815E+07 -1.7522E-01
      40-
 mid.  surface    -1.5869E+06  8.7389E+06 -1.6140E+08 -2.1823E+06 -4.3753E+07 -3.6629E+07 -1.2253E+00
      41-
 mid.  surface     1.4650E+06 -8.0676E+06  1.4900E+08  2.0146E+06  4.0392E+07  3.3815E+07 -5.3254E-01
      85-
 mid.  surface    -7.2470E+07 -1.6025E+08 -7.2872E+07 -2.5603E+07 -1.7781E+07 -1.7594E+07  1.0094E+00
      86-
 mid.  surface    -1.1524E+08 -1.3615E+08 -2.0868E+08  1.1271E+07 -3.5990E+07  3.4987E+06  1.1729E+00
     100-
 mid.  surface     0.0000E+00  0.0000E+00  0.0000E+00  0.0000E+00  0.0000E+00  0.0000E+00 -2.2612E+00
     110-
 mid.  surface     0.0000E+00  0.0000E+00  0.0000E+00  0.0000E+00  0.0000E+00  0.0000E+00  2.1264E+00



 n o d a l  s t r a i n  c a l c u l a t i o n s   f o r   t i m e  s t e p      496   ( at time 1.00000E+02 )

 node (global)
          strain       eps-xx      eps-yy      eps-zz      eps-xy      eps-yz      eps-zx       
       1-
 mid.  surface     5.0414E-01  4.3667E-01 -9.0448E-01 -2.1367E-02 -1.0265E-01  4.5561E-02
       2-
 mid.  surface     4.8141E-01  4.8469E-01 -1.1563E+00 -7.2455E-02 -1.1320E-01 -1.9442E-01
       8-
 mid.  surface     5.6968E-01  6.0782E-01 -1.0117E+00  6.3393E-02 -2.0253E-02 -1.3222E-01
       9-
 mid.  surface     5.8862E-01  3.7838E-01 -1.1782E+00 -9.0457E-03 -2.1265E-01 -1.4635E-01
      10-
 mid.  surface     4.7941E-01  1.2893E-01 -5.4910E-01 -2.7876E-05 -1.0933E-01  2.6578E-02
      11-
 mid.  surface     2.0850E-01  1.9977E-01 -4.7932E-01  1.1797E-02 -5.5127E-02 -5.1034E-02
      12-
 mid.  surface     2.7402E-01  2.5640E-01 -4.0725E-01  9.1043E-03 -1.5172E-01 -2.3634E-01
      17-
 mid.  surface     2.5012E-01  3.0165E-01 -5.6498E-01 -5.4391E-02 -8.0037E-02  6.0291E-03
      18-
 mid.  surface     5.2010E-01  3.5902E-01 -6.0185E-01 -1.5489E-02 -3.8990E-02  4.7562E-02
      19-
 mid.  surface     2.6715E-01  2.8329E-01 -5.5592E-01 -4.7194E-04 -1.0788E-01 -2.5995E-01
      20-
 mid.  surface     2.9268E-01  2.8151E-01 -6.2080E-01 -5.2542E-02  1.6509E-01 -1.0714E-01
      21-
 mid.  surface     1.8333E-01  2.6421E-01 -4.6264E-01 -2.0448E-02  1.7691E-01  1.0498E-01
      22-
 mid.  surface     2.0586E-01  2.5463E-01 -3.2330E-01 -3.6002E-03  1.4040E-01  1.8981E-01
      23-
 mid.  surface     2.6512E-01  2.2032E-01 -5.4035E-01  3.9805E-03  1.6169E-01 -1.1746E-01
      40-
 mid.  surface     4.8496E-01  3.2000E-01 -7.9993E-01 -5.6319E-02 -2.3967E-01  1.7318E-01
      41-
 mid.  surface     5.3044E-01  3.6589E-01 -7.1298E-01 -9.9922E-02  3.3445E-01  2.2953E-01
      85-
 mid.  surface     3.2275E-01  5.1295E-01 -9.8384E-01 -5.3686E-02  5.7553E-02  3.9242E-01
      86-
 mid.  surface     3.3603E-01  4.5481E-01 -6.8086E-01 -4.3651E-02  2.2534E-01  6.7587E-01
     100-
 mid.  surface     5.6689E-01  6.0711E-01 -1.1616E+00 -7.0875E-03  7.9954E-02 -3.2838E-02
     110-
 mid.  surface     5.6489E-01  3.8496E-01 -1.3509E+00 -5.5395E-02  1.1639E-01 -9.3088E-02
