 LS-DYNA keyword deck by LS-PrePost                                      
                    ls-dyna smp d R14 R14.1.1s_1_ef50e1 date 06/16/2024

{BEGIN LEGEND}
 Entity #        Title
        1                                                                                     
        2                                                                                     
        3                                                                                     
        4                                                                                     
        5                                                                                     
        6                                                                                     
        7                                                                                     
        8                                                                                     
        9                                                                                     
       10                                                                                     
       11                                                                                     
       12                                                                                     
       13                                                                                     
       14                                                                                     
       15                                                                                     
       16                                                                                     
       17                                                                                     
       18                                                                                     
       19                                                                                     
       51                                                                                     
       52                                                                                     
       53                                                                                     
       55                                                                                     
       56                                                                                     
       57                                                                                     
       59                                                                                     
       60                                                                                     
       61                                                                                     
       63                                                                                     
       64                                                                                     
       65                                                                                     
       67                                                                                     
       68                                                                                     
       69                                                                                     
       85                                                                                     
       86                                                                                     
       87                                                                                     
       88                                                                                     
       89                                                                                     
       90                                                                                     
       91                                                                                     
       92                                                                                     
       93                                                                                     
       94                                                                                     
       95                                                                                     
       96                                                                                     
       97                                                                                     
       98                                                                                     
       99                                                                                     
      100                                                                                     
      101                                                                                     
      102                                                                                     
      103                                                                                     
      104                                                                                     
      105                                                                                     
      106                                                                                     
      107                                                                                     
      108                                                                                     
      109                                                                                     
      110                                                                                     
      111                                                                                     
      112                                                                                     
      113                                                                                     
      114                                                                                     
      167                                                                                     
      168                                                                                     
      169                                                                                     
      170                                                                                     
      197                                                                                     
      198                                                                                     
      199                                                                                     
      200                                                                                     
      201                                                                                     
      202                                                                                     
      203                                                                                     
      204                                                                                     
      205                                                                                     
      206                                                                                     
      207                                                                                     
      208                                                                                     
      209                                                                                     
      210                                                                                     
      211                                                                                     
      212                                                                                     
      213                                                                                     
      214                                                                                     
      215                                                                                     
      216                                                                                     
      217                                                                                     
      218                                                                                     
      219                                                                                     
      220                                                                                     
      221                                                                                     
      222                                                                                     
      223                                                                                     
      224                                                                                     
      225                                                                                     
      226                                                                                     
      227                                                                                     
      229                                                                                     
      230                                                                                     
      231                                                                                     
      233                                                                                     
      234                                                                                     
      235                                                                                     
      237                                                                                     
      238                                                                                     
      239                                                                                     
      241                                                                                     
      242                                                                                     
      243                                                                                     
      245                                                                                     
      246                                                                                     
      247                                                                                     
      249                                                                                     
      250                                                                                     
      251                                                                                     
      253                                                                                     
      254                                                                                     
      255                                                                                     
      257                                                                                     
      258                                                                                     
      259                                                                                     
      261                                                                                     
      262                                                                                     
      263                                                                                     
      265                                                                                     
      266                                                                                     
      267                                                                                     
      269                                                                                     
      270                                                                                     
      271                                                                                     
      273                                                                                     
      274                                                                                     
      275                                                                                     
      277                                                                                     
      278                                                                                     
      279                                                                                     
      280                                                                                     
      281                                                                                     
      282                                                                                     
      283                                                                                     
      284                                                                                     
      285                                                                                     
      286                                                                                     
      287                                                                                     
      288                                                                                     
      289                                                                                     
      290                                                                                     
      291                                                                                     
      292                                                                                     
      293                                                                                     
      294                                                                                     
      295                                                                                     
      296                                                                                     
      323                                                                                     
      324                                                                                     
      338                                                                                     
      339                                                                                     
      340                                                                                     
      341                                                                                     
      342                                                                                     
      343                                                                                     
      344                                                                                     
      345                                                                                     
      346                                                                                     
      347                                                                                     
      348                                                                                     
      349                                                                                     
      350                                                                                     
      351                                                                                     
      352                                                                                     
      353                                                                                     
      354                                                                                     
      355                                                                                     
      356                                                                                     
      357                                                                                     
      358                                                                                     
      359                                                                                     
      360                                                                                     
      361                                                                                     
      362                                                                                     
      363                                                                                     
      364                                                                                     
      365                                                                                     
      366                                                                                     
      367                                                                                     
      368                                                                                     
      369                                                                                     
      370                                                                                     
      371                                                                                     
      372                                                                                     
      373                                                                                     
      374                                                                                     
      375                                                                                     
      376                                                                                     
      377                                                                                     
      378                                                                                     
      379                                                                                     
      380                                                                                     
      591                                                                                     
      592                                                                                     
      593                                                                                     
      594                                                                                     
      595                                                                                     
      596                                                                                     
      597                                                                                     
      598                                                                                     
      599                                                                                     
      600                                                                                     
      601                                                                                     
      602                                                                                     
      603                                                                                     
      604                                                                                     
      605                                                                                     
      606                                                                                     
      607                                                                                     
      608                                                                                     
      609                                                                                     
      610                                                                                     
      611                                                                                     
      612                                                                                     
      613                                                                                     
      614                                                                                     
      615                                                                                     
      616                                                                                     
      617                                                                                     
      618                                                                                     
      619                                                                                     
      620                                                                                     
      621                                                                                     
      622                                                                                     
      623                                                                                     
      624                                                                                     
      625                                                                                     
      626                                                                                     
      627                                                                                     
      628                                                                                     
      629                                                                                     
      630                                                                                     
      631                                                                                     
      632                                                                                     
      633                                                                                     
      634                                                                                     
      635                                                                                     
      636                                                                                     
      637                                                                                     
      638                                                                                     
      639                                                                                     
      640                                                                                     
      641                                                                                     
      642                                                                                     
      643                                                                                     
      644                                                                                     
      645                                                                                     
      646                                                                                     
      647                                                                                     
      648                                                                                     
      649                                                                                     
      650                                                                                     
      657                                                                                     
      658                                                                                     
      671                                                                                     
      672                                                                                     
      673                                                                                     
      674                                                                                     
      681                                                                                     
      682                                                                                     
      695                                                                                     
      696                                                                                     
      697                                                                                     
      698                                                                                     
      711                                                                                     
      712                                                                                     
      713                                                                                     
      714                                                                                     
      721                                                                                     
      722                                                                                     
      735                                                                                     
      736                                                                                     
      737                                                                                     
      738                                                                                     
      745                                                                                     
      746                                                                                     
      753                                                                                     
      754                                                                                     
      761                                                                                     
      762                                                                                     
      769                                                                                     
      770                                                                                     
      780                                                                                     
      781                                                                                     
      782                                                                                     
      795                                                                                     
      796                                                                                     
      797                                                                                     
      798                                                                                     
      802                                                                                     
      804                                                                                     
      806                                                                                     
      808                                                                                     
      809                                                                                     
      810                                                                                     
      814                                                                                     
      824                                                                                     
      825                                                                                     
      826                                                                                     
      833                                                                                     
      834                                                                                     
      838                                                                                     
      842                                                                                     
      849                                                                                     
      850                                                                                     
      852                                                                                     
      854                                                                                     
      856                                                                                     
      857                                                                                     
      858                                                                                     
      862                                                                                     
      864                                                                                     
      866                                                                                     
      868                                                                                     
      869                                                                                     
      870                                                                                     
      874                                                                                     
      878                                                                                     
      880                                                                                     
      882                                                                                     
      884                                                                                     
      885                                                                                     
      886                                                                                     
      890                                                                                     
{END LEGEND}




 n o d a l   p r i n t   o u t   f o r   t i m e  s t e p       1                              ( at time 0.0000000E+00 )

 nodal point  x-disp     y-disp      z-disp      x-vel       y-vel       z-vel      x-accl      y-accl      z-accl      x-coor      y-coor      z-coor
        1  0.00000E+00 0.00000E+00 0.00000E+00 0.00000E+00 0.00000E+00 0.00000E+00 0.00000E+00 0.00000E+00 0.00000E+00 3.17500E-03 0.00000E+00-1.78000E-18
        2  0.00000E+00 0.00000E+00 0.00000E+00 0.00000E+00 0.00000E+00 0.00000E+00 0.00000E+00 0.00000E+00 0.00000E+00 2.38130E-03 0.00000E+00 0.00000E+00
        3  0.00000E+00 0.00000E+00 0.00000E+00 0.00000E+00 0.00000E+00 0.00000E+00 0.00000E+00 0.00000E+00 0.00000E+00 1.58750E-03 0.00000E+00 0.00000E+00
        4  0.00000E+00 0.00000E+00 0.00000E+00 0.00000E+00 0.00000E+00 0.00000E+00 0.00000E+00 0.00000E+00 0.00000E+00 7.93750E-04 0.00000E+00 0.00000E+00
        5  0.00000E+00 0.00000E+00 0.00000E+00 0.00000E+00 0.00000E+00 0.00000E+00 0.00000E+00 0.00000E+00 0.00000E+00 0.00000E+00 0.00000E+00 0.00000E+00
        6  0.00000E+00 0.00000E+00 0.00000E+00 0.00000E+00 0.00000E+00 0.00000E+00 0.00000E+00 0.00000E+00 0.00000E+00 4.86000E-20 7.93750E-04 0.00000E+00
        7  0.00000E+00 0.00000E+00 0.00000E+00 0.00000E+00 0.00000E+00 0.00000E+00 0.00000E+00 0.00000E+00 0.00000E+00 9.72100E-20 1.58750E-03 0.00000E+00
        8  0.00000E+00 0.00000E+00 0.00000E+00 0.00000E+00 0.00000E+00 0.00000E+00 0.00000E+00 0.00000E+00 0.00000E+00 1.45800E-19 2.38130E-03 0.00000E+00
        9  0.00000E+00 0.00000E+00 0.00000E+00 0.00000E+00 0.00000E+00 0.00000E+00 0.00000E+00 0.00000E+00 0.00000E+00 1.94400E-19 3.17500E-03 0.00000E+00
       10  0.00000E+00 0.00000E+00 0.00000E+00 0.00000E+00 0.00000E+00 0.00000E+00 0.00000E+00 0.00000E+00 0.00000E+00 1.21500E-03 2.93330E-03 0.00000E+00
       11  0.00000E+00 0.00000E+00 0.00000E+00 0.00000E+00 0.00000E+00 0.00000E+00 0.00000E+00 0.00000E+00 0.00000E+00 2.24510E-03 2.24510E-03 0.00000E+00
       12  0.00000E+00 0.00000E+00 0.00000E+00 0.00000E+00 0.00000E+00 0.00000E+00 0.00000E+00 0.00000E+00 0.00000E+00 2.93330E-03 1.21500E-03 0.00000E+00
       13  0.00000E+00 0.00000E+00 0.00000E+00 0.00000E+00 0.00000E+00 0.00000E+00 0.00000E+00 0.00000E+00 0.00000E+00 1.30830E-03 1.35190E-03 0.00000E+00
       14  0.00000E+00 0.00000E+00 0.00000E+00 0.00000E+00 0.00000E+00 0.00000E+00 0.00000E+00 0.00000E+00 0.00000E+00 1.48830E-03 7.06977E-04 0.00000E+00
       15  0.00000E+00 0.00000E+00 0.00000E+00 0.00000E+00 0.00000E+00 0.00000E+00 0.00000E+00 0.00000E+00 0.00000E+00 6.69510E-04 1.50700E-03 0.00000E+00
       16  0.00000E+00 0.00000E+00 0.00000E+00 0.00000E+00 0.00000E+00 0.00000E+00 0.00000E+00 0.00000E+00 0.00000E+00 7.53638E-04 7.82337E-04 0.00000E+00
       17  0.00000E+00 0.00000E+00 0.00000E+00 0.00000E+00 0.00000E+00 0.00000E+00 0.00000E+00 0.00000E+00 0.00000E+00 1.73630E-03 1.76750E-03 0.00000E+00
       18  0.00000E+00 0.00000E+00 0.00000E+00 0.00000E+00 0.00000E+00 0.00000E+00 0.00000E+00 0.00000E+00 0.00000E+00 9.20131E-04 2.19110E-03 0.00000E+00
       19  0.00000E+00 0.00000E+00 0.00000E+00 0.00000E+00 0.00000E+00 0.00000E+00 0.00000E+00 0.00000E+00 0.00000E+00 2.16330E-03 9.50859E-04 0.00000E+00
       51  0.00000E+00 0.00000E+00 0.00000E+00 0.00000E+00 0.00000E+00 0.00000E+00 0.00000E+00 0.00000E+00 0.00000E+00 4.99800E-20 8.16092E-04 1.03060E-03
       52  0.00000E+00 0.00000E+00 0.00000E+00 0.00000E+00 0.00000E+00 0.00000E+00 0.00000E+00 0.00000E+00 0.00000E+00 0.00000E+00-8.88000E-19 1.05780E-03
       53  0.00000E+00 0.00000E+00 0.00000E+00 0.00000E+00 0.00000E+00 0.00000E+00 0.00000E+00 0.00000E+00 0.00000E+00 8.17986E-04 2.16800E-22 1.04040E-03
       55  0.00000E+00 0.00000E+00 0.00000E+00 0.00000E+00 0.00000E+00 0.00000E+00 0.00000E+00 0.00000E+00 0.00000E+00 5.40500E-20 8.82457E-04 2.05310E-03
       56  0.00000E+00 0.00000E+00 0.00000E+00 0.00000E+00 0.00000E+00 0.00000E+00 0.00000E+00 0.00000E+00 0.00000E+00 0.00000E+00 0.00000E+00 2.11550E-03
       57  0.00000E+00 0.00000E+00 0.00000E+00 0.00000E+00 0.00000E+00 0.00000E+00 0.00000E+00 0.00000E+00 0.00000E+00 8.89889E-04 4.33700E-22 2.07150E-03
       59  0.00000E+00 0.00000E+00 0.00000E+00 0.00000E+00 0.00000E+00 0.00000E+00 0.00000E+00 0.00000E+00 0.00000E+00 5.98500E-20 9.77416E-04 3.00160E-03
       60  0.00000E+00 0.00000E+00 0.00000E+00 0.00000E+00 0.00000E+00 0.00000E+00 0.00000E+00 0.00000E+00 0.00000E+00 0.00000E+00 0.00000E+00 3.12500E-03
       61  0.00000E+00 0.00000E+00 0.00000E+00 0.00000E+00 0.00000E+00 0.00000E+00 0.00000E+00 0.00000E+00 0.00000E+00 1.01200E-03 1.73500E-21 3.05570E-03
       63  0.00000E+00 0.00000E+00 0.00000E+00 0.00000E+00 0.00000E+00 0.00000E+00 0.00000E+00 0.00000E+00 0.00000E+00 7.17700E-20 1.17240E-03 3.73560E-03
       64  0.00000E+00 0.00000E+00 0.00000E+00 0.00000E+00 0.00000E+00 0.00000E+00 0.00000E+00 0.00000E+00 0.00000E+00 0.00000E+00 0.00000E+00 3.77470E-03
       65  0.00000E+00 0.00000E+00 0.00000E+00 0.00000E+00 0.00000E+00 0.00000E+00 0.00000E+00 0.00000E+00 0.00000E+00 1.19750E-03 8.67400E-22 3.75980E-03
       67  0.00000E+00 0.00000E+00 0.00000E+00 0.00000E+00 0.00000E+00 0.00000E+00 0.00000E+00 0.00000E+00 0.00000E+00 8.74900E-20 1.42880E-03 4.39940E-03
       68  0.00000E+00 0.00000E+00 0.00000E+00 0.00000E+00 0.00000E+00 0.00000E+00 0.00000E+00 0.00000E+00 0.00000E+00 0.00000E+00 0.00000E+00 4.39940E-03
       69  0.00000E+00 0.00000E+00 0.00000E+00 0.00000E+00 0.00000E+00 0.00000E+00 0.00000E+00 0.00000E+00 0.00000E+00 1.42880E-03 0.00000E+00 4.39940E-03
       85  0.00000E+00 0.00000E+00 0.00000E+00 0.00000E+00 0.00000E+00 0.00000E+00 0.00000E+00 0.00000E+00 0.00000E+00 2.45400E-03 0.00000E+00 1.00550E-03
       86  0.00000E+00 0.00000E+00 0.00000E+00 0.00000E+00 0.00000E+00 0.00000E+00 0.00000E+00 0.00000E+00 0.00000E+00 3.27190E-03 0.00000E+00 9.88140E-04
       87  0.00000E+00 0.00000E+00 0.00000E+00 0.00000E+00 0.00000E+00 0.00000E+00 0.00000E+00 0.00000E+00 0.00000E+00 2.66970E-03 0.00000E+00 1.98340E-03
       88  0.00000E+00 0.00000E+00 0.00000E+00 0.00000E+00 0.00000E+00 0.00000E+00 0.00000E+00 0.00000E+00 0.00000E+00 3.55960E-03 0.00000E+00 1.93940E-03
       89  0.00000E+00 0.00000E+00 0.00000E+00 0.00000E+00 0.00000E+00 0.00000E+00 0.00000E+00 0.00000E+00 0.00000E+00 3.03610E-03 0.00000E+00 2.91710E-03
       90  0.00000E+00 0.00000E+00 0.00000E+00 0.00000E+00 0.00000E+00 0.00000E+00 0.00000E+00 0.00000E+00 0.00000E+00 4.04810E-03 0.00000E+00 2.84780E-03
       91  0.00000E+00 0.00000E+00 0.00000E+00 0.00000E+00 0.00000E+00 0.00000E+00 0.00000E+00 0.00000E+00 0.00000E+00 3.59250E-03 0.00000E+00 3.72990E-03
       92  0.00000E+00 0.00000E+00 0.00000E+00 0.00000E+00 0.00000E+00 0.00000E+00 0.00000E+00 0.00000E+00 0.00000E+00 4.79010E-03 0.00000E+00 3.71500E-03
       93  0.00000E+00 0.00000E+00 0.00000E+00 0.00000E+00 0.00000E+00 0.00000E+00 0.00000E+00 0.00000E+00 0.00000E+00 4.28630E-03 0.00000E+00 4.39940E-03
       94  0.00000E+00 0.00000E+00 0.00000E+00 0.00000E+00 0.00000E+00 0.00000E+00 0.00000E+00 0.00000E+00 0.00000E+00 5.71500E-03 0.00000E+00 4.39940E-03
       95  0.00000E+00 0.00000E+00 0.00000E+00 0.00000E+00 0.00000E+00 0.00000E+00 0.00000E+00 0.00000E+00 0.00000E+00 1.09000E-19 1.63220E-03 1.00350E-03
       96  0.00000E+00 0.00000E+00 0.00000E+00 0.00000E+00 0.00000E+00 0.00000E+00 0.00000E+00 0.00000E+00 0.00000E+00 1.32900E-19 1.76490E-03 1.99060E-03
       97  0.00000E+00 0.00000E+00 0.00000E+00 0.00000E+00 0.00000E+00 0.00000E+00 0.00000E+00 0.00000E+00 0.00000E+00 1.32100E-19 1.95480E-03 2.87830E-03
       98  0.00000E+00 0.00000E+00 0.00000E+00 0.00000E+00 0.00000E+00 0.00000E+00 0.00000E+00 0.00000E+00 0.00000E+00 1.41500E-19 2.34470E-03 3.69660E-03
       99  0.00000E+00 0.00000E+00 0.00000E+00 0.00000E+00 0.00000E+00 0.00000E+00 0.00000E+00 0.00000E+00 0.00000E+00 1.75000E-19 2.85750E-03 4.39940E-03
      100  0.00000E+00 0.00000E+00 0.00000E+00 0.00000E+00 0.00000E+00 0.00000E+00 0.00000E+00 0.00000E+00 0.00000E+00 1.58900E-19 2.44830E-03 9.76362E-04
      101  0.00000E+00 0.00000E+00 0.00000E+00 0.00000E+00 0.00000E+00 0.00000E+00 0.00000E+00 0.00000E+00 0.00000E+00 1.86900E-19 2.64740E-03 1.92820E-03
      102  0.00000E+00 0.00000E+00 0.00000E+00 0.00000E+00 0.00000E+00 0.00000E+00 0.00000E+00 0.00000E+00 0.00000E+00 1.91700E-19 2.93220E-03 2.75490E-03
      103  0.00000E+00 0.00000E+00 0.00000E+00 0.00000E+00 0.00000E+00 0.00000E+00 0.00000E+00 0.00000E+00 0.00000E+00 2.13400E-19 3.51710E-03 3.65750E-03
      104  0.00000E+00 0.00000E+00 0.00000E+00 0.00000E+00 0.00000E+00 0.00000E+00 0.00000E+00 0.00000E+00 0.00000E+00 2.62500E-19 4.28630E-03 4.39940E-03
      105  0.00000E+00 0.00000E+00 0.00000E+00 0.00000E+00 0.00000E+00 0.00000E+00 0.00000E+00 0.00000E+00 0.00000E+00 1.63600E-03-6.64000E-22 1.02300E-03
      106  0.00000E+00 0.00000E+00 0.00000E+00 0.00000E+00 0.00000E+00 0.00000E+00 0.00000E+00 0.00000E+00 0.00000E+00 1.77980E-03-1.87000E-21 2.02740E-03
      107  0.00000E+00 0.00000E+00 0.00000E+00 0.00000E+00 0.00000E+00 0.00000E+00 0.00000E+00 0.00000E+00 0.00000E+00 2.02410E-03-4.99000E-21 2.98640E-03
      108  0.00000E+00 0.00000E+00 0.00000E+00 0.00000E+00 0.00000E+00 0.00000E+00 0.00000E+00 0.00000E+00 0.00000E+00 2.39500E-03-1.79000E-21 3.74490E-03
      109  0.00000E+00 0.00000E+00 0.00000E+00 0.00000E+00 0.00000E+00 0.00000E+00 0.00000E+00 0.00000E+00 0.00000E+00 2.85750E-03 0.00000E+00 4.39940E-03
      110  0.00000E+00 0.00000E+00 0.00000E+00 0.00000E+00 0.00000E+00 0.00000E+00 0.00000E+00 0.00000E+00 0.00000E+00 2.09000E-19 3.26440E-03 9.49228E-04
      111  0.00000E+00 0.00000E+00 0.00000E+00 0.00000E+00 0.00000E+00 0.00000E+00 0.00000E+00 0.00000E+00 0.00000E+00 2.41100E-19 3.52980E-03 1.86580E-03
      112  0.00000E+00 0.00000E+00 0.00000E+00 0.00000E+00 0.00000E+00 0.00000E+00 0.00000E+00 0.00000E+00 0.00000E+00 2.51500E-19 3.90970E-03 2.63150E-03
      113  0.00000E+00 0.00000E+00 0.00000E+00 0.00000E+00 0.00000E+00 0.00000E+00 0.00000E+00 0.00000E+00 0.00000E+00 2.85400E-19 4.68940E-03 3.61840E-03
      114  0.00000E+00 0.00000E+00 0.00000E+00 0.00000E+00 0.00000E+00 0.00000E+00 0.00000E+00 0.00000E+00 0.00000E+00 3.49900E-19 5.71500E-03 4.39940E-03
      167  0.00000E+00 0.00000E+00 0.00000E+00 0.00000E+00 0.00000E+00 0.00000E+00 0.00000E+00 0.00000E+00 0.00000E+00 3.12470E-03 3.18070E-03 2.54000E-02
      168  0.00000E+00 0.00000E+00 0.00000E+00 0.00000E+00 0.00000E+00 0.00000E+00 0.00000E+00 0.00000E+00 0.00000E+00 2.35430E-03 2.43270E-03 2.54000E-02
      169  0.00000E+00 0.00000E+00 0.00000E+00 0.00000E+00 0.00000E+00 0.00000E+00 0.00000E+00 0.00000E+00 0.00000E+00 2.67800E-03 1.27200E-03 2.54000E-02
      170  0.00000E+00 0.00000E+00 0.00000E+00 0.00000E+00 0.00000E+00 0.00000E+00 0.00000E+00 0.00000E+00 0.00000E+00 3.89280E-03 1.71090E-03 2.54000E-02
      197  0.00000E+00 0.00000E+00 0.00000E+00 0.00000E+00 0.00000E+00 0.00000E+00 0.00000E+00 0.00000E+00 0.00000E+00 1.20460E-03 2.71160E-03 2.54000E-02
      198  0.00000E+00 0.00000E+00 0.00000E+00 0.00000E+00 0.00000E+00 0.00000E+00 0.00000E+00 0.00000E+00 0.00000E+00 1.65560E-03 3.94280E-03 2.54000E-02
      199  0.00000E+00 0.00000E+00 0.00000E+00 0.00000E+00 0.00000E+00 0.00000E+00 0.00000E+00 0.00000E+00 0.00000E+00 2.85750E-03-2.07000E-27 5.89950E-03
      200  0.00000E+00 0.00000E+00 0.00000E+00 0.00000E+00 0.00000E+00 0.00000E+00 0.00000E+00 0.00000E+00 0.00000E+00 4.28630E-03-1.65000E-27 5.89950E-03
      201  0.00000E+00 0.00000E+00 0.00000E+00 0.00000E+00 0.00000E+00 0.00000E+00 0.00000E+00 0.00000E+00 0.00000E+00 2.85750E-03-1.34000E-27 7.39950E-03
      202  0.00000E+00 0.00000E+00 0.00000E+00 0.00000E+00 0.00000E+00 0.00000E+00 0.00000E+00 0.00000E+00 0.00000E+00 4.28630E-03-1.24000E-27 7.39950E-03
      203  0.00000E+00 0.00000E+00 0.00000E+00 0.00000E+00 0.00000E+00 0.00000E+00 0.00000E+00 0.00000E+00 0.00000E+00 2.85750E-03 4.44100E-19 8.89950E-03
      204  0.00000E+00 0.00000E+00 0.00000E+00 0.00000E+00 0.00000E+00 0.00000E+00 0.00000E+00 0.00000E+00 0.00000E+00 4.28630E-03 2.22000E-19 8.89950E-03
      205  0.00000E+00 0.00000E+00 0.00000E+00 0.00000E+00 0.00000E+00 0.00000E+00 0.00000E+00 0.00000E+00 0.00000E+00 2.85750E-03-2.07000E-28 1.03996E-02
      206  0.00000E+00 0.00000E+00 0.00000E+00 0.00000E+00 0.00000E+00 0.00000E+00 0.00000E+00 0.00000E+00 0.00000E+00 4.28630E-03-2.07000E-28 1.03996E-02
      207  0.00000E+00 0.00000E+00 0.00000E+00 0.00000E+00 0.00000E+00 0.00000E+00 0.00000E+00 0.00000E+00 0.00000E+00 2.85750E-03 1.03400E-28 1.18996E-02
      208  0.00000E+00 0.00000E+00 0.00000E+00 0.00000E+00 0.00000E+00 0.00000E+00 0.00000E+00 0.00000E+00 0.00000E+00 4.28630E-03 2.06800E-28 1.18996E-02
      209  0.00000E+00 0.00000E+00 0.00000E+00 0.00000E+00 0.00000E+00 0.00000E+00 0.00000E+00 0.00000E+00 0.00000E+00 2.85750E-03 5.17000E-28 1.33997E-02
      210  0.00000E+00 0.00000E+00 0.00000E+00 0.00000E+00 0.00000E+00 0.00000E+00 0.00000E+00 0.00000E+00 0.00000E+00 4.28630E-03 4.13600E-28 1.33997E-02
      211  0.00000E+00 0.00000E+00 0.00000E+00 0.00000E+00 0.00000E+00 0.00000E+00 0.00000E+00 0.00000E+00 0.00000E+00 2.85750E-03 7.23800E-28 1.48997E-02
      212  0.00000E+00 0.00000E+00 0.00000E+00 0.00000E+00 0.00000E+00 0.00000E+00 0.00000E+00 0.00000E+00 0.00000E+00 4.28630E-03 6.20400E-28 1.48997E-02
      213  0.00000E+00 0.00000E+00 0.00000E+00 0.00000E+00 0.00000E+00 0.00000E+00 0.00000E+00 0.00000E+00 0.00000E+00 2.85750E-03 8.27200E-28 1.63998E-02
      214  0.00000E+00 0.00000E+00 0.00000E+00 0.00000E+00 0.00000E+00 0.00000E+00 0.00000E+00 0.00000E+00 0.00000E+00 4.28630E-03 8.27200E-28 1.63998E-02
      215  0.00000E+00 0.00000E+00 0.00000E+00 0.00000E+00 0.00000E+00 0.00000E+00 0.00000E+00 0.00000E+00 0.00000E+00 2.85750E-03 9.30600E-28 1.78998E-02
      216  0.00000E+00 0.00000E+00 0.00000E+00 0.00000E+00 0.00000E+00 0.00000E+00 0.00000E+00 0.00000E+00 0.00000E+00 4.28630E-03 1.03400E-27 1.78998E-02
      217  0.00000E+00 0.00000E+00 0.00000E+00 0.00000E+00 0.00000E+00 0.00000E+00 0.00000E+00 0.00000E+00 0.00000E+00 2.85750E-03 9.30600E-28 1.93998E-02
      218  0.00000E+00 0.00000E+00 0.00000E+00 0.00000E+00 0.00000E+00 0.00000E+00 0.00000E+00 0.00000E+00 0.00000E+00 4.28630E-03 8.27200E-28 1.93998E-02
      219  0.00000E+00 0.00000E+00 0.00000E+00 0.00000E+00 0.00000E+00 0.00000E+00 0.00000E+00 0.00000E+00 0.00000E+00 2.85750E-03 8.27200E-28 2.08999E-02
      220  0.00000E+00 0.00000E+00 0.00000E+00 0.00000E+00 0.00000E+00 0.00000E+00 0.00000E+00 0.00000E+00 0.00000E+00 4.28630E-03 8.27200E-28 2.08999E-02
      221  0.00000E+00 0.00000E+00 0.00000E+00 0.00000E+00 0.00000E+00 0.00000E+00 0.00000E+00 0.00000E+00 0.00000E+00 2.85750E-03 6.20400E-28 2.23999E-02
      222  0.00000E+00 0.00000E+00 0.00000E+00 0.00000E+00 0.00000E+00 0.00000E+00 0.00000E+00 0.00000E+00 0.00000E+00 4.28630E-03 6.20400E-28 2.23999E-02
      223  0.00000E+00 0.00000E+00 0.00000E+00 0.00000E+00 0.00000E+00 0.00000E+00 0.00000E+00 0.00000E+00 0.00000E+00 2.85750E-03 3.10200E-28 2.39000E-02
      224  0.00000E+00 0.00000E+00 0.00000E+00 0.00000E+00 0.00000E+00 0.00000E+00 0.00000E+00 0.00000E+00 0.00000E+00 4.28630E-03 4.13600E-28 2.39000E-02
      225  0.00000E+00 0.00000E+00 0.00000E+00 0.00000E+00 0.00000E+00 0.00000E+00 0.00000E+00 0.00000E+00 0.00000E+00 2.85750E-03 0.00000E+00 2.54000E-02
      226  0.00000E+00 0.00000E+00 0.00000E+00 0.00000E+00 0.00000E+00 0.00000E+00 0.00000E+00 0.00000E+00 0.00000E+00 4.28630E-03 0.00000E+00 2.54000E-02
      227  0.00000E+00 0.00000E+00 0.00000E+00 0.00000E+00 0.00000E+00 0.00000E+00 0.00000E+00 0.00000E+00 0.00000E+00 1.42880E-03-3.00000E-27 5.89950E-03
      229  0.00000E+00 0.00000E+00 0.00000E+00 0.00000E+00 0.00000E+00 0.00000E+00 0.00000E+00 0.00000E+00 0.00000E+00 8.74900E-20 1.42880E-03 5.89950E-03
      230  0.00000E+00 0.00000E+00 0.00000E+00 0.00000E+00 0.00000E+00 0.00000E+00 0.00000E+00 0.00000E+00 0.00000E+00 0.00000E+00 0.00000E+00 5.89950E-03
      231  0.00000E+00 0.00000E+00 0.00000E+00 0.00000E+00 0.00000E+00 0.00000E+00 0.00000E+00 0.00000E+00 0.00000E+00 1.42880E-03-2.02000E-27 7.39950E-03
      233  0.00000E+00 0.00000E+00 0.00000E+00 0.00000E+00 0.00000E+00 0.00000E+00 0.00000E+00 0.00000E+00 0.00000E+00 8.74900E-20 1.42880E-03 7.39950E-03
      234  0.00000E+00 0.00000E+00 0.00000E+00 0.00000E+00 0.00000E+00 0.00000E+00 0.00000E+00 0.00000E+00 0.00000E+00 0.00000E+00 0.00000E+00 7.39950E-03
      235  0.00000E+00 0.00000E+00 0.00000E+00 0.00000E+00 0.00000E+00 0.00000E+00 0.00000E+00 0.00000E+00 0.00000E+00 1.42880E-03 6.66100E-19 8.89950E-03
      237  0.00000E+00 0.00000E+00 0.00000E+00 0.00000E+00 0.00000E+00 0.00000E+00 0.00000E+00 0.00000E+00 0.00000E+00 8.74900E-20 1.42880E-03 8.89950E-03
      238  0.00000E+00 0.00000E+00 0.00000E+00 0.00000E+00 0.00000E+00 0.00000E+00 0.00000E+00 0.00000E+00 0.00000E+00 0.00000E+00 8.88200E-19 8.89950E-03
      239  0.00000E+00 0.00000E+00 0.00000E+00 0.00000E+00 0.00000E+00 0.00000E+00 0.00000E+00 0.00000E+00 0.00000E+00 1.42880E-03-3.88000E-28 1.03996E-02
      241  0.00000E+00 0.00000E+00 0.00000E+00 0.00000E+00 0.00000E+00 0.00000E+00 0.00000E+00 0.00000E+00 0.00000E+00 8.74900E-20 1.42880E-03 1.03996E-02
      242  0.00000E+00 0.00000E+00 0.00000E+00 0.00000E+00 0.00000E+00 0.00000E+00 0.00000E+00 0.00000E+00 0.00000E+00 0.00000E+00 0.00000E+00 1.03996E-02
      243  0.00000E+00 0.00000E+00 0.00000E+00 0.00000E+00 0.00000E+00 0.00000E+00 0.00000E+00 0.00000E+00 0.00000E+00 1.42880E-03 2.32600E-28 1.18996E-02
      245  0.00000E+00 0.00000E+00 0.00000E+00 0.00000E+00 0.00000E+00 0.00000E+00 0.00000E+00 0.00000E+00 0.00000E+00 8.74900E-20 1.42880E-03 1.18996E-02
      246  0.00000E+00 0.00000E+00 0.00000E+00 0.00000E+00 0.00000E+00 0.00000E+00 0.00000E+00 0.00000E+00 0.00000E+00 0.00000E+00 0.00000E+00 1.18996E-02
      247  0.00000E+00 0.00000E+00 0.00000E+00 0.00000E+00 0.00000E+00 0.00000E+00 0.00000E+00 0.00000E+00 0.00000E+00 1.42880E-03 7.23800E-28 1.33997E-02
      249  0.00000E+00 0.00000E+00 0.00000E+00 0.00000E+00 0.00000E+00 0.00000E+00 0.00000E+00 0.00000E+00 0.00000E+00 8.74900E-20 1.42880E-03 1.33997E-02
      250  0.00000E+00 0.00000E+00 0.00000E+00 0.00000E+00 0.00000E+00 0.00000E+00 0.00000E+00 0.00000E+00 0.00000E+00 0.00000E+00 0.00000E+00 1.33997E-02
      251  0.00000E+00 0.00000E+00 0.00000E+00 0.00000E+00 0.00000E+00 0.00000E+00 0.00000E+00 0.00000E+00 0.00000E+00 1.42880E-03 1.08600E-27 1.48997E-02
      253  0.00000E+00 0.00000E+00 0.00000E+00 0.00000E+00 0.00000E+00 0.00000E+00 0.00000E+00 0.00000E+00 0.00000E+00 8.74900E-20 1.42880E-03 1.48997E-02
      254  0.00000E+00 0.00000E+00 0.00000E+00 0.00000E+00 0.00000E+00 0.00000E+00 0.00000E+00 0.00000E+00 0.00000E+00 0.00000E+00 0.00000E+00 1.48997E-02
      255  0.00000E+00 0.00000E+00 0.00000E+00 0.00000E+00 0.00000E+00 0.00000E+00 0.00000E+00 0.00000E+00 0.00000E+00 1.42880E-03 1.31800E-27 1.63998E-02
      257  0.00000E+00 0.00000E+00 0.00000E+00 0.00000E+00 0.00000E+00 0.00000E+00 0.00000E+00 0.00000E+00 0.00000E+00 8.74900E-20 1.42880E-03 1.63998E-02
      258  0.00000E+00 0.00000E+00 0.00000E+00 0.00000E+00 0.00000E+00 0.00000E+00 0.00000E+00 0.00000E+00 0.00000E+00 0.00000E+00 0.00000E+00 1.63998E-02
      259  0.00000E+00 0.00000E+00 0.00000E+00 0.00000E+00 0.00000E+00 0.00000E+00 0.00000E+00 0.00000E+00 0.00000E+00 1.42880E-03 1.42200E-27 1.78998E-02
      261  0.00000E+00 0.00000E+00 0.00000E+00 0.00000E+00 0.00000E+00 0.00000E+00 0.00000E+00 0.00000E+00 0.00000E+00 8.74900E-20 1.42880E-03 1.78998E-02
      262  0.00000E+00 0.00000E+00 0.00000E+00 0.00000E+00 0.00000E+00 0.00000E+00 0.00000E+00 0.00000E+00 0.00000E+00 0.00000E+00 0.00000E+00 1.78998E-02
      263  0.00000E+00 0.00000E+00 0.00000E+00 0.00000E+00 0.00000E+00 0.00000E+00 0.00000E+00 0.00000E+00 0.00000E+00 1.42880E-03 1.39600E-27 1.93998E-02
      265  0.00000E+00 0.00000E+00 0.00000E+00 0.00000E+00 0.00000E+00 0.00000E+00 0.00000E+00 0.00000E+00 0.00000E+00 8.74900E-20 1.42880E-03 1.93998E-02
      266  0.00000E+00 0.00000E+00 0.00000E+00 0.00000E+00 0.00000E+00 0.00000E+00 0.00000E+00 0.00000E+00 0.00000E+00 0.00000E+00 0.00000E+00 1.93998E-02
      267  0.00000E+00 0.00000E+00 0.00000E+00 0.00000E+00 0.00000E+00 0.00000E+00 0.00000E+00 0.00000E+00 0.00000E+00 1.42880E-03 1.24100E-27 2.08999E-02
      269  0.00000E+00 0.00000E+00 0.00000E+00 0.00000E+00 0.00000E+00 0.00000E+00 0.00000E+00 0.00000E+00 0.00000E+00 8.74900E-20 1.42880E-03 2.08999E-02
      270  0.00000E+00 0.00000E+00 0.00000E+00 0.00000E+00 0.00000E+00 0.00000E+00 0.00000E+00 0.00000E+00 0.00000E+00 0.00000E+00 0.00000E+00 2.08999E-02
      271  0.00000E+00 0.00000E+00 0.00000E+00 0.00000E+00 0.00000E+00 0.00000E+00 0.00000E+00 0.00000E+00 0.00000E+00 1.42880E-03 9.56400E-28 2.23999E-02
      273  0.00000E+00 0.00000E+00 0.00000E+00 0.00000E+00 0.00000E+00 0.00000E+00 0.00000E+00 0.00000E+00 0.00000E+00 8.74900E-20 1.42880E-03 2.23999E-02
      274  0.00000E+00 0.00000E+00 0.00000E+00 0.00000E+00 0.00000E+00 0.00000E+00 0.00000E+00 0.00000E+00 0.00000E+00 0.00000E+00 0.00000E+00 2.23999E-02
      275  0.00000E+00 0.00000E+00 0.00000E+00 0.00000E+00 0.00000E+00 0.00000E+00 0.00000E+00 0.00000E+00 0.00000E+00 1.42880E-03 5.42800E-28 2.39000E-02
      277  0.00000E+00 0.00000E+00 0.00000E+00 0.00000E+00 0.00000E+00 0.00000E+00 0.00000E+00 0.00000E+00 0.00000E+00 8.74900E-20 1.42880E-03 2.39000E-02
      278  0.00000E+00 0.00000E+00 0.00000E+00 0.00000E+00 0.00000E+00 0.00000E+00 0.00000E+00 0.00000E+00 0.00000E+00 0.00000E+00 0.00000E+00 2.39000E-02
      279  0.00000E+00 0.00000E+00 0.00000E+00 0.00000E+00 0.00000E+00 0.00000E+00 0.00000E+00 0.00000E+00 0.00000E+00 1.42880E-03 0.00000E+00 2.54000E-02
      280  0.00000E+00 0.00000E+00 0.00000E+00 0.00000E+00 0.00000E+00 0.00000E+00 0.00000E+00 0.00000E+00 0.00000E+00 1.35620E-03 1.40780E-03 2.54000E-02
      281  0.00000E+00 0.00000E+00 0.00000E+00 0.00000E+00 0.00000E+00 0.00000E+00 0.00000E+00 0.00000E+00 0.00000E+00 8.74900E-20 1.42880E-03 2.54000E-02
      282  0.00000E+00 0.00000E+00 0.00000E+00 0.00000E+00 0.00000E+00 0.00000E+00 0.00000E+00 0.00000E+00 0.00000E+00 0.00000E+00 0.00000E+00 2.54000E-02
      283  0.00000E+00 0.00000E+00 0.00000E+00 0.00000E+00 0.00000E+00 0.00000E+00 0.00000E+00 0.00000E+00 0.00000E+00 1.75000E-19 2.85750E-03 5.89950E-03
      284  0.00000E+00 0.00000E+00 0.00000E+00 0.00000E+00 0.00000E+00 0.00000E+00 0.00000E+00 0.00000E+00 0.00000E+00 1.75000E-19 2.85750E-03 7.39950E-03
      285  0.00000E+00 0.00000E+00 0.00000E+00 0.00000E+00 0.00000E+00 0.00000E+00 0.00000E+00 0.00000E+00 0.00000E+00 1.75000E-19 2.85750E-03 8.89950E-03
      286  0.00000E+00 0.00000E+00 0.00000E+00 0.00000E+00 0.00000E+00 0.00000E+00 0.00000E+00 0.00000E+00 0.00000E+00 1.75000E-19 2.85750E-03 1.03996E-02
      287  0.00000E+00 0.00000E+00 0.00000E+00 0.00000E+00 0.00000E+00 0.00000E+00 0.00000E+00 0.00000E+00 0.00000E+00 1.75000E-19 2.85750E-03 1.18996E-02
      288  0.00000E+00 0.00000E+00 0.00000E+00 0.00000E+00 0.00000E+00 0.00000E+00 0.00000E+00 0.00000E+00 0.00000E+00 1.75000E-19 2.85750E-03 1.33997E-02
      289  0.00000E+00 0.00000E+00 0.00000E+00 0.00000E+00 0.00000E+00 0.00000E+00 0.00000E+00 0.00000E+00 0.00000E+00 1.75000E-19 2.85750E-03 1.48997E-02
      290  0.00000E+00 0.00000E+00 0.00000E+00 0.00000E+00 0.00000E+00 0.00000E+00 0.00000E+00 0.00000E+00 0.00000E+00 1.75000E-19 2.85750E-03 1.63998E-02
      291  0.00000E+00 0.00000E+00 0.00000E+00 0.00000E+00 0.00000E+00 0.00000E+00 0.00000E+00 0.00000E+00 0.00000E+00 1.75000E-19 2.85750E-03 1.78998E-02
      292  0.00000E+00 0.00000E+00 0.00000E+00 0.00000E+00 0.00000E+00 0.00000E+00 0.00000E+00 0.00000E+00 0.00000E+00 1.75000E-19 2.85750E-03 1.93998E-02
      293  0.00000E+00 0.00000E+00 0.00000E+00 0.00000E+00 0.00000E+00 0.00000E+00 0.00000E+00 0.00000E+00 0.00000E+00 1.75000E-19 2.85750E-03 2.08999E-02
      294  0.00000E+00 0.00000E+00 0.00000E+00 0.00000E+00 0.00000E+00 0.00000E+00 0.00000E+00 0.00000E+00 0.00000E+00 1.75000E-19 2.85750E-03 2.23999E-02
      295  0.00000E+00 0.00000E+00 0.00000E+00 0.00000E+00 0.00000E+00 0.00000E+00 0.00000E+00 0.00000E+00 0.00000E+00 1.75000E-19 2.85750E-03 2.39000E-02
      296  0.00000E+00 0.00000E+00 0.00000E+00 0.00000E+00 0.00000E+00 0.00000E+00 0.00000E+00 0.00000E+00 0.00000E+00 1.75000E-19 2.85750E-03 2.54000E-02
      323  0.00000E+00 0.00000E+00 0.00000E+00 0.00000E+00 0.00000E+00 0.00000E+00 0.00000E+00 0.00000E+00 0.00000E+00 4.04110E-03 4.04120E-03 2.54000E-02
      324  0.00000E+00 0.00000E+00 0.00000E+00 0.00000E+00 0.00000E+00 0.00000E+00 0.00000E+00 0.00000E+00 0.00000E+00 2.18670E-03 5.28010E-03 2.54000E-02
      338  0.00000E+00 0.00000E+00 0.00000E+00 0.00000E+00 0.00000E+00 0.00000E+00 0.00000E+00 0.00000E+00 0.00000E+00 5.28000E-03 2.18690E-03 2.54000E-02
      339  0.00000E+00 0.00000E+00 0.00000E+00 0.00000E+00 0.00000E+00 0.00000E+00 0.00000E+00 0.00000E+00 0.00000E+00 2.62500E-19 4.28630E-03 5.89950E-03
      340  0.00000E+00 0.00000E+00 0.00000E+00 0.00000E+00 0.00000E+00 0.00000E+00 0.00000E+00 0.00000E+00 0.00000E+00 2.62500E-19 4.28630E-03 7.39950E-03
      341  0.00000E+00 0.00000E+00 0.00000E+00 0.00000E+00 0.00000E+00 0.00000E+00 0.00000E+00 0.00000E+00 0.00000E+00 2.62500E-19 4.28630E-03 8.89950E-03
      342  0.00000E+00 0.00000E+00 0.00000E+00 0.00000E+00 0.00000E+00 0.00000E+00 0.00000E+00 0.00000E+00 0.00000E+00 2.62500E-19 4.28630E-03 1.03996E-02
      343  0.00000E+00 0.00000E+00 0.00000E+00 0.00000E+00 0.00000E+00 0.00000E+00 0.00000E+00 0.00000E+00 0.00000E+00 2.62500E-19 4.28630E-03 1.18996E-02
      344  0.00000E+00 0.00000E+00 0.00000E+00 0.00000E+00 0.00000E+00 0.00000E+00 0.00000E+00 0.00000E+00 0.00000E+00 2.62500E-19 4.28630E-03 1.33997E-02
      345  0.00000E+00 0.00000E+00 0.00000E+00 0.00000E+00 0.00000E+00 0.00000E+00 0.00000E+00 0.00000E+00 0.00000E+00 2.62500E-19 4.28630E-03 1.48997E-02
      346  0.00000E+00 0.00000E+00 0.00000E+00 0.00000E+00 0.00000E+00 0.00000E+00 0.00000E+00 0.00000E+00 0.00000E+00 2.62500E-19 4.28630E-03 1.63998E-02
      347  0.00000E+00 0.00000E+00 0.00000E+00 0.00000E+00 0.00000E+00 0.00000E+00 0.00000E+00 0.00000E+00 0.00000E+00 2.62500E-19 4.28630E-03 1.78998E-02
      348  0.00000E+00 0.00000E+00 0.00000E+00 0.00000E+00 0.00000E+00 0.00000E+00 0.00000E+00 0.00000E+00 0.00000E+00 2.62500E-19 4.28630E-03 1.93998E-02
      349  0.00000E+00 0.00000E+00 0.00000E+00 0.00000E+00 0.00000E+00 0.00000E+00 0.00000E+00 0.00000E+00 0.00000E+00 2.62500E-19 4.28630E-03 2.08999E-02
      350  0.00000E+00 0.00000E+00 0.00000E+00 0.00000E+00 0.00000E+00 0.00000E+00 0.00000E+00 0.00000E+00 0.00000E+00 2.62500E-19 4.28630E-03 2.23999E-02
      351  0.00000E+00 0.00000E+00 0.00000E+00 0.00000E+00 0.00000E+00 0.00000E+00 0.00000E+00 0.00000E+00 0.00000E+00 2.62500E-19 4.28630E-03 2.39000E-02
      352  0.00000E+00 0.00000E+00 0.00000E+00 0.00000E+00 0.00000E+00 0.00000E+00 0.00000E+00 0.00000E+00 0.00000E+00 2.62500E-19 4.28630E-03 2.54000E-02
      353  0.00000E+00 0.00000E+00 0.00000E+00 0.00000E+00 0.00000E+00 0.00000E+00 0.00000E+00 0.00000E+00 0.00000E+00 5.71500E-03 3.30900E-27 5.89950E-03
      354  0.00000E+00 0.00000E+00 0.00000E+00 0.00000E+00 0.00000E+00 0.00000E+00 0.00000E+00 0.00000E+00 0.00000E+00 5.71500E-03 2.48200E-27 7.39950E-03
      355  0.00000E+00 0.00000E+00 0.00000E+00 0.00000E+00 0.00000E+00 0.00000E+00 0.00000E+00 0.00000E+00 0.00000E+00 5.71500E-03 1.65400E-27 8.89950E-03
      356  0.00000E+00 0.00000E+00 0.00000E+00 0.00000E+00 0.00000E+00 0.00000E+00 0.00000E+00 0.00000E+00 0.00000E+00 5.71500E-03 4.13600E-28 1.03996E-02
      357  0.00000E+00 0.00000E+00 0.00000E+00 0.00000E+00 0.00000E+00 0.00000E+00 0.00000E+00 0.00000E+00 0.00000E+00 5.71500E-03-4.14000E-28 1.18996E-02
      358  0.00000E+00 0.00000E+00 0.00000E+00 0.00000E+00 0.00000E+00 0.00000E+00 0.00000E+00 0.00000E+00 0.00000E+00 5.71500E-03-8.27000E-28 1.33997E-02
      359  0.00000E+00 0.00000E+00 0.00000E+00 0.00000E+00 0.00000E+00 0.00000E+00 0.00000E+00 0.00000E+00 0.00000E+00 5.71500E-03-1.24000E-27 1.48997E-02
      360  0.00000E+00 0.00000E+00 0.00000E+00 0.00000E+00 0.00000E+00 0.00000E+00 0.00000E+00 0.00000E+00 0.00000E+00 5.71500E-03-1.65000E-27 1.63998E-02
      361  0.00000E+00 0.00000E+00 0.00000E+00 0.00000E+00 0.00000E+00 0.00000E+00 0.00000E+00 0.00000E+00 0.00000E+00 5.71500E-03-2.07000E-27 1.78998E-02
      362  0.00000E+00 0.00000E+00 0.00000E+00 0.00000E+00 0.00000E+00 0.00000E+00 0.00000E+00 0.00000E+00 0.00000E+00 5.71500E-03-1.65000E-27 1.93998E-02
      363  0.00000E+00 0.00000E+00 0.00000E+00 0.00000E+00 0.00000E+00 0.00000E+00 0.00000E+00 0.00000E+00 0.00000E+00 5.71500E-03-1.65000E-27 2.08999E-02
      364  0.00000E+00 0.00000E+00 0.00000E+00 0.00000E+00 0.00000E+00 0.00000E+00 0.00000E+00 0.00000E+00 0.00000E+00 5.71500E-03-1.24000E-27 2.23999E-02
      365  0.00000E+00 0.00000E+00 0.00000E+00 0.00000E+00 0.00000E+00 0.00000E+00 0.00000E+00 0.00000E+00 0.00000E+00 5.71500E-03-8.27000E-28 2.39000E-02
      366  0.00000E+00 0.00000E+00 0.00000E+00 0.00000E+00 0.00000E+00 0.00000E+00 0.00000E+00 0.00000E+00 0.00000E+00 5.71500E-03 0.00000E+00 2.54000E-02
      367  0.00000E+00 0.00000E+00 0.00000E+00 0.00000E+00 0.00000E+00 0.00000E+00 0.00000E+00 0.00000E+00 0.00000E+00 3.49900E-19 5.71500E-03 5.89950E-03
      368  0.00000E+00 0.00000E+00 0.00000E+00 0.00000E+00 0.00000E+00 0.00000E+00 0.00000E+00 0.00000E+00 0.00000E+00 3.49900E-19 5.71500E-03 7.39950E-03
      369  0.00000E+00 0.00000E+00 0.00000E+00 0.00000E+00 0.00000E+00 0.00000E+00 0.00000E+00 0.00000E+00 0.00000E+00 3.49900E-19 5.71500E-03 8.89950E-03
      370  0.00000E+00 0.00000E+00 0.00000E+00 0.00000E+00 0.00000E+00 0.00000E+00 0.00000E+00 0.00000E+00 0.00000E+00 3.49900E-19 5.71500E-03 1.03996E-02
      371  0.00000E+00 0.00000E+00 0.00000E+00 0.00000E+00 0.00000E+00 0.00000E+00 0.00000E+00 0.00000E+00 0.00000E+00 3.49900E-19 5.71500E-03 1.18996E-02
      372  0.00000E+00 0.00000E+00 0.00000E+00 0.00000E+00 0.00000E+00 0.00000E+00 0.00000E+00 0.00000E+00 0.00000E+00 3.49900E-19 5.71500E-03 1.33997E-02
      373  0.00000E+00 0.00000E+00 0.00000E+00 0.00000E+00 0.00000E+00 0.00000E+00 0.00000E+00 0.00000E+00 0.00000E+00 3.49900E-19 5.71500E-03 1.48997E-02
      374  0.00000E+00 0.00000E+00 0.00000E+00 0.00000E+00 0.00000E+00 0.00000E+00 0.00000E+00 0.00000E+00 0.00000E+00 3.49900E-19 5.71500E-03 1.63998E-02
      375  0.00000E+00 0.00000E+00 0.00000E+00 0.00000E+00 0.00000E+00 0.00000E+00 0.00000E+00 0.00000E+00 0.00000E+00 3.49900E-19 5.71500E-03 1.78998E-02
      376  0.00000E+00 0.00000E+00 0.00000E+00 0.00000E+00 0.00000E+00 0.00000E+00 0.00000E+00 0.00000E+00 0.00000E+00 3.49900E-19 5.71500E-03 1.93998E-02
      377  0.00000E+00 0.00000E+00 0.00000E+00 0.00000E+00 0.00000E+00 0.00000E+00 0.00000E+00 0.00000E+00 0.00000E+00 3.49900E-19 5.71500E-03 2.08999E-02
      378  0.00000E+00 0.00000E+00 0.00000E+00 0.00000E+00 0.00000E+00 0.00000E+00 0.00000E+00 0.00000E+00 0.00000E+00 3.49900E-19 5.71500E-03 2.23999E-02
      379  0.00000E+00 0.00000E+00 0.00000E+00 0.00000E+00 0.00000E+00 0.00000E+00 0.00000E+00 0.00000E+00 0.00000E+00 3.49900E-19 5.71500E-03 2.39000E-02
      380  0.00000E+00 0.00000E+00 0.00000E+00 0.00000E+00 0.00000E+00 0.00000E+00 0.00000E+00 0.00000E+00 0.00000E+00 3.49900E-19 5.71500E-03 2.54000E-02
      591  0.00000E+00 0.00000E+00 0.00000E+00 0.00000E+00 0.00000E+00 0.00000E+00 0.00000E+00 0.00000E+00 0.00000E+00 7.46130E-03 0.00000E+00 5.40760E-03
      592  0.00000E+00 0.00000E+00 0.00000E+00 0.00000E+00 0.00000E+00 0.00000E+00 0.00000E+00 0.00000E+00 0.00000E+00 9.20750E-03 0.00000E+00 6.41580E-03
      593  0.00000E+00 0.00000E+00 0.00000E+00 0.00000E+00 0.00000E+00 0.00000E+00 0.00000E+00 0.00000E+00 0.00000E+00 1.09538E-02 0.00000E+00 7.42400E-03
      594  0.00000E+00 0.00000E+00 0.00000E+00 0.00000E+00 0.00000E+00 0.00000E+00 0.00000E+00 0.00000E+00 0.00000E+00 1.27000E-02 0.00000E+00 8.43220E-03
      595  0.00000E+00 0.00000E+00 0.00000E+00 0.00000E+00 0.00000E+00 0.00000E+00 0.00000E+00 0.00000E+00 0.00000E+00 1.27000E-02 0.00000E+00 9.64420E-03
      596  0.00000E+00 0.00000E+00 0.00000E+00 0.00000E+00 0.00000E+00 0.00000E+00 0.00000E+00 0.00000E+00 0.00000E+00 1.27000E-02 0.00000E+00 1.08562E-02
      597  0.00000E+00 0.00000E+00 0.00000E+00 0.00000E+00 0.00000E+00 0.00000E+00 0.00000E+00 0.00000E+00 0.00000E+00 1.27000E-02 0.00000E+00 1.20682E-02
      598  0.00000E+00 0.00000E+00 0.00000E+00 0.00000E+00 0.00000E+00 0.00000E+00 0.00000E+00 0.00000E+00 0.00000E+00 1.27000E-02 0.00000E+00 1.32801E-02
      599  0.00000E+00 0.00000E+00 0.00000E+00 0.00000E+00 0.00000E+00 0.00000E+00 0.00000E+00 0.00000E+00 0.00000E+00 1.27000E-02 0.00000E+00 1.44921E-02
      600  0.00000E+00 0.00000E+00 0.00000E+00 0.00000E+00 0.00000E+00 0.00000E+00 0.00000E+00 0.00000E+00 0.00000E+00 1.27000E-02 0.00000E+00 1.57041E-02
      601  0.00000E+00 0.00000E+00 0.00000E+00 0.00000E+00 0.00000E+00 0.00000E+00 0.00000E+00 0.00000E+00 0.00000E+00 1.27000E-02 0.00000E+00 1.69161E-02
      602  0.00000E+00 0.00000E+00 0.00000E+00 0.00000E+00 0.00000E+00 0.00000E+00 0.00000E+00 0.00000E+00 0.00000E+00 1.27000E-02 0.00000E+00 1.81281E-02
      603  0.00000E+00 0.00000E+00 0.00000E+00 0.00000E+00 0.00000E+00 0.00000E+00 0.00000E+00 0.00000E+00 0.00000E+00 1.27000E-02 0.00000E+00 1.93401E-02
      604  0.00000E+00 0.00000E+00 0.00000E+00 0.00000E+00 0.00000E+00 0.00000E+00 0.00000E+00 0.00000E+00 0.00000E+00 1.27000E-02 0.00000E+00 2.05521E-02
      605  0.00000E+00 0.00000E+00 0.00000E+00 0.00000E+00 0.00000E+00 0.00000E+00 0.00000E+00 0.00000E+00 0.00000E+00 1.27000E-02 0.00000E+00 2.17640E-02
      606  0.00000E+00 0.00000E+00 0.00000E+00 0.00000E+00 0.00000E+00 0.00000E+00 0.00000E+00 0.00000E+00 0.00000E+00 1.27000E-02 0.00000E+00 2.29760E-02
      607  0.00000E+00 0.00000E+00 0.00000E+00 0.00000E+00 0.00000E+00 0.00000E+00 0.00000E+00 0.00000E+00 0.00000E+00 1.27000E-02 0.00000E+00 2.41880E-02
      608  0.00000E+00 0.00000E+00 0.00000E+00 0.00000E+00 0.00000E+00 0.00000E+00 0.00000E+00 0.00000E+00 0.00000E+00 1.27000E-02 0.00000E+00 2.54000E-02
      609  0.00000E+00 0.00000E+00 0.00000E+00 0.00000E+00 0.00000E+00 0.00000E+00 0.00000E+00 0.00000E+00 0.00000E+00 1.09538E-02 0.00000E+00 2.54000E-02
      610  0.00000E+00 0.00000E+00 0.00000E+00 0.00000E+00 0.00000E+00 0.00000E+00 0.00000E+00 0.00000E+00 0.00000E+00 9.20750E-03 0.00000E+00 2.54000E-02
      611  0.00000E+00 0.00000E+00 0.00000E+00 0.00000E+00 0.00000E+00 0.00000E+00 0.00000E+00 0.00000E+00 0.00000E+00 7.46130E-03 0.00000E+00 2.54000E-02
      612  0.00000E+00 0.00000E+00 0.00000E+00 0.00000E+00 0.00000E+00 0.00000E+00 0.00000E+00 0.00000E+00 0.00000E+00 1.09538E-02 0.00000E+00 1.64120E-02
      613  0.00000E+00 0.00000E+00 0.00000E+00 0.00000E+00 0.00000E+00 0.00000E+00 0.00000E+00 0.00000E+00 0.00000E+00 9.20750E-03 0.00000E+00 1.59079E-02
      614  0.00000E+00 0.00000E+00 0.00000E+00 0.00000E+00 0.00000E+00 0.00000E+00 0.00000E+00 0.00000E+00 0.00000E+00 7.46130E-03 0.00000E+00 1.54038E-02
      615  0.00000E+00 0.00000E+00 0.00000E+00 0.00000E+00 0.00000E+00 0.00000E+00 0.00000E+00 0.00000E+00 0.00000E+00 1.09538E-02 0.00000E+00 1.12760E-02
      616  0.00000E+00 0.00000E+00 0.00000E+00 0.00000E+00 0.00000E+00 0.00000E+00 0.00000E+00 0.00000E+00 0.00000E+00 9.20750E-03 0.00000E+00 1.04838E-02
      617  0.00000E+00 0.00000E+00 0.00000E+00 0.00000E+00 0.00000E+00 0.00000E+00 0.00000E+00 0.00000E+00 0.00000E+00 7.46130E-03 0.00000E+00 9.69170E-03
      618  0.00000E+00 0.00000E+00 0.00000E+00 0.00000E+00 0.00000E+00 0.00000E+00 0.00000E+00 0.00000E+00 0.00000E+00 9.20750E-03 0.00000E+00 9.12780E-03
      619  0.00000E+00 0.00000E+00 0.00000E+00 0.00000E+00 0.00000E+00 0.00000E+00 0.00000E+00 0.00000E+00 0.00000E+00 9.20750E-03 0.00000E+00 7.77180E-03
      620  0.00000E+00 0.00000E+00 0.00000E+00 0.00000E+00 0.00000E+00 0.00000E+00 0.00000E+00 0.00000E+00 0.00000E+00 1.09538E-02 0.00000E+00 9.99200E-03
      621  0.00000E+00 0.00000E+00 0.00000E+00 0.00000E+00 0.00000E+00 0.00000E+00 0.00000E+00 0.00000E+00 0.00000E+00 1.09538E-02 0.00000E+00 8.70800E-03
      622  0.00000E+00 0.00000E+00 0.00000E+00 0.00000E+00 0.00000E+00 0.00000E+00 0.00000E+00 0.00000E+00 0.00000E+00 7.46130E-03 0.00000E+00 8.26370E-03
      623  0.00000E+00 0.00000E+00 0.00000E+00 0.00000E+00 0.00000E+00 0.00000E+00 0.00000E+00 0.00000E+00 0.00000E+00 7.46130E-03 0.00000E+00 6.83560E-03
      624  0.00000E+00 0.00000E+00 0.00000E+00 0.00000E+00 0.00000E+00 0.00000E+00 0.00000E+00 0.00000E+00 0.00000E+00 9.20750E-03 0.00000E+00 1.45519E-02
      625  0.00000E+00 0.00000E+00 0.00000E+00 0.00000E+00 0.00000E+00 0.00000E+00 0.00000E+00 0.00000E+00 0.00000E+00 9.20750E-03 0.00000E+00 1.31959E-02
      626  0.00000E+00 0.00000E+00 0.00000E+00 0.00000E+00 0.00000E+00 0.00000E+00 0.00000E+00 0.00000E+00 0.00000E+00 9.20750E-03 0.00000E+00 1.18399E-02
      627  0.00000E+00 0.00000E+00 0.00000E+00 0.00000E+00 0.00000E+00 0.00000E+00 0.00000E+00 0.00000E+00 0.00000E+00 1.09538E-02 0.00000E+00 1.38440E-02
      628  0.00000E+00 0.00000E+00 0.00000E+00 0.00000E+00 0.00000E+00 0.00000E+00 0.00000E+00 0.00000E+00 0.00000E+00 1.09538E-02 0.00000E+00 1.51280E-02
      629  0.00000E+00 0.00000E+00 0.00000E+00 0.00000E+00 0.00000E+00 0.00000E+00 0.00000E+00 0.00000E+00 0.00000E+00 1.09538E-02 0.00000E+00 1.25600E-02
      630  0.00000E+00 0.00000E+00 0.00000E+00 0.00000E+00 0.00000E+00 0.00000E+00 0.00000E+00 0.00000E+00 0.00000E+00 7.46130E-03 0.00000E+00 1.25478E-02
      631  0.00000E+00 0.00000E+00 0.00000E+00 0.00000E+00 0.00000E+00 0.00000E+00 0.00000E+00 0.00000E+00 0.00000E+00 7.46130E-03 0.00000E+00 1.39758E-02
      632  0.00000E+00 0.00000E+00 0.00000E+00 0.00000E+00 0.00000E+00 0.00000E+00 0.00000E+00 0.00000E+00 0.00000E+00 7.46130E-03 0.00000E+00 1.11197E-02
      633  0.00000E+00 0.00000E+00 0.00000E+00 0.00000E+00 0.00000E+00 0.00000E+00 0.00000E+00 0.00000E+00 0.00000E+00 1.09538E-02 0.00000E+00 2.02640E-02
      634  0.00000E+00 0.00000E+00 0.00000E+00 0.00000E+00 0.00000E+00 0.00000E+00 0.00000E+00 0.00000E+00 0.00000E+00 9.20750E-03 0.00000E+00 1.99759E-02
      635  0.00000E+00 0.00000E+00 0.00000E+00 0.00000E+00 0.00000E+00 0.00000E+00 0.00000E+00 0.00000E+00 0.00000E+00 7.46130E-03 0.00000E+00 1.96879E-02
      636  0.00000E+00 0.00000E+00 0.00000E+00 0.00000E+00 0.00000E+00 0.00000E+00 0.00000E+00 0.00000E+00 0.00000E+00 9.20750E-03 0.00000E+00 1.86199E-02
      637  0.00000E+00 0.00000E+00 0.00000E+00 0.00000E+00 0.00000E+00 0.00000E+00 0.00000E+00 0.00000E+00 0.00000E+00 9.20750E-03 0.00000E+00 1.72639E-02
      638  0.00000E+00 0.00000E+00 0.00000E+00 0.00000E+00 0.00000E+00 0.00000E+00 0.00000E+00 0.00000E+00 0.00000E+00 1.09538E-02 0.00000E+00 1.89800E-02
      639  0.00000E+00 0.00000E+00 0.00000E+00 0.00000E+00 0.00000E+00 0.00000E+00 0.00000E+00 0.00000E+00 0.00000E+00 1.09538E-02 0.00000E+00 1.76960E-02
      640  0.00000E+00 0.00000E+00 0.00000E+00 0.00000E+00 0.00000E+00 0.00000E+00 0.00000E+00 0.00000E+00 0.00000E+00 7.46130E-03 0.00000E+00 1.82599E-02
      641  0.00000E+00 0.00000E+00 0.00000E+00 0.00000E+00 0.00000E+00 0.00000E+00 0.00000E+00 0.00000E+00 0.00000E+00 7.46130E-03 0.00000E+00 1.68318E-02
      642  0.00000E+00 0.00000E+00 0.00000E+00 0.00000E+00 0.00000E+00 0.00000E+00 0.00000E+00 0.00000E+00 0.00000E+00 9.20750E-03 0.00000E+00 2.40440E-02
      643  0.00000E+00 0.00000E+00 0.00000E+00 0.00000E+00 0.00000E+00 0.00000E+00 0.00000E+00 0.00000E+00 0.00000E+00 9.20750E-03 0.00000E+00 2.26880E-02
      644  0.00000E+00 0.00000E+00 0.00000E+00 0.00000E+00 0.00000E+00 0.00000E+00 0.00000E+00 0.00000E+00 0.00000E+00 9.20750E-03 0.00000E+00 2.13320E-02
      645  0.00000E+00 0.00000E+00 0.00000E+00 0.00000E+00 0.00000E+00 0.00000E+00 0.00000E+00 0.00000E+00 0.00000E+00 1.09538E-02 0.00000E+00 2.28320E-02
      646  0.00000E+00 0.00000E+00 0.00000E+00 0.00000E+00 0.00000E+00 0.00000E+00 0.00000E+00 0.00000E+00 0.00000E+00 1.09538E-02 0.00000E+00 2.41160E-02
      647  0.00000E+00 0.00000E+00 0.00000E+00 0.00000E+00 0.00000E+00 0.00000E+00 0.00000E+00 0.00000E+00 0.00000E+00 1.09538E-02 0.00000E+00 2.15480E-02
      648  0.00000E+00 0.00000E+00 0.00000E+00 0.00000E+00 0.00000E+00 0.00000E+00 0.00000E+00 0.00000E+00 0.00000E+00 7.46130E-03 0.00000E+00 2.25439E-02
      649  0.00000E+00 0.00000E+00 0.00000E+00 0.00000E+00 0.00000E+00 0.00000E+00 0.00000E+00 0.00000E+00 0.00000E+00 7.46130E-03 0.00000E+00 2.39720E-02
      650  0.00000E+00 0.00000E+00 0.00000E+00 0.00000E+00 0.00000E+00 0.00000E+00 0.00000E+00 0.00000E+00 0.00000E+00 7.46130E-03 0.00000E+00 2.11159E-02
      657  0.00000E+00 0.00000E+00 0.00000E+00 0.00000E+00 0.00000E+00 0.00000E+00 0.00000E+00 0.00000E+00 0.00000E+00 4.56900E-19 7.46130E-03 5.40760E-03
      658  0.00000E+00 0.00000E+00 0.00000E+00 0.00000E+00 0.00000E+00 0.00000E+00 0.00000E+00 0.00000E+00 0.00000E+00 4.56800E-19 7.46030E-03 6.83560E-03
      671  0.00000E+00 0.00000E+00 0.00000E+00 0.00000E+00 0.00000E+00 0.00000E+00 0.00000E+00 0.00000E+00 0.00000E+00 5.63800E-19 9.20670E-03 1.99759E-02
      672  0.00000E+00 0.00000E+00 0.00000E+00 0.00000E+00 0.00000E+00 0.00000E+00 0.00000E+00 0.00000E+00 0.00000E+00 4.56700E-19 7.45990E-03 1.96879E-02
      673  0.00000E+00 0.00000E+00 0.00000E+00 0.00000E+00 0.00000E+00 0.00000E+00 0.00000E+00 0.00000E+00 0.00000E+00 4.56800E-19 7.46000E-03 2.11159E-02
      674  0.00000E+00 0.00000E+00 0.00000E+00 0.00000E+00 0.00000E+00 0.00000E+00 0.00000E+00 0.00000E+00 0.00000E+00 5.63800E-19 9.20660E-03 2.13320E-02
      681  0.00000E+00 0.00000E+00 0.00000E+00 0.00000E+00 0.00000E+00 0.00000E+00 0.00000E+00 0.00000E+00 0.00000E+00 4.56800E-19 7.46020E-03 1.54038E-02
      682  0.00000E+00 0.00000E+00 0.00000E+00 0.00000E+00 0.00000E+00 0.00000E+00 0.00000E+00 0.00000E+00 0.00000E+00 4.56800E-19 7.46010E-03 1.68319E-02
      695  0.00000E+00 0.00000E+00 0.00000E+00 0.00000E+00 0.00000E+00 0.00000E+00 0.00000E+00 0.00000E+00 0.00000E+00 6.70700E-19 1.09531E-02 1.76960E-02
      696  0.00000E+00 0.00000E+00 0.00000E+00 0.00000E+00 0.00000E+00 0.00000E+00 0.00000E+00 0.00000E+00 0.00000E+00 5.63700E-19 9.20620E-03 1.72639E-02
      697  0.00000E+00 0.00000E+00 0.00000E+00 0.00000E+00 0.00000E+00 0.00000E+00 0.00000E+00 0.00000E+00 0.00000E+00 5.63800E-19 9.20640E-03 1.86199E-02
      698  0.00000E+00 0.00000E+00 0.00000E+00 0.00000E+00 0.00000E+00 0.00000E+00 0.00000E+00 0.00000E+00 0.00000E+00 6.70700E-19 1.09530E-02 1.89800E-02
      711  0.00000E+00 0.00000E+00 0.00000E+00 0.00000E+00 0.00000E+00 0.00000E+00 0.00000E+00 0.00000E+00 0.00000E+00 5.63800E-19 9.20680E-03 1.04838E-02
      712  0.00000E+00 0.00000E+00 0.00000E+00 0.00000E+00 0.00000E+00 0.00000E+00 0.00000E+00 0.00000E+00 0.00000E+00 6.70700E-19 1.09530E-02 1.12760E-02
      713  0.00000E+00 0.00000E+00 0.00000E+00 0.00000E+00 0.00000E+00 0.00000E+00 0.00000E+00 0.00000E+00 0.00000E+00 6.70700E-19 1.09531E-02 9.99200E-03
      714  0.00000E+00 0.00000E+00 0.00000E+00 0.00000E+00 0.00000E+00 0.00000E+00 0.00000E+00 0.00000E+00 0.00000E+00 5.63700E-19 9.20670E-03 9.12790E-03
      721  0.00000E+00 0.00000E+00 0.00000E+00 0.00000E+00 0.00000E+00 0.00000E+00 0.00000E+00 0.00000E+00 0.00000E+00 4.56800E-19 7.46020E-03 9.69170E-03
      722  0.00000E+00 0.00000E+00 0.00000E+00 0.00000E+00 0.00000E+00 0.00000E+00 0.00000E+00 0.00000E+00 0.00000E+00 4.56900E-19 7.45990E-03 8.26370E-03
      735  0.00000E+00 0.00000E+00 0.00000E+00 0.00000E+00 0.00000E+00 0.00000E+00 0.00000E+00 0.00000E+00 0.00000E+00 7.77700E-19 1.27000E-02 1.32801E-02
      736  0.00000E+00 0.00000E+00 0.00000E+00 0.00000E+00 0.00000E+00 0.00000E+00 0.00000E+00 0.00000E+00 0.00000E+00 6.70700E-19 1.09530E-02 1.25600E-02
      737  0.00000E+00 0.00000E+00 0.00000E+00 0.00000E+00 0.00000E+00 0.00000E+00 0.00000E+00 0.00000E+00 0.00000E+00 6.70700E-19 1.09532E-02 1.38440E-02
      738  0.00000E+00 0.00000E+00 0.00000E+00 0.00000E+00 0.00000E+00 0.00000E+00 0.00000E+00 0.00000E+00 0.00000E+00 7.77700E-19 1.27000E-02 1.44921E-02
      745  0.00000E+00 0.00000E+00 0.00000E+00 0.00000E+00 0.00000E+00 0.00000E+00 0.00000E+00 0.00000E+00 0.00000E+00 7.77700E-19 1.27000E-02 1.20682E-02
      746  0.00000E+00 0.00000E+00 0.00000E+00 0.00000E+00 0.00000E+00 0.00000E+00 0.00000E+00 0.00000E+00 0.00000E+00 7.77700E-19 1.27000E-02 1.08562E-02
      753  0.00000E+00 0.00000E+00 0.00000E+00 0.00000E+00 0.00000E+00 0.00000E+00 0.00000E+00 0.00000E+00 0.00000E+00 6.70700E-19 1.09531E-02 1.64120E-02
      754  0.00000E+00 0.00000E+00 0.00000E+00 0.00000E+00 0.00000E+00 0.00000E+00 0.00000E+00 0.00000E+00 0.00000E+00 5.63700E-19 9.20620E-03 1.59079E-02
      761  0.00000E+00 0.00000E+00 0.00000E+00 0.00000E+00 0.00000E+00 0.00000E+00 0.00000E+00 0.00000E+00 0.00000E+00 5.63800E-19 9.20750E-03 6.41580E-03
      762  0.00000E+00 0.00000E+00 0.00000E+00 0.00000E+00 0.00000E+00 0.00000E+00 0.00000E+00 0.00000E+00 0.00000E+00 5.63700E-19 9.20650E-03 7.77180E-03
      769  0.00000E+00 0.00000E+00 0.00000E+00 0.00000E+00 0.00000E+00 0.00000E+00 0.00000E+00 0.00000E+00 0.00000E+00 5.63700E-19 9.20640E-03 1.18399E-02
      770  0.00000E+00 0.00000E+00 0.00000E+00 0.00000E+00 0.00000E+00 0.00000E+00 0.00000E+00 0.00000E+00 0.00000E+00 5.63800E-19 9.20660E-03 1.31959E-02
      780  0.00000E+00 0.00000E+00 0.00000E+00 0.00000E+00 0.00000E+00 0.00000E+00 0.00000E+00 0.00000E+00 0.00000E+00 6.70700E-19 1.09529E-02 2.15480E-02
      781  0.00000E+00 0.00000E+00 0.00000E+00 0.00000E+00 0.00000E+00 0.00000E+00 0.00000E+00 0.00000E+00 0.00000E+00 5.63800E-19 9.20640E-03 2.26880E-02
      782  0.00000E+00 0.00000E+00 0.00000E+00 0.00000E+00 0.00000E+00 0.00000E+00 0.00000E+00 0.00000E+00 0.00000E+00 6.70700E-19 1.09530E-02 2.28320E-02
      795  0.00000E+00 0.00000E+00 0.00000E+00 0.00000E+00 0.00000E+00 0.00000E+00 0.00000E+00 0.00000E+00 0.00000E+00 6.70600E-19 1.09529E-02 8.70800E-03
      796  0.00000E+00 0.00000E+00 0.00000E+00 0.00000E+00 0.00000E+00 0.00000E+00 0.00000E+00 0.00000E+00 0.00000E+00 7.77700E-19 1.27000E-02 9.64420E-03
      797  0.00000E+00 0.00000E+00 0.00000E+00 0.00000E+00 0.00000E+00 0.00000E+00 0.00000E+00 0.00000E+00 0.00000E+00 7.77700E-19 1.27000E-02 8.43220E-03
      798  0.00000E+00 0.00000E+00 0.00000E+00 0.00000E+00 0.00000E+00 0.00000E+00 0.00000E+00 0.00000E+00 0.00000E+00 6.70700E-19 1.09538E-02 7.42400E-03
      802  0.00000E+00 0.00000E+00 0.00000E+00 0.00000E+00 0.00000E+00 0.00000E+00 0.00000E+00 0.00000E+00 0.00000E+00 4.56700E-19 7.45970E-03 1.82599E-02
      804  0.00000E+00 0.00000E+00 0.00000E+00 0.00000E+00 0.00000E+00 0.00000E+00 0.00000E+00 0.00000E+00 0.00000E+00 6.90200E-03 2.83400E-03 2.54000E-02
      806  0.00000E+00 0.00000E+00 0.00000E+00 0.00000E+00 0.00000E+00 0.00000E+00 0.00000E+00 0.00000E+00 0.00000E+00 5.27800E-03 5.27380E-03 2.54000E-02
      808  0.00000E+00 0.00000E+00 0.00000E+00 0.00000E+00 0.00000E+00 0.00000E+00 0.00000E+00 0.00000E+00 0.00000E+00 2.83770E-03 6.90050E-03 2.54000E-02
      809  0.00000E+00 0.00000E+00 0.00000E+00 0.00000E+00 0.00000E+00 0.00000E+00 0.00000E+00 0.00000E+00 0.00000E+00 4.56800E-19 7.46020E-03 2.39720E-02
      810  0.00000E+00 0.00000E+00 0.00000E+00 0.00000E+00 0.00000E+00 0.00000E+00 0.00000E+00 0.00000E+00 0.00000E+00 4.56900E-19 7.46130E-03 2.54000E-02
      814  0.00000E+00 0.00000E+00 0.00000E+00 0.00000E+00 0.00000E+00 0.00000E+00 0.00000E+00 0.00000E+00 0.00000E+00 4.56700E-19 7.45970E-03 2.25440E-02
      824  0.00000E+00 0.00000E+00 0.00000E+00 0.00000E+00 0.00000E+00 0.00000E+00 0.00000E+00 0.00000E+00 0.00000E+00 7.77700E-19 1.27000E-02 2.05521E-02
      825  0.00000E+00 0.00000E+00 0.00000E+00 0.00000E+00 0.00000E+00 0.00000E+00 0.00000E+00 0.00000E+00 0.00000E+00 6.70700E-19 1.09528E-02 2.02640E-02
      826  0.00000E+00 0.00000E+00 0.00000E+00 0.00000E+00 0.00000E+00 0.00000E+00 0.00000E+00 0.00000E+00 0.00000E+00 7.77700E-19 1.27000E-02 2.17640E-02
      833  0.00000E+00 0.00000E+00 0.00000E+00 0.00000E+00 0.00000E+00 0.00000E+00 0.00000E+00 0.00000E+00 0.00000E+00 6.70700E-19 1.09530E-02 1.51280E-02
      834  0.00000E+00 0.00000E+00 0.00000E+00 0.00000E+00 0.00000E+00 0.00000E+00 0.00000E+00 0.00000E+00 0.00000E+00 5.63700E-19 9.20630E-03 1.45519E-02
[...]
      594  8.17483E-07 0.00000E+00-1.99771E-03 0.00000E+00 0.00000E+00 0.00000E+00 0.00000E+00 0.00000E+00 0.00000E+00 1.27008E-02 0.00000E+00 6.43449E-03
      595  7.19688E-07 0.00000E+00-1.99767E-03 0.00000E+00 0.00000E+00 0.00000E+00 0.00000E+00 0.00000E+00 0.00000E+00 1.27007E-02 0.00000E+00 7.64653E-03
      596  5.57986E-07 0.00000E+00-1.99773E-03 0.00000E+00 0.00000E+00 0.00000E+00 0.00000E+00 0.00000E+00 0.00000E+00 1.27006E-02 0.00000E+00 8.85847E-03
      597  4.15161E-07 0.00000E+00-1.99783E-03 0.00000E+00 0.00000E+00 0.00000E+00 0.00000E+00 0.00000E+00 0.00000E+00 1.27004E-02 0.00000E+00 1.00704E-02
      598  2.98862E-07 0.00000E+00-1.99798E-03 0.00000E+00 0.00000E+00 0.00000E+00 0.00000E+00 0.00000E+00 0.00000E+00 1.27003E-02 0.00000E+00 1.12821E-02
      599  2.16420E-07 0.00000E+00-1.99815E-03 0.00000E+00 0.00000E+00 0.00000E+00 0.00000E+00 0.00000E+00 0.00000E+00 1.27002E-02 0.00000E+00 1.24939E-02
      600  1.72644E-07 0.00000E+00-1.99839E-03 0.00000E+00 0.00000E+00 0.00000E+00 0.00000E+00 0.00000E+00 0.00000E+00 1.27002E-02 0.00000E+00 1.37057E-02
      601  1.79232E-07 0.00000E+00-1.99874E-03 0.00000E+00 0.00000E+00 0.00000E+00 0.00000E+00 0.00000E+00 0.00000E+00 1.27002E-02 0.00000E+00 1.49174E-02
      602  2.70787E-07 0.00000E+00-1.99929E-03 0.00000E+00 0.00000E+00 0.00000E+00 0.00000E+00 0.00000E+00 0.00000E+00 1.27003E-02 0.00000E+00 1.61288E-02
      603  5.16202E-07 0.00000E+00-2.00017E-03 0.00000E+00 0.00000E+00 0.00000E+00 0.00000E+00 0.00000E+00 0.00000E+00 1.27005E-02 0.00000E+00 1.73399E-02
      604  1.08972E-06 0.00000E+00-2.00153E-03 0.00000E+00 0.00000E+00 0.00000E+00 0.00000E+00 0.00000E+00 0.00000E+00 1.27011E-02 0.00000E+00 1.85506E-02
      605  2.57147E-06 0.00000E+00-2.00366E-03 0.00000E+00 0.00000E+00 0.00000E+00 0.00000E+00 0.00000E+00 0.00000E+00 1.27026E-02 0.00000E+00 1.97603E-02
      606  5.37905E-06 0.00000E+00-2.00671E-03 0.00000E+00 0.00000E+00 0.00000E+00 0.00000E+00 0.00000E+00 0.00000E+00 1.27054E-02 0.00000E+00 2.09693E-02
      607  1.09675E-05 0.00000E+00-2.00996E-03 0.00000E+00 0.00000E+00 0.00000E+00 0.00000E+00 0.00000E+00 0.00000E+00 1.27110E-02 0.00000E+00 2.21780E-02
      608  1.90744E-05 0.00000E+00-2.01571E-03 0.00000E+00 0.00000E+00 0.00000E+00 0.00000E+00 0.00000E+00 0.00000E+00 1.27191E-02 0.00000E+00 2.33843E-02
      609  1.48077E-05 0.00000E+00-2.00741E-03 0.00000E+00 0.00000E+00 0.00000E+00 0.00000E+00 0.00000E+00 0.00000E+00 1.09686E-02 0.00000E+00 2.33926E-02
      610  1.41942E-05 0.00000E+00-2.00486E-03 0.00000E+00 0.00000E+00 0.00000E+00 0.00000E+00 0.00000E+00 0.00000E+00 9.22169E-03 0.00000E+00 2.33951E-02
      611  1.44543E-05 0.00000E+00-2.00366E-03 0.00000E+00 0.00000E+00 0.00000E+00 0.00000E+00 0.00000E+00 0.00000E+00 7.47575E-03 0.00000E+00 2.33963E-02
      612 -5.71152E-09 0.00000E+00-1.99806E-03 0.00000E+00 0.00000E+00 0.00000E+00 0.00000E+00 0.00000E+00 0.00000E+00 1.09538E-02 0.00000E+00 1.44139E-02
      613 -7.21332E-09 0.00000E+00-1.99767E-03 0.00000E+00 0.00000E+00 0.00000E+00 0.00000E+00 0.00000E+00 0.00000E+00 9.20749E-03 0.00000E+00 1.39102E-02
      614  3.50879E-08 0.00000E+00-1.99747E-03 0.00000E+00 0.00000E+00 0.00000E+00 0.00000E+00 0.00000E+00 0.00000E+00 7.46134E-03 0.00000E+00 1.34063E-02
      615  4.73973E-07 0.00000E+00-1.99776E-03 0.00000E+00 0.00000E+00 0.00000E+00 0.00000E+00 0.00000E+00 0.00000E+00 1.09543E-02 0.00000E+00 9.27824E-03
      616  5.57964E-07 0.00000E+00-1.99762E-03 0.00000E+00 0.00000E+00 0.00000E+00 0.00000E+00 0.00000E+00 0.00000E+00 9.20806E-03 0.00000E+00 8.48618E-03
      617  6.49609E-07 0.00000E+00-1.99749E-03 0.00000E+00 0.00000E+00 0.00000E+00 0.00000E+00 0.00000E+00 0.00000E+00 7.46195E-03 0.00000E+00 7.69421E-03
      618  7.99591E-07 0.00000E+00-1.99756E-03 0.00000E+00 0.00000E+00 0.00000E+00 0.00000E+00 0.00000E+00 0.00000E+00 9.20830E-03 0.00000E+00 7.13024E-03
      619  1.08918E-06 0.00000E+00-1.99748E-03 0.00000E+00 0.00000E+00 0.00000E+00 0.00000E+00 0.00000E+00 0.00000E+00 9.20859E-03 0.00000E+00 5.77432E-03
      620  6.67687E-07 0.00000E+00-1.99770E-03 0.00000E+00 0.00000E+00 0.00000E+00 0.00000E+00 0.00000E+00 0.00000E+00 1.09545E-02 0.00000E+00 7.99430E-03
      621  8.67726E-07 0.00000E+00-1.99764E-03 0.00000E+00 0.00000E+00 0.00000E+00 0.00000E+00 0.00000E+00 0.00000E+00 1.09547E-02 0.00000E+00 6.71036E-03
      622  9.84301E-07 0.00000E+00-1.99741E-03 0.00000E+00 0.00000E+00 0.00000E+00 0.00000E+00 0.00000E+00 0.00000E+00 7.46228E-03 0.00000E+00 6.26629E-03
      623  1.46232E-06 0.00000E+00-1.99729E-03 0.00000E+00 0.00000E+00 0.00000E+00 0.00000E+00 0.00000E+00 0.00000E+00 7.46276E-03 0.00000E+00 4.83831E-03
      624  6.91239E-08 0.00000E+00-1.99769E-03 0.00000E+00 0.00000E+00 0.00000E+00 0.00000E+00 0.00000E+00 0.00000E+00 9.20757E-03 0.00000E+00 1.25542E-02
      625  1.89996E-07 0.00000E+00-1.99770E-03 0.00000E+00 0.00000E+00 0.00000E+00 0.00000E+00 0.00000E+00 0.00000E+00 9.20769E-03 0.00000E+00 1.11982E-02
      626  3.51386E-07 0.00000E+00-1.99767E-03 0.00000E+00 0.00000E+00 0.00000E+00 0.00000E+00 0.00000E+00 0.00000E+00 9.20785E-03 0.00000E+00 9.84223E-03
      627  1.65575E-07 0.00000E+00-1.99789E-03 0.00000E+00 0.00000E+00 0.00000E+00 0.00000E+00 0.00000E+00 0.00000E+00 1.09540E-02 0.00000E+00 1.18461E-02
      628  6.05405E-08 0.00000E+00-1.99796E-03 0.00000E+00 0.00000E+00 0.00000E+00 0.00000E+00 0.00000E+00 0.00000E+00 1.09539E-02 0.00000E+00 1.31300E-02
      629  3.04057E-07 0.00000E+00-1.99783E-03 0.00000E+00 0.00000E+00 0.00000E+00 0.00000E+00 0.00000E+00 0.00000E+00 1.09541E-02 0.00000E+00 1.05622E-02
      630  2.25811E-07 0.00000E+00-1.99757E-03 0.00000E+00 0.00000E+00 0.00000E+00 0.00000E+00 0.00000E+00 0.00000E+00 7.46153E-03 0.00000E+00 1.05502E-02
      631  1.04671E-07 0.00000E+00-1.99754E-03 0.00000E+00 0.00000E+00 0.00000E+00 0.00000E+00 0.00000E+00 0.00000E+00 7.46140E-03 0.00000E+00 1.19783E-02
      632  3.97001E-07 0.00000E+00-1.99756E-03 0.00000E+00 0.00000E+00 0.00000E+00 0.00000E+00 0.00000E+00 0.00000E+00 7.46170E-03 0.00000E+00 9.12214E-03
      633  4.53148E-07 0.00000E+00-1.99884E-03 0.00000E+00 0.00000E+00 0.00000E+00 0.00000E+00 0.00000E+00 0.00000E+00 1.09543E-02 0.00000E+00 1.82652E-02
      634  3.53490E-07 0.00000E+00-1.99785E-03 0.00000E+00 0.00000E+00 0.00000E+00 0.00000E+00 0.00000E+00 0.00000E+00 9.20785E-03 0.00000E+00 1.79781E-02
      635  3.96628E-07 0.00000E+00-1.99728E-03 0.00000E+00 0.00000E+00 0.00000E+00 0.00000E+00 0.00000E+00 0.00000E+00 7.46170E-03 0.00000E+00 1.76906E-02
      636  7.41041E-08 0.00000E+00-1.99767E-03 0.00000E+00 0.00000E+00 0.00000E+00 0.00000E+00 0.00000E+00 0.00000E+00 9.20757E-03 0.00000E+00 1.66222E-02
      637 -1.89255E-08 0.00000E+00-1.99765E-03 0.00000E+00 0.00000E+00 0.00000E+00 0.00000E+00 0.00000E+00 0.00000E+00 9.20748E-03 0.00000E+00 1.52662E-02
      638  9.29662E-08 0.00000E+00-1.99845E-03 0.00000E+00 0.00000E+00 0.00000E+00 0.00000E+00 0.00000E+00 0.00000E+00 1.09539E-02 0.00000E+00 1.69815E-02
      639 -1.20910E-08 0.00000E+00-1.99821E-03 0.00000E+00 0.00000E+00 0.00000E+00 0.00000E+00 0.00000E+00 0.00000E+00 1.09538E-02 0.00000E+00 1.56978E-02
      640  1.27318E-07 0.00000E+00-1.99729E-03 0.00000E+00 0.00000E+00 0.00000E+00 0.00000E+00 0.00000E+00 0.00000E+00 7.46143E-03 0.00000E+00 1.62626E-02
      641  2.93013E-08 0.00000E+00-1.99737E-03 0.00000E+00 0.00000E+00 0.00000E+00 0.00000E+00 0.00000E+00 0.00000E+00 7.46133E-03 0.00000E+00 1.48344E-02
      642  9.10644E-06 0.00000E+00-2.00101E-03 0.00000E+00 0.00000E+00 0.00000E+00 0.00000E+00 0.00000E+00 0.00000E+00 9.21661E-03 0.00000E+00 2.20430E-02
      643  3.24586E-06 0.00000E+00-1.99941E-03 0.00000E+00 0.00000E+00 0.00000E+00 0.00000E+00 0.00000E+00 0.00000E+00 9.21075E-03 0.00000E+00 2.06886E-02
      644  1.17890E-06 0.00000E+00-1.99830E-03 0.00000E+00 0.00000E+00 0.00000E+00 0.00000E+00 0.00000E+00 0.00000E+00 9.20868E-03 0.00000E+00 1.93337E-02
      645  3.73724E-06 0.00000E+00-2.00083E-03 0.00000E+00 0.00000E+00 0.00000E+00 0.00000E+00 0.00000E+00 0.00000E+00 1.09575E-02 0.00000E+00 2.08312E-02
      646  9.12000E-06 0.00000E+00-2.00258E-03 0.00000E+00 0.00000E+00 0.00000E+00 0.00000E+00 0.00000E+00 0.00000E+00 1.09629E-02 0.00000E+00 2.21134E-02
      647  1.45062E-06 0.00000E+00-1.99952E-03 0.00000E+00 0.00000E+00 0.00000E+00 0.00000E+00 0.00000E+00 0.00000E+00 1.09553E-02 0.00000E+00 1.95485E-02
      648  3.06407E-06 0.00000E+00-1.99827E-03 0.00000E+00 0.00000E+00 0.00000E+00 0.00000E+00 0.00000E+00 0.00000E+00 7.46436E-03 0.00000E+00 2.05456E-02
      649  9.34016E-06 0.00000E+00-1.99973E-03 0.00000E+00 0.00000E+00 0.00000E+00 0.00000E+00 0.00000E+00 0.00000E+00 7.47064E-03 0.00000E+00 2.19723E-02
      650  1.15902E-06 0.00000E+00-1.99745E-03 0.00000E+00 0.00000E+00 0.00000E+00 0.00000E+00 0.00000E+00 0.00000E+00 7.46246E-03 0.00000E+00 1.91185E-02
      657  0.00000E+00 1.73031E-06-1.99728E-03 0.00000E+00 0.00000E+00 0.00000E+00 0.00000E+00 0.00000E+00 0.00000E+00 4.56900E-19 7.46303E-03 3.41032E-03
      658  0.00000E+00 9.13590E-07-1.99733E-03 0.00000E+00 0.00000E+00 0.00000E+00 0.00000E+00 0.00000E+00 0.00000E+00 4.56800E-19 7.46121E-03 4.83827E-03
      671  0.00000E+00 5.71337E-07-1.99859E-03 0.00000E+00 0.00000E+00 0.00000E+00 0.00000E+00 0.00000E+00 0.00000E+00 5.63800E-19 9.20727E-03 1.79773E-02
      672  0.00000E+00 6.10490E-07-1.99839E-03 0.00000E+00 0.00000E+00 0.00000E+00 0.00000E+00 0.00000E+00 0.00000E+00 4.56700E-19 7.46051E-03 1.76895E-02
      673  0.00000E+00 1.02578E-06-1.99822E-03 0.00000E+00 0.00000E+00 0.00000E+00 0.00000E+00 0.00000E+00 0.00000E+00 4.56800E-19 7.46103E-03 1.91177E-02
      674  0.00000E+00 9.57680E-07-1.99876E-03 0.00000E+00 0.00000E+00 0.00000E+00 0.00000E+00 0.00000E+00 0.00000E+00 5.63800E-19 9.20756E-03 1.93332E-02
      681  0.00000E+00 3.52052E-07-1.99831E-03 0.00000E+00 0.00000E+00 0.00000E+00 0.00000E+00 0.00000E+00 0.00000E+00 4.56800E-19 7.46055E-03 1.34055E-02
      682  0.00000E+00 4.13166E-07-1.99837E-03 0.00000E+00 0.00000E+00 0.00000E+00 0.00000E+00 0.00000E+00 0.00000E+00 4.56800E-19 7.46051E-03 1.48335E-02
      695  0.00000E+00 4.61915E-07-1.99836E-03 0.00000E+00 0.00000E+00 0.00000E+00 0.00000E+00 0.00000E+00 0.00000E+00 6.70700E-19 1.09536E-02 1.56976E-02
      696  0.00000E+00 4.26199E-07-1.99836E-03 0.00000E+00 0.00000E+00 0.00000E+00 0.00000E+00 0.00000E+00 0.00000E+00 5.63700E-19 9.20663E-03 1.52655E-02
      697  0.00000E+00 4.87390E-07-1.99847E-03 0.00000E+00 0.00000E+00 0.00000E+00 0.00000E+00 0.00000E+00 0.00000E+00 5.63800E-19 9.20689E-03 1.66214E-02
      698  0.00000E+00 5.31260E-07-1.99856E-03 0.00000E+00 0.00000E+00 0.00000E+00 0.00000E+00 0.00000E+00 0.00000E+00 6.70700E-19 1.09535E-02 1.69814E-02
      711  0.00000E+00 4.22660E-07-1.99793E-03 0.00000E+00 0.00000E+00 0.00000E+00 0.00000E+00 0.00000E+00 0.00000E+00 5.63800E-19 9.20722E-03 8.48587E-03
      712  0.00000E+00 4.00023E-07-1.99793E-03 0.00000E+00 0.00000E+00 0.00000E+00 0.00000E+00 0.00000E+00 0.00000E+00 6.70700E-19 1.09534E-02 9.27807E-03
      713  0.00000E+00 4.69550E-07-1.99785E-03 0.00000E+00 0.00000E+00 0.00000E+00 0.00000E+00 0.00000E+00 0.00000E+00 6.70700E-19 1.09536E-02 7.99415E-03
      714  0.00000E+00 5.36190E-07-1.99779E-03 0.00000E+00 0.00000E+00 0.00000E+00 0.00000E+00 0.00000E+00 0.00000E+00 5.63700E-19 9.20724E-03 7.13011E-03
      721  0.00000E+00 4.30822E-07-1.99796E-03 0.00000E+00 0.00000E+00 0.00000E+00 0.00000E+00 0.00000E+00 0.00000E+00 4.56800E-19 7.46063E-03 7.69374E-03
      722  0.00000E+00 5.94526E-07-1.99776E-03 0.00000E+00 0.00000E+00 0.00000E+00 0.00000E+00 0.00000E+00 0.00000E+00 4.56900E-19 7.46049E-03 6.26594E-03
      735  0.00000E+00 3.56808E-07-1.99798E-03 0.00000E+00 0.00000E+00 0.00000E+00 0.00000E+00 0.00000E+00 0.00000E+00 7.77700E-19 1.27004E-02 1.12821E-02
      736  0.00000E+00 3.56723E-07-1.99801E-03 0.00000E+00 0.00000E+00 0.00000E+00 0.00000E+00 0.00000E+00 0.00000E+00 6.70700E-19 1.09534E-02 1.05620E-02
      737  0.00000E+00 3.40675E-07-1.99809E-03 0.00000E+00 0.00000E+00 0.00000E+00 0.00000E+00 0.00000E+00 0.00000E+00 6.70700E-19 1.09535E-02 1.18459E-02
      738  0.00000E+00 3.51103E-07-1.99805E-03 0.00000E+00 0.00000E+00 0.00000E+00 0.00000E+00 0.00000E+00 0.00000E+00 7.77700E-19 1.27004E-02 1.24940E-02
      745  0.00000E+00 3.84759E-07-1.99792E-03 0.00000E+00 0.00000E+00 0.00000E+00 0.00000E+00 0.00000E+00 0.00000E+00 7.77700E-19 1.27004E-02 1.00703E-02
      746  0.00000E+00 4.21641E-07-1.99784E-03 0.00000E+00 0.00000E+00 0.00000E+00 0.00000E+00 0.00000E+00 0.00000E+00 7.77700E-19 1.27004E-02 8.85836E-03
      753  0.00000E+00 3.99889E-07-1.99825E-03 0.00000E+00 0.00000E+00 0.00000E+00 0.00000E+00 0.00000E+00 0.00000E+00 6.70700E-19 1.09535E-02 1.44138E-02
      754  0.00000E+00 3.69929E-07-1.99826E-03 0.00000E+00 0.00000E+00 0.00000E+00 0.00000E+00 0.00000E+00 0.00000E+00 5.63700E-19 9.20657E-03 1.39096E-02
      761  0.00000E+00 8.20148E-07-1.99770E-03 0.00000E+00 0.00000E+00 0.00000E+00 0.00000E+00 0.00000E+00 0.00000E+00 5.63800E-19 9.20832E-03 4.41810E-03
      762  0.00000E+00 7.24502E-07-1.99765E-03 0.00000E+00 0.00000E+00 0.00000E+00 0.00000E+00 0.00000E+00 0.00000E+00 5.63700E-19 9.20722E-03 5.77415E-03
      769  0.00000E+00 3.52645E-07-1.99803E-03 0.00000E+00 0.00000E+00 0.00000E+00 0.00000E+00 0.00000E+00 0.00000E+00 5.63700E-19 9.20675E-03 9.84187E-03
      770  0.00000E+00 3.22236E-07-1.99812E-03 0.00000E+00 0.00000E+00 0.00000E+00 0.00000E+00 0.00000E+00 0.00000E+00 5.63800E-19 9.20692E-03 1.11978E-02
      780  0.00000E+00 1.19188E-06-1.99960E-03 0.00000E+00 0.00000E+00 0.00000E+00 0.00000E+00 0.00000E+00 0.00000E+00 6.70700E-19 1.09541E-02 1.95484E-02
      781  0.00000E+00 2.72436E-06-1.99915E-03 0.00000E+00 0.00000E+00 0.00000E+00 0.00000E+00 0.00000E+00 0.00000E+00 5.63800E-19 9.20912E-03 2.06888E-02
      782  0.00000E+00 2.68889E-06-2.00088E-03 0.00000E+00 0.00000E+00 0.00000E+00 0.00000E+00 0.00000E+00 0.00000E+00 6.70700E-19 1.09557E-02 2.08311E-02
      795  0.00000E+00 5.54966E-07-1.99781E-03 0.00000E+00 0.00000E+00 0.00000E+00 0.00000E+00 0.00000E+00 0.00000E+00 6.70600E-19 1.09535E-02 6.71019E-03
      796  0.00000E+00 4.54348E-07-1.99779E-03 0.00000E+00 0.00000E+00 0.00000E+00 0.00000E+00 0.00000E+00 0.00000E+00 7.77700E-19 1.27005E-02 7.64641E-03
      797  0.00000E+00 5.55311E-07-1.99774E-03 0.00000E+00 0.00000E+00 0.00000E+00 0.00000E+00 0.00000E+00 0.00000E+00 7.77700E-19 1.27006E-02 6.43446E-03
      798  0.00000E+00 6.33405E-07-1.99779E-03 0.00000E+00 0.00000E+00 0.00000E+00 0.00000E+00 0.00000E+00 0.00000E+00 6.70700E-19 1.09544E-02 5.42621E-03
      802  0.00000E+00 5.07253E-07-1.99842E-03 0.00000E+00 0.00000E+00 0.00000E+00 0.00000E+00 0.00000E+00 0.00000E+00 4.56700E-19 7.46021E-03 1.62615E-02
      804 -3.50872E-06-2.02512E-06-2.00000E-03 0.00000E+00 0.00000E+00 0.00000E+00 0.00000E+00 0.00000E+00 0.00000E+00 6.89849E-03 2.83197E-03 2.34000E-02
      806 -1.17384E-07 2.25435E-07-2.00000E-03 0.00000E+00 0.00000E+00 0.00000E+00 0.00000E+00 0.00000E+00 0.00000E+00 5.27788E-03 5.27403E-03 2.34000E-02
      808 -6.35308E-07 3.65761E-07-2.00000E-03 0.00000E+00 0.00000E+00 0.00000E+00 0.00000E+00 0.00000E+00 0.00000E+00 2.83706E-03 6.90087E-03 2.34000E-02
      809  0.00000E+00 5.24834E-06-1.99916E-03 0.00000E+00 0.00000E+00 0.00000E+00 0.00000E+00 0.00000E+00 0.00000E+00 4.56800E-19 7.46545E-03 2.19728E-02
      810  0.00000E+00 6.28925E-06-2.00081E-03 0.00000E+00 0.00000E+00 0.00000E+00 0.00000E+00 0.00000E+00 0.00000E+00 4.56900E-19 7.46759E-03 2.33992E-02
      814  0.00000E+00 2.89077E-06-1.99839E-03 0.00000E+00 0.00000E+00 0.00000E+00 0.00000E+00 0.00000E+00 0.00000E+00 4.56700E-19 7.46259E-03 2.05456E-02
      824  0.00000E+00 7.67827E-07-1.99877E-03 0.00000E+00 0.00000E+00 0.00000E+00 0.00000E+00 0.00000E+00 0.00000E+00 7.77700E-19 1.27008E-02 1.85533E-02
      825  0.00000E+00 6.56880E-07-1.99894E-03 0.00000E+00 0.00000E+00 0.00000E+00 0.00000E+00 0.00000E+00 0.00000E+00 6.70700E-19 1.09535E-02 1.82651E-02
      826  0.00000E+00 1.82892E-06-2.00039E-03 0.00000E+00 0.00000E+00 0.00000E+00 0.00000E+00 0.00000E+00 0.00000E+00 7.77700E-19 1.27018E-02 1.97636E-02
      833  0.00000E+00 3.53695E-07-1.99817E-03 0.00000E+00 0.00000E+00 0.00000E+00 0.00000E+00 0.00000E+00 0.00000E+00 6.70700E-19 1.09534E-02 1.31298E-02
      834  0.00000E+00 3.27630E-07-1.99820E-03 0.00000E+00 0.00000E+00 0.00000E+00 0.00000E+00 0.00000E+00 0.00000E+00 5.63700E-19 9.20663E-03 1.25537E-02
      838  0.00000E+00 3.39046E-07-1.99811E-03 0.00000E+00 0.00000E+00 0.00000E+00 0.00000E+00 0.00000E+00 0.00000E+00 4.56800E-19 7.46024E-03 9.12159E-03
      842  0.00000E+00 3.04893E-07-1.99820E-03 0.00000E+00 0.00000E+00 0.00000E+00 0.00000E+00 0.00000E+00 0.00000E+00 4.56800E-19 7.46020E-03 1.05496E-02
      849  0.00000E+00 4.68466E-07-1.99816E-03 0.00000E+00 0.00000E+00 0.00000E+00 0.00000E+00 0.00000E+00 0.00000E+00 7.77700E-19 1.27005E-02 1.61299E-02
      850  0.00000E+00 5.66278E-07-1.99825E-03 0.00000E+00 0.00000E+00 0.00000E+00 0.00000E+00 0.00000E+00 0.00000E+00 7.77700E-19 1.27006E-02 1.73419E-02
      852 -3.17840E-06-1.99353E-06-2.00000E-03 0.00000E+00 0.00000E+00 0.00000E+00 0.00000E+00 0.00000E+00 0.00000E+00 8.52082E-03 3.47911E-03 2.34000E-02
      854  3.14636E-08 3.73477E-07-2.00000E-03 0.00000E+00 0.00000E+00 0.00000E+00 0.00000E+00 0.00000E+00 0.00000E+00 6.51503E-03 6.50677E-03 2.34000E-02
      856 -6.27755E-07 5.35760E-07-2.00000E-03 0.00000E+00 0.00000E+00 0.00000E+00 0.00000E+00 0.00000E+00 0.00000E+00 3.48807E-03 8.52154E-03 2.34000E-02
      857  0.00000E+00 5.03429E-06-1.99983E-03 0.00000E+00 0.00000E+00 0.00000E+00 0.00000E+00 0.00000E+00 0.00000E+00 5.63700E-19 9.21133E-03 2.20442E-02
      858  0.00000E+00 6.30210E-06-2.00137E-03 0.00000E+00 0.00000E+00 0.00000E+00 0.00000E+00 0.00000E+00 0.00000E+00 5.63800E-19 9.21380E-03 2.33986E-02
      862  0.00000E+00 3.72651E-07-1.99812E-03 0.00000E+00 0.00000E+00 0.00000E+00 0.00000E+00 0.00000E+00 0.00000E+00 7.77700E-19 1.27004E-02 1.37060E-02
      864 -3.10377E-06-2.10875E-06-2.00000E-03 0.00000E+00 0.00000E+00 0.00000E+00 0.00000E+00 0.00000E+00 0.00000E+00 1.01430E-02 4.12599E-03 2.34000E-02
      866  2.25393E-07 4.78052E-07-2.00000E-03 0.00000E+00 0.00000E+00 0.00000E+00 0.00000E+00 0.00000E+00 0.00000E+00 7.75213E-03 7.73948E-03 2.34000E-02
      868 -6.05623E-07 4.95764E-07-2.00000E-03 0.00000E+00 0.00000E+00 0.00000E+00 0.00000E+00 0.00000E+00 0.00000E+00 4.13909E-03 1.01419E-02 2.34000E-02
      869  0.00000E+00 4.90264E-06-2.00177E-03 0.00000E+00 0.00000E+00 0.00000E+00 0.00000E+00 0.00000E+00 0.00000E+00 6.70700E-19 1.09577E-02 2.21142E-02
      870  0.00000E+00 6.30708E-06-2.00334E-03 0.00000E+00 0.00000E+00 0.00000E+00 0.00000E+00 0.00000E+00 0.00000E+00 6.70700E-19 1.09601E-02 2.33967E-02
      874  0.00000E+00 3.06563E-07-1.99826E-03 0.00000E+00 0.00000E+00 0.00000E+00 0.00000E+00 0.00000E+00 0.00000E+00 4.56700E-19 7.46001E-03 1.19775E-02
      878  0.00000E+00 4.03200E-07-1.99814E-03 0.00000E+00 0.00000E+00 0.00000E+00 0.00000E+00 0.00000E+00 0.00000E+00 7.77700E-19 1.27004E-02 1.49180E-02
      880 -3.12989E-06-3.46551E-06-2.00000E-03 0.00000E+00 0.00000E+00 0.00000E+00 0.00000E+00 0.00000E+00 0.00000E+00 1.17650E-02 4.77173E-03 2.34000E-02
      882 -3.52879E-07 2.76743E-07-2.00000E-03 0.00000E+00 0.00000E+00 0.00000E+00 0.00000E+00 0.00000E+00 0.00000E+00 8.98855E-03 8.97188E-03 2.34000E-02
      884 -6.33829E-07-7.09469E-08-2.00000E-03 0.00000E+00 0.00000E+00 0.00000E+00 0.00000E+00 0.00000E+00 0.00000E+00 4.79007E-03 1.17617E-02 2.34000E-02
      885  0.00000E+00 5.19167E-06-2.00426E-03 0.00000E+00 0.00000E+00 0.00000E+00 0.00000E+00 0.00000E+00 0.00000E+00 7.77700E-19 1.27052E-02 2.21837E-02
      886  0.00000E+00 5.04179E-06-2.00238E-03 0.00000E+00 0.00000E+00 0.00000E+00 0.00000E+00 0.00000E+00 0.00000E+00 7.77700E-19 1.27050E-02 2.33976E-02
      890  0.00000E+00 3.38946E-06-2.00339E-03 0.00000E+00 0.00000E+00 0.00000E+00 0.00000E+00 0.00000E+00 0.00000E+00 7.77700E-19 1.27034E-02 2.09726E-02
