 LS-DYNA keyword deck by LS-PrePost                                      
                    ls-dyna smp d R14 R14.1.1s_1_ef50e1 date 06/16/2024
 single point constraint forces

 output at time =   0.00000E+00
 node=     1 local x,y,z forces =    0.0000E+00    0.0000E+00    0.0000E+00  setid=       0
 node=     1 local x,y,z moments=    0.0000E+00    0.0000E+00    0.0000E+00  setid=       0
 node=     2 local x,y,z forces =    0.0000E+00    0.0000E+00    0.0000E+00  setid=       0
 node=     2 local x,y,z moments=    0.0000E+00    0.0000E+00    0.0000E+00  setid=       0
 node=     3 local x,y,z forces =    0.0000E+00    0.0000E+00    0.0000E+00  setid=       0
 node=     3 local x,y,z moments=    0.0000E+00    0.0000E+00    0.0000E+00  setid=       0
 node=     4 local x,y,z forces =    0.0000E+00    0.0000E+00    0.0000E+00  setid=       0
 node=     4 local x,y,z moments=    0.0000E+00    0.0000E+00    0.0000E+00  setid=       0
 node=     5 local x,y,z forces =    0.0000E+00    0.0000E+00    0.0000E+00  setid=       0
 node=     5 local x,y,z moments=    0.0000E+00    0.0000E+00    0.0000E+00  setid=       0
 node=     6 local x,y,z forces =    0.0000E+00    0.0000E+00    0.0000E+00  setid=       0
 node=     6 local x,y,z moments=    0.0000E+00    0.0000E+00    0.0000E+00  setid=       0
 node=     7 local x,y,z forces =    0.0000E+00    0.0000E+00    0.0000E+00  setid=       0
 node=     7 local x,y,z moments=    0.0000E+00    0.0000E+00    0.0000E+00  setid=       0
 node=     8 local x,y,z forces =    0.0000E+00    0.0000E+00    0.0000E+00  setid=       0
 node=     8 local x,y,z moments=    0.0000E+00    0.0000E+00    0.0000E+00  setid=       0
 node=     9 local x,y,z forces =    0.0000E+00    0.0000E+00    0.0000E+00  setid=       0
 node=     9 local x,y,z moments=    0.0000E+00    0.0000E+00    0.0000E+00  setid=       0
 node=    10 local x,y,z forces =    0.0000E+00    0.0000E+00    0.0000E+00  setid=       0
 node=    10 local x,y,z moments=    0.0000E+00    0.0000E+00    0.0000E+00  setid=       0
 node=    11 local x,y,z forces =    0.0000E+00    0.0000E+00    0.0000E+00  setid=       0
 node=    11 local x,y,z moments=    0.0000E+00    0.0000E+00    0.0000E+00  setid=       0
 node=    12 local x,y,z forces =    0.0000E+00    0.0000E+00    0.0000E+00  setid=       0
 node=    12 local x,y,z moments=    0.0000E+00    0.0000E+00    0.0000E+00  setid=       0
 node=    13 local x,y,z forces =    0.0000E+00    0.0000E+00    0.0000E+00  setid=       0
 node=    13 local x,y,z moments=    0.0000E+00    0.0000E+00    0.0000E+00  setid=       0
 node=    14 local x,y,z forces =    0.0000E+00    0.0000E+00    0.0000E+00  setid=       0
 node=    14 local x,y,z moments=    0.0000E+00    0.0000E+00    0.0000E+00  setid=       0
 node=    15 local x,y,z forces =    0.0000E+00    0.0000E+00    0.0000E+00  setid=       0
 node=    15 local x,y,z moments=    0.0000E+00    0.0000E+00    0.0000E+00  setid=       0
 node=    16 local x,y,z forces =    0.0000E+00    0.0000E+00    0.0000E+00  setid=       0
 node=    16 local x,y,z moments=    0.0000E+00    0.0000E+00    0.0000E+00  setid=       0
 node=    17 local x,y,z forces =    0.0000E+00    0.0000E+00    0.0000E+00  setid=       0
 node=    17 local x,y,z moments=    0.0000E+00    0.0000E+00    0.0000E+00  setid=       0
 node=    18 local x,y,z forces =    0.0000E+00    0.0000E+00    0.0000E+00  setid=       0
 node=    18 local x,y,z moments=    0.0000E+00    0.0000E+00    0.0000E+00  setid=       0
 node=    19 local x,y,z forces =    0.0000E+00    0.0000E+00    0.0000E+00  setid=       0
 node=    19 local x,y,z moments=    0.0000E+00    0.0000E+00    0.0000E+00  setid=       0
 node=    51 local x,y,z forces =    0.0000E+00    0.0000E+00    0.0000E+00  setid=       0
 node=    51 local x,y,z moments=    0.0000E+00    0.0000E+00    0.0000E+00  setid=       0
 node=    52 local x,y,z forces =    0.0000E+00    0.0000E+00    0.0000E+00  setid=       0
 node=    52 local x,y,z moments=    0.0000E+00    0.0000E+00    0.0000E+00  setid=       0
 node=    53 local x,y,z forces =    0.0000E+00    0.0000E+00    0.0000E+00  setid=       0
 node=    53 local x,y,z moments=    0.0000E+00    0.0000E+00    0.0000E+00  setid=       0
 node=    55 local x,y,z forces =    0.0000E+00    0.0000E+00    0.0000E+00  setid=       0
 node=    55 local x,y,z moments=    0.0000E+00    0.0000E+00    0.0000E+00  setid=       0
 node=    56 local x,y,z forces =    0.0000E+00    0.0000E+00    0.0000E+00  setid=       0
 node=    56 local x,y,z moments=    0.0000E+00    0.0000E+00    0.0000E+00  setid=       0
 node=    57 local x,y,z forces =    0.0000E+00    0.0000E+00    0.0000E+00  setid=       0
 node=    57 local x,y,z moments=    0.0000E+00    0.0000E+00    0.0000E+00  setid=       0
 node=    59 local x,y,z forces =    0.0000E+00    0.0000E+00    0.0000E+00  setid=       0
 node=    59 local x,y,z moments=    0.0000E+00    0.0000E+00    0.0000E+00  setid=       0
 node=    60 local x,y,z forces =    0.0000E+00    0.0000E+00    0.0000E+00  setid=       0
 node=    60 local x,y,z moments=    0.0000E+00    0.0000E+00    0.0000E+00  setid=       0
 node=    61 local x,y,z forces =    0.0000E+00    0.0000E+00    0.0000E+00  setid=       0
 node=    61 local x,y,z moments=    0.0000E+00    0.0000E+00    0.0000E+00  setid=       0
 node=    63 local x,y,z forces =    0.0000E+00    0.0000E+00    0.0000E+00  setid=       0
 node=    63 local x,y,z moments=    0.0000E+00    0.0000E+00    0.0000E+00  setid=       0
 node=    64 local x,y,z forces =    0.0000E+00    0.0000E+00    0.0000E+00  setid=       0
 node=    64 local x,y,z moments=    0.0000E+00    0.0000E+00    0.0000E+00  setid=       0
 node=    65 local x,y,z forces =    0.0000E+00    0.0000E+00    0.0000E+00  setid=       0
 node=    65 local x,y,z moments=    0.0000E+00    0.0000E+00    0.0000E+00  setid=       0
 node=    67 local x,y,z forces =    0.0000E+00    0.0000E+00    0.0000E+00  setid=       0
 node=    67 local x,y,z moments=    0.0000E+00    0.0000E+00    0.0000E+00  setid=       0
 node=    68 local x,y,z forces =    0.0000E+00    0.0000E+00    0.0000E+00  setid=       0
 node=    68 local x,y,z moments=    0.0000E+00    0.0000E+00    0.0000E+00  setid=       0
 node=    69 local x,y,z forces =    0.0000E+00    0.0000E+00    0.0000E+00  setid=       0
 node=    69 local x,y,z moments=    0.0000E+00    0.0000E+00    0.0000E+00  setid=       0
 node=    85 local x,y,z forces =    0.0000E+00    0.0000E+00    0.0000E+00  setid=       0
 node=    85 local x,y,z moments=    0.0000E+00    0.0000E+00    0.0000E+00  setid=       0
 node=    86 local x,y,z forces =    0.0000E+00    0.0000E+00    0.0000E+00  setid=       0
 node=    86 local x,y,z moments=    0.0000E+00    0.0000E+00    0.0000E+00  setid=       0
 node=    87 local x,y,z forces =    0.0000E+00    0.0000E+00    0.0000E+00  setid=       0
 node=    87 local x,y,z moments=    0.0000E+00    0.0000E+00    0.0000E+00  setid=       0
 node=    88 local x,y,z forces =    0.0000E+00    0.0000E+00    0.0000E+00  setid=       0
 node=    88 local x,y,z moments=    0.0000E+00    0.0000E+00    0.0000E+00  setid=       0
 node=    89 local x,y,z forces =    0.0000E+00    0.0000E+00    0.0000E+00  setid=       0
 node=    89 local x,y,z moments=    0.0000E+00    0.0000E+00    0.0000E+00  setid=       0
 node=    90 local x,y,z forces =    0.0000E+00    0.0000E+00    0.0000E+00  setid=       0
 node=    90 local x,y,z moments=    0.0000E+00    0.0000E+00    0.0000E+00  setid=       0
 node=    91 local x,y,z forces =    0.0000E+00    0.0000E+00    0.0000E+00  setid=       0
 node=    91 local x,y,z moments=    0.0000E+00    0.0000E+00    0.0000E+00  setid=       0
 node=    92 local x,y,z forces =    0.0000E+00    0.0000E+00    0.0000E+00  setid=       0
 node=    92 local x,y,z moments=    0.0000E+00    0.0000E+00    0.0000E+00  setid=       0
 node=    93 local x,y,z forces =    0.0000E+00    0.0000E+00    0.0000E+00  setid=       0
 node=    93 local x,y,z moments=    0.0000E+00    0.0000E+00    0.0000E+00  setid=       0
 node=    94 local x,y,z forces =    0.0000E+00    0.0000E+00    0.0000E+00  setid=       0
 node=    94 local x,y,z moments=    0.0000E+00    0.0000E+00    0.0000E+00  setid=       0
 node=    95 local x,y,z forces =    0.0000E+00    0.0000E+00    0.0000E+00  setid=       0
 node=    95 local x,y,z moments=    0.0000E+00    0.0000E+00    0.0000E+00  setid=       0
 node=    96 local x,y,z forces =    0.0000E+00    0.0000E+00    0.0000E+00  setid=       0
 node=    96 local x,y,z moments=    0.0000E+00    0.0000E+00    0.0000E+00  setid=       0
 node=    97 local x,y,z forces =    0.0000E+00    0.0000E+00    0.0000E+00  setid=       0
 node=    97 local x,y,z moments=    0.0000E+00    0.0000E+00    0.0000E+00  setid=       0
 node=    98 local x,y,z forces =    0.0000E+00    0.0000E+00    0.0000E+00  setid=       0
 node=    98 local x,y,z moments=    0.0000E+00    0.0000E+00    0.0000E+00  setid=       0
 node=    99 local x,y,z forces =    0.0000E+00    0.0000E+00    0.0000E+00  setid=       0
 node=    99 local x,y,z moments=    0.0000E+00    0.0000E+00    0.0000E+00  setid=       0
 node=   100 local x,y,z forces =    0.0000E+00    0.0000E+00    0.0000E+00  setid=       0
 node=   100 local x,y,z moments=    0.0000E+00    0.0000E+00    0.0000E+00  setid=       0
 node=   101 local x,y,z forces =    0.0000E+00    0.0000E+00    0.0000E+00  setid=       0
 node=   101 local x,y,z moments=    0.0000E+00    0.0000E+00    0.0000E+00  setid=       0
 node=   102 local x,y,z forces =    0.0000E+00    0.0000E+00    0.0000E+00  setid=       0
 node=   102 local x,y,z moments=    0.0000E+00    0.0000E+00    0.0000E+00  setid=       0
 node=   103 local x,y,z forces =    0.0000E+00    0.0000E+00    0.0000E+00  setid=       0
 node=   103 local x,y,z moments=    0.0000E+00    0.0000E+00    0.0000E+00  setid=       0
 node=   104 local x,y,z forces =    0.0000E+00    0.0000E+00    0.0000E+00  setid=       0
 node=   104 local x,y,z moments=    0.0000E+00    0.0000E+00    0.0000E+00  setid=       0
 node=   105 local x,y,z forces =    0.0000E+00    0.0000E+00    0.0000E+00  setid=       0
 node=   105 local x,y,z moments=    0.0000E+00    0.0000E+00    0.0000E+00  setid=       0
 node=   106 local x,y,z forces =    0.0000E+00    0.0000E+00    0.0000E+00  setid=       0
 node=   106 local x,y,z moments=    0.0000E+00    0.0000E+00    0.0000E+00  setid=       0
 node=   107 local x,y,z forces =    0.0000E+00    0.0000E+00    0.0000E+00  setid=       0
 node=   107 local x,y,z moments=    0.0000E+00    0.0000E+00    0.0000E+00  setid=       0
 node=   108 local x,y,z forces =    0.0000E+00    0.0000E+00    0.0000E+00  setid=       0
 node=   108 local x,y,z moments=    0.0000E+00    0.0000E+00    0.0000E+00  setid=       0
 node=   109 local x,y,z forces =    0.0000E+00    0.0000E+00    0.0000E+00  setid=       0
 node=   109 local x,y,z moments=    0.0000E+00    0.0000E+00    0.0000E+00  setid=       0
 node=   110 local x,y,z forces =    0.0000E+00    0.0000E+00    0.0000E+00  setid=       0
 node=   110 local x,y,z moments=    0.0000E+00    0.0000E+00    0.0000E+00  setid=       0
 node=   111 local x,y,z forces =    0.0000E+00    0.0000E+00    0.0000E+00  setid=       0
 node=   111 local x,y,z moments=    0.0000E+00    0.0000E+00    0.0000E+00  setid=       0
 node=   112 local x,y,z forces =    0.0000E+00    0.0000E+00    0.0000E+00  setid=       0
 node=   112 local x,y,z moments=    0.0000E+00    0.0000E+00    0.0000E+00  setid=       0
 node=   113 local x,y,z forces =    0.0000E+00    0.0000E+00    0.0000E+00  setid=       0
 node=   113 local x,y,z moments=    0.0000E+00    0.0000E+00    0.0000E+00  setid=       0
 node=   114 local x,y,z forces =    0.0000E+00    0.0000E+00    0.0000E+00  setid=       0
 node=   114 local x,y,z moments=    0.0000E+00    0.0000E+00    0.0000E+00  setid=       0
 node=   199 local x,y,z forces =    0.0000E+00    0.0000E+00    0.0000E+00  setid=       0
 node=   199 local x,y,z moments=    0.0000E+00    0.0000E+00    0.0000E+00  setid=       0
 node=   200 local x,y,z forces =    0.0000E+00    0.0000E+00    0.0000E+00  setid=       0
 node=   200 local x,y,z moments=    0.0000E+00    0.0000E+00    0.0000E+00  setid=       0
 node=   201 local x,y,z forces =    0.0000E+00    0.0000E+00    0.0000E+00  setid=       0
 node=   201 local x,y,z moments=    0.0000E+00    0.0000E+00    0.0000E+00  setid=       0
 node=   202 local x,y,z forces =    0.0000E+00    0.0000E+00    0.0000E+00  setid=       0
 node=   202 local x,y,z moments=    0.0000E+00    0.0000E+00    0.0000E+00  setid=       0
 node=   203 local x,y,z forces =    0.0000E+00    0.0000E+00    0.0000E+00  setid=       0
 node=   203 local x,y,z moments=    0.0000E+00    0.0000E+00    0.0000E+00  setid=       0
 node=   204 local x,y,z forces =    0.0000E+00    0.0000E+00    0.0000E+00  setid=       0
 node=   204 local x,y,z moments=    0.0000E+00    0.0000E+00    0.0000E+00  setid=       0
 node=   205 local x,y,z forces =    0.0000E+00    0.0000E+00    0.0000E+00  setid=       0
 node=   205 local x,y,z moments=    0.0000E+00    0.0000E+00    0.0000E+00  setid=       0
 node=   206 local x,y,z forces =    0.0000E+00    0.0000E+00    0.0000E+00  setid=       0
 node=   206 local x,y,z moments=    0.0000E+00    0.0000E+00    0.0000E+00  setid=       0
 node=   207 local x,y,z forces =    0.0000E+00    0.0000E+00    0.0000E+00  setid=       0
 node=   207 local x,y,z moments=    0.0000E+00    0.0000E+00    0.0000E+00  setid=       0
 node=   208 local x,y,z forces =    0.0000E+00    0.0000E+00    0.0000E+00  setid=       0
 node=   208 local x,y,z moments=    0.0000E+00    0.0000E+00    0.0000E+00  setid=       0
 node=   209 local x,y,z forces =    0.0000E+00    0.0000E+00    0.0000E+00  setid=       0
 node=   209 local x,y,z moments=    0.0000E+00    0.0000E+00    0.0000E+00  setid=       0
 node=   210 local x,y,z forces =    0.0000E+00    0.0000E+00    0.0000E+00  setid=       0
 node=   210 local x,y,z moments=    0.0000E+00    0.0000E+00    0.0000E+00  setid=       0
 node=   211 local x,y,z forces =    0.0000E+00    0.0000E+00    0.0000E+00  setid=       0
 node=   211 local x,y,z moments=    0.0000E+00    0.0000E+00    0.0000E+00  setid=       0
 node=   212 local x,y,z forces =    0.0000E+00    0.0000E+00    0.0000E+00  setid=       0
 node=   212 local x,y,z moments=    0.0000E+00    0.0000E+00    0.0000E+00  setid=       0
 node=   213 local x,y,z forces =    0.0000E+00    0.0000E+00    0.0000E+00  setid=       0
 node=   213 local x,y,z moments=    0.0000E+00    0.0000E+00    0.0000E+00  setid=       0
 node=   214 local x,y,z forces =    0.0000E+00    0.0000E+00    0.0000E+00  setid=       0
 node=   214 local x,y,z moments=    0.0000E+00    0.0000E+00    0.0000E+00  setid=       0
 node=   215 local x,y,z forces =    0.0000E+00    0.0000E+00    0.0000E+00  setid=       0
 node=   215 local x,y,z moments=    0.0000E+00    0.0000E+00    0.0000E+00  setid=       0
 node=   216 local x,y,z forces =    0.0000E+00    0.0000E+00    0.0000E+00  setid=       0
 node=   216 local x,y,z moments=    0.0000E+00    0.0000E+00    0.0000E+00  setid=       0
 node=   217 local x,y,z forces =    0.0000E+00    0.0000E+00    0.0000E+00  setid=       0
 node=   217 local x,y,z moments=    0.0000E+00    0.0000E+00    0.0000E+00  setid=       0
 node=   218 local x,y,z forces =    0.0000E+00    0.0000E+00    0.0000E+00  setid=       0
 node=   218 local x,y,z moments=    0.0000E+00    0.0000E+00    0.0000E+00  setid=       0
 node=   219 local x,y,z forces =    0.0000E+00    0.0000E+00    0.0000E+00  setid=       0
 node=   219 local x,y,z moments=    0.0000E+00    0.0000E+00    0.0000E+00  setid=       0
 node=   220 local x,y,z forces =    0.0000E+00    0.0000E+00    0.0000E+00  setid=       0
 node=   220 local x,y,z moments=    0.0000E+00    0.0000E+00    0.0000E+00  setid=       0
 node=   221 local x,y,z forces =    0.0000E+00    0.0000E+00    0.0000E+00  setid=       0
 node=   221 local x,y,z moments=    0.0000E+00    0.0000E+00    0.0000E+00  setid=       0
 node=   222 local x,y,z forces =    0.0000E+00    0.0000E+00    0.0000E+00  setid=       0
 node=   222 local x,y,z moments=    0.0000E+00    0.0000E+00    0.0000E+00  setid=       0
 node=   223 local x,y,z forces =    0.0000E+00    0.0000E+00    0.0000E+00  setid=       0
 node=   223 local x,y,z moments=    0.0000E+00    0.0000E+00    0.0000E+00  setid=       0
 node=   224 local x,y,z forces =    0.0000E+00    0.0000E+00    0.0000E+00  setid=       0
 node=   224 local x,y,z moments=    0.0000E+00    0.0000E+00    0.0000E+00  setid=       0
 node=   225 local x,y,z forces =    0.0000E+00    0.0000E+00    0.0000E+00  setid=       0
 node=   225 local x,y,z moments=    0.0000E+00    0.0000E+00    0.0000E+00  setid=       0
 node=   226 local x,y,z forces =    0.0000E+00    0.0000E+00    0.0000E+00  setid=       0
 node=   226 local x,y,z moments=    0.0000E+00    0.0000E+00    0.0000E+00  setid=       0
 node=   227 local x,y,z forces =    0.0000E+00    0.0000E+00    0.0000E+00  setid=       0
 node=   227 local x,y,z moments=    0.0000E+00    0.0000E+00    0.0000E+00  setid=       0
 node=   229 local x,y,z forces =    0.0000E+00    0.0000E+00    0.0000E+00  setid=       0
 node=   229 local x,y,z moments=    0.0000E+00    0.0000E+00    0.0000E+00  setid=       0
 node=   230 local x,y,z forces =    0.0000E+00    0.0000E+00    0.0000E+00  setid=       0
 node=   230 local x,y,z moments=    0.0000E+00    0.0000E+00    0.0000E+00  setid=       0
 node=   231 local x,y,z forces =    0.0000E+00    0.0000E+00    0.0000E+00  setid=       0
 node=   231 local x,y,z moments=    0.0000E+00    0.0000E+00    0.0000E+00  setid=       0
 node=   233 local x,y,z forces =    0.0000E+00    0.0000E+00    0.0000E+00  setid=       0
 node=   233 local x,y,z moments=    0.0000E+00    0.0000E+00    0.0000E+00  setid=       0
 node=   234 local x,y,z forces =    0.0000E+00    0.0000E+00    0.0000E+00  setid=       0
 node=   234 local x,y,z moments=    0.0000E+00    0.0000E+00    0.0000E+00  setid=       0
 node=   235 local x,y,z forces =    0.0000E+00    0.0000E+00    0.0000E+00  setid=       0
 node=   235 local x,y,z moments=    0.0000E+00    0.0000E+00    0.0000E+00  setid=       0
 node=   237 local x,y,z forces =    0.0000E+00    0.0000E+00    0.0000E+00  setid=       0
 node=   237 local x,y,z moments=    0.0000E+00    0.0000E+00    0.0000E+00  setid=       0
 node=   238 local x,y,z forces =    0.0000E+00    0.0000E+00    0.0000E+00  setid=       0
 node=   238 local x,y,z moments=    0.0000E+00    0.0000E+00    0.0000E+00  setid=       0
 node=   239 local x,y,z forces =    0.0000E+00    0.0000E+00    0.0000E+00  setid=       0
 node=   239 local x,y,z moments=    0.0000E+00    0.0000E+00    0.0000E+00  setid=       0
 node=   241 local x,y,z forces =    0.0000E+00    0.0000E+00    0.0000E+00  setid=       0
 node=   241 local x,y,z moments=    0.0000E+00    0.0000E+00    0.0000E+00  setid=       0
 node=   242 local x,y,z forces =    0.0000E+00    0.0000E+00    0.0000E+00  setid=       0
 node=   242 local x,y,z moments=    0.0000E+00    0.0000E+00    0.0000E+00  setid=       0
 node=   243 local x,y,z forces =    0.0000E+00    0.0000E+00    0.0000E+00  setid=       0
 node=   243 local x,y,z moments=    0.0000E+00    0.0000E+00    0.0000E+00  setid=       0
 node=   245 local x,y,z forces =    0.0000E+00    0.0000E+00    0.0000E+00  setid=       0
 node=   245 local x,y,z moments=    0.0000E+00    0.0000E+00    0.0000E+00  setid=       0
 node=   246 local x,y,z forces =    0.0000E+00    0.0000E+00    0.0000E+00  setid=       0
 node=   246 local x,y,z moments=    0.0000E+00    0.0000E+00    0.0000E+00  setid=       0
 node=   247 local x,y,z forces =    0.0000E+00    0.0000E+00    0.0000E+00  setid=       0
 node=   247 local x,y,z moments=    0.0000E+00    0.0000E+00    0.0000E+00  setid=       0
 node=   249 local x,y,z forces =    0.0000E+00    0.0000E+00    0.0000E+00  setid=       0
 node=   249 local x,y,z moments=    0.0000E+00    0.0000E+00    0.0000E+00  setid=       0
 node=   250 local x,y,z forces =    0.0000E+00    0.0000E+00    0.0000E+00  setid=       0
 node=   250 local x,y,z moments=    0.0000E+00    0.0000E+00    0.0000E+00  setid=       0
 node=   251 local x,y,z forces =    0.0000E+00    0.0000E+00    0.0000E+00  setid=       0
 node=   251 local x,y,z moments=    0.0000E+00    0.0000E+00    0.0000E+00  setid=       0
 node=   253 local x,y,z forces =    0.0000E+00    0.0000E+00    0.0000E+00  setid=       0
 node=   253 local x,y,z moments=    0.0000E+00    0.0000E+00    0.0000E+00  setid=       0
 node=   254 local x,y,z forces =    0.0000E+00    0.0000E+00    0.0000E+00  setid=       0
 node=   254 local x,y,z moments=    0.0000E+00    0.0000E+00    0.0000E+00  setid=       0
 node=   255 local x,y,z forces =    0.0000E+00    0.0000E+00    0.0000E+00  setid=       0
 node=   255 local x,y,z moments=    0.0000E+00    0.0000E+00    0.0000E+00  setid=       0
 node=   257 local x,y,z forces =    0.0000E+00    0.0000E+00    0.0000E+00  setid=       0
 node=   257 local x,y,z moments=    0.0000E+00    0.0000E+00    0.0000E+00  setid=       0
 node=   258 local x,y,z forces =    0.0000E+00    0.0000E+00    0.0000E+00  setid=       0
 node=   258 local x,y,z moments=    0.0000E+00    0.0000E+00    0.0000E+00  setid=       0
 node=   259 local x,y,z forces =    0.0000E+00    0.0000E+00    0.0000E+00  setid=       0
 node=   259 local x,y,z moments=    0.0000E+00    0.0000E+00    0.0000E+00  setid=       0
 node=   261 local x,y,z forces =    0.0000E+00    0.0000E+00    0.0000E+00  setid=       0
 node=   261 local x,y,z moments=    0.0000E+00    0.0000E+00    0.0000E+00  setid=       0
 node=   262 local x,y,z forces =    0.0000E+00    0.0000E+00    0.0000E+00  setid=       0
 node=   262 local x,y,z moments=    0.0000E+00    0.0000E+00    0.0000E+00  setid=       0
 node=   263 local x,y,z forces =    0.0000E+00    0.0000E+00    0.0000E+00  setid=       0
 node=   263 local x,y,z moments=    0.0000E+00    0.0000E+00    0.0000E+00  setid=       0
 node=   265 local x,y,z forces =    0.0000E+00    0.0000E+00    0.0000E+00  setid=       0
 node=   265 local x,y,z moments=    0.0000E+00    0.0000E+00    0.0000E+00  setid=       0
 node=   266 local x,y,z forces =    0.0000E+00    0.0000E+00    0.0000E+00  setid=       0
 node=   266 local x,y,z moments=    0.0000E+00    0.0000E+00    0.0000E+00  setid=       0
 node=   267 local x,y,z forces =    0.0000E+00    0.0000E+00    0.0000E+00  setid=       0
 node=   267 local x,y,z moments=    0.0000E+00    0.0000E+00    0.0000E+00  setid=       0
 node=   269 local x,y,z forces =    0.0000E+00    0.0000E+00    0.0000E+00  setid=       0
 node=   269 local x,y,z moments=    0.0000E+00    0.0000E+00    0.0000E+00  setid=       0
 node=   270 local x,y,z forces =    0.0000E+00    0.0000E+00    0.0000E+00  setid=       0
 node=   270 local x,y,z moments=    0.0000E+00    0.0000E+00    0.0000E+00  setid=       0
 node=   271 local x,y,z forces =    0.0000E+00    0.0000E+00    0.0000E+00  setid=       0
 node=   271 local x,y,z moments=    0.0000E+00    0.0000E+00    0.0000E+00  setid=       0
 node=   273 local x,y,z forces =    0.0000E+00    0.0000E+00    0.0000E+00  setid=       0
 node=   273 local x,y,z moments=    0.0000E+00    0.0000E+00    0.0000E+00  setid=       0
 node=   274 local x,y,z forces =    0.0000E+00    0.0000E+00    0.0000E+00  setid=       0
 node=   274 local x,y,z moments=    0.0000E+00    0.0000E+00    0.0000E+00  setid=       0
 node=   275 local x,y,z forces =    0.0000E+00    0.0000E+00    0.0000E+00  setid=       0
 node=   275 local x,y,z moments=    0.0000E+00    0.0000E+00    0.0000E+00  setid=       0
 node=   277 local x,y,z forces =    0.0000E+00    0.0000E+00    0.0000E+00  setid=       0
 node=   277 local x,y,z moments=    0.0000E+00    0.0000E+00    0.0000E+00  setid=       0
 node=   278 local x,y,z forces =    0.0000E+00    0.0000E+00    0.0000E+00  setid=       0
 node=   278 local x,y,z moments=    0.0000E+00    0.0000E+00    0.0000E+00  setid=       0
 node=   279 local x,y,z forces =    0.0000E+00    0.0000E+00    0.0000E+00  setid=       0
 node=   279 local x,y,z moments=    0.0000E+00    0.0000E+00    0.0000E+00  setid=       0
 node=   281 local x,y,z forces =    0.0000E+00    0.0000E+00    0.0000E+00  setid=       0
 node=   281 local x,y,z moments=    0.0000E+00    0.0000E+00    0.0000E+00  setid=       0
 node=   282 local x,y,z forces =    0.0000E+00    0.0000E+00    0.0000E+00  setid=       0
 node=   282 local x,y,z moments=    0.0000E+00    0.0000E+00    0.0000E+00  setid=       0
 node=   283 local x,y,z forces =    0.0000E+00    0.0000E+00    0.0000E+00  setid=       0
 node=   283 local x,y,z moments=    0.0000E+00    0.0000E+00    0.0000E+00  setid=       0
 node=   284 local x,y,z forces =    0.0000E+00    0.0000E+00    0.0000E+00  setid=       0
 node=   284 local x,y,z moments=    0.0000E+00    0.0000E+00    0.0000E+00  setid=       0
 node=   285 local x,y,z forces =    0.0000E+00    0.0000E+00    0.0000E+00  setid=       0
 node=   285 local x,y,z moments=    0.0000E+00    0.0000E+00    0.0000E+00  setid=       0
 node=   286 local x,y,z forces =    0.0000E+00    0.0000E+00    0.0000E+00  setid=       0
 node=   286 local x,y,z moments=    0.0000E+00    0.0000E+00    0.0000E+00  setid=       0
 node=   287 local x,y,z forces =    0.0000E+00    0.0000E+00    0.0000E+00  setid=       0
 node=   287 local x,y,z moments=    0.0000E+00    0.0000E+00    0.0000E+00  setid=       0
 node=   288 local x,y,z forces =    0.0000E+00    0.0000E+00    0.0000E+00  setid=       0
 node=   288 local x,y,z moments=    0.0000E+00    0.0000E+00    0.0000E+00  setid=       0
 node=   289 local x,y,z forces =    0.0000E+00    0.0000E+00    0.0000E+00  setid=       0
 node=   289 local x,y,z moments=    0.0000E+00    0.0000E+00    0.0000E+00  setid=       0
 node=   290 local x,y,z forces =    0.0000E+00    0.0000E+00    0.0000E+00  setid=       0
 node=   290 local x,y,z moments=    0.0000E+00    0.0000E+00    0.0000E+00  setid=       0
 node=   291 local x,y,z forces =    0.0000E+00    0.0000E+00    0.0000E+00  setid=       0
 node=   291 local x,y,z moments=    0.0000E+00    0.0000E+00    0.0000E+00  setid=       0
 node=   292 local x,y,z forces =    0.0000E+00    0.0000E+00    0.0000E+00  setid=       0
 node=   292 local x,y,z moments=    0.0000E+00    0.0000E+00    0.0000E+00  setid=       0
 node=   293 local x,y,z forces =    0.0000E+00    0.0000E+00    0.0000E+00  setid=       0
 node=   293 local x,y,z moments=    0.0000E+00    0.0000E+00    0.0000E+00  setid=       0
 node=   294 local x,y,z forces =    0.0000E+00    0.0000E+00    0.0000E+00  setid=       0
 node=   294 local x,y,z moments=    0.0000E+00    0.0000E+00    0.0000E+00  setid=       0
 node=   295 local x,y,z forces =    0.0000E+00    0.0000E+00    0.0000E+00  setid=       0
 node=   295 local x,y,z moments=    0.0000E+00    0.0000E+00    0.0000E+00  setid=       0
 node=   296 local x,y,z forces =    0.0000E+00    0.0000E+00    0.0000E+00  setid=       0
 node=   296 local x,y,z moments=    0.0000E+00    0.0000E+00    0.0000E+00  setid=       0
 node=   339 local x,y,z forces =    0.0000E+00    0.0000E+00    0.0000E+00  setid=       0
 node=   339 local x,y,z moments=    0.0000E+00    0.0000E+00    0.0000E+00  setid=       0
 node=   340 local x,y,z forces =    0.0000E+00    0.0000E+00    0.0000E+00  setid=       0
 node=   340 local x,y,z moments=    0.0000E+00    0.0000E+00    0.0000E+00  setid=       0
 node=   341 local x,y,z forces =    0.0000E+00    0.0000E+00    0.0000E+00  setid=       0
 node=   341 local x,y,z moments=    0.0000E+00    0.0000E+00    0.0000E+00  setid=       0
 node=   342 local x,y,z forces =    0.0000E+00    0.0000E+00    0.0000E+00  setid=       0
 node=   342 local x,y,z moments=    0.0000E+00    0.0000E+00    0.0000E+00  setid=       0
 node=   343 local x,y,z forces =    0.0000E+00    0.0000E+00    0.0000E+00  setid=       0
 node=   343 local x,y,z moments=    0.0000E+00    0.0000E+00    0.0000E+00  setid=       0
 node=   344 local x,y,z forces =    0.0000E+00    0.0000E+00    0.0000E+00  setid=       0
 node=   344 local x,y,z moments=    0.0000E+00    0.0000E+00    0.0000E+00  setid=       0
 node=   345 local x,y,z forces =    0.0000E+00    0.0000E+00    0.0000E+00  setid=       0
 node=   345 local x,y,z moments=    0.0000E+00    0.0000E+00    0.0000E+00  setid=       0
 node=   346 local x,y,z forces =    0.0000E+00    0.0000E+00    0.0000E+00  setid=       0
 node=   346 local x,y,z moments=    0.0000E+00    0.0000E+00    0.0000E+00  setid=       0
 node=   347 local x,y,z forces =    0.0000E+00    0.0000E+00    0.0000E+00  setid=       0
 node=   347 local x,y,z moments=    0.0000E+00    0.0000E+00    0.0000E+00  setid=       0
 node=   348 local x,y,z forces =    0.0000E+00    0.0000E+00    0.0000E+00  setid=       0
 node=   348 local x,y,z moments=    0.0000E+00    0.0000E+00    0.0000E+00  setid=       0
 node=   349 local x,y,z forces =    0.0000E+00    0.0000E+00    0.0000E+00  setid=       0
 node=   349 local x,y,z moments=    0.0000E+00    0.0000E+00    0.0000E+00  setid=       0
 node=   350 local x,y,z forces =    0.0000E+00    0.0000E+00    0.0000E+00  setid=       0
 node=   350 local x,y,z moments=    0.0000E+00    0.0000E+00    0.0000E+00  setid=       0
 node=   351 local x,y,z forces =    0.0000E+00    0.0000E+00    0.0000E+00  setid=       0
 node=   351 local x,y,z moments=    0.0000E+00    0.0000E+00    0.0000E+00  setid=       0
 node=   352 local x,y,z forces =    0.0000E+00    0.0000E+00    0.0000E+00  setid=       0
 node=   352 local x,y,z moments=    0.0000E+00    0.0000E+00    0.0000E+00  setid=       0
 node=   353 local x,y,z forces =    0.0000E+00    0.0000E+00    0.0000E+00  setid=       0
 node=   353 local x,y,z moments=    0.0000E+00    0.0000E+00    0.0000E+00  setid=       0
 node=   354 local x,y,z forces =    0.0000E+00    0.0000E+00    0.0000E+00  setid=       0
 node=   354 local x,y,z moments=    0.0000E+00    0.0000E+00    0.0000E+00  setid=       0
 node=   355 local x,y,z forces =    0.0000E+00    0.0000E+00    0.0000E+00  setid=       0
 node=   355 local x,y,z moments=    0.0000E+00    0.0000E+00    0.0000E+00  setid=       0
 node=   356 local x,y,z forces =    0.0000E+00    0.0000E+00    0.0000E+00  setid=       0
 node=   356 local x,y,z moments=    0.0000E+00    0.0000E+00    0.0000E+00  setid=       0
 node=   357 local x,y,z forces =    0.0000E+00    0.0000E+00    0.0000E+00  setid=       0
 node=   357 local x,y,z moments=    0.0000E+00    0.0000E+00    0.0000E+00  setid=       0
 node=   358 local x,y,z forces =    0.0000E+00    0.0000E+00    0.0000E+00  setid=       0
 node=   358 local x,y,z moments=    0.0000E+00    0.0000E+00    0.0000E+00  setid=       0
 node=   359 local x,y,z forces =    0.0000E+00    0.0000E+00    0.0000E+00  setid=       0
 node=   359 local x,y,z moments=    0.0000E+00    0.0000E+00    0.0000E+00  setid=       0
 node=   360 local x,y,z forces =    0.0000E+00    0.0000E+00    0.0000E+00  setid=       0
 node=   360 local x,y,z moments=    0.0000E+00    0.0000E+00    0.0000E+00  setid=       0
 node=   361 local x,y,z forces =    0.0000E+00    0.0000E+00    0.0000E+00  setid=       0
 node=   361 local x,y,z moments=    0.0000E+00    0.0000E+00    0.0000E+00  setid=       0
 node=   362 local x,y,z forces =    0.0000E+00    0.0000E+00    0.0000E+00  setid=       0
 node=   362 local x,y,z moments=    0.0000E+00    0.0000E+00    0.0000E+00  setid=       0
 node=   363 local x,y,z forces =    0.0000E+00    0.0000E+00    0.0000E+00  setid=       0
 node=   363 local x,y,z moments=    0.0000E+00    0.0000E+00    0.0000E+00  setid=       0
 node=   364 local x,y,z forces =    0.0000E+00    0.0000E+00    0.0000E+00  setid=       0
 node=   364 local x,y,z moments=    0.0000E+00    0.0000E+00    0.0000E+00  setid=       0
 node=   365 local x,y,z forces =    0.0000E+00    0.0000E+00    0.0000E+00  setid=       0
 node=   365 local x,y,z moments=    0.0000E+00    0.0000E+00    0.0000E+00  setid=       0
 node=   366 local x,y,z forces =    0.0000E+00    0.0000E+00    0.0000E+00  setid=       0
 node=   366 local x,y,z moments=    0.0000E+00    0.0000E+00    0.0000E+00  setid=       0
 node=   367 local x,y,z forces =    0.0000E+00    0.0000E+00    0.0000E+00  setid=       0
 node=   367 local x,y,z moments=    0.0000E+00    0.0000E+00    0.0000E+00  setid=       0
 node=   368 local x,y,z forces =    0.0000E+00    0.0000E+00    0.0000E+00  setid=       0
 node=   368 local x,y,z moments=    0.0000E+00    0.0000E+00    0.0000E+00  setid=       0
 node=   369 local x,y,z forces =    0.0000E+00    0.0000E+00    0.0000E+00  setid=       0
 node=   369 local x,y,z moments=    0.0000E+00    0.0000E+00    0.0000E+00  setid=       0
 node=   370 local x,y,z forces =    0.0000E+00    0.0000E+00    0.0000E+00  setid=       0
 node=   370 local x,y,z moments=    0.0000E+00    0.0000E+00    0.0000E+00  setid=       0
 node=   371 local x,y,z forces =    0.0000E+00    0.0000E+00    0.0000E+00  setid=       0
 node=   371 local x,y,z moments=    0.0000E+00    0.0000E+00    0.0000E+00  setid=       0
 node=   372 local x,y,z forces =    0.0000E+00    0.0000E+00    0.0000E+00  setid=       0
 node=   372 local x,y,z moments=    0.0000E+00    0.0000E+00    0.0000E+00  setid=       0
 node=   373 local x,y,z forces =    0.0000E+00    0.0000E+00    0.0000E+00  setid=       0
 node=   373 local x,y,z moments=    0.0000E+00    0.0000E+00    0.0000E+00  setid=       0
 node=   374 local x,y,z forces =    0.0000E+00    0.0000E+00    0.0000E+00  setid=       0
 node=   374 local x,y,z moments=    0.0000E+00    0.0000E+00    0.0000E+00  setid=       0
 node=   375 local x,y,z forces =    0.0000E+00    0.0000E+00    0.0000E+00  setid=       0
 node=   375 local x,y,z moments=    0.0000E+00    0.0000E+00    0.0000E+00  setid=       0
 node=   376 local x,y,z forces =    0.0000E+00    0.0000E+00    0.0000E+00  setid=       0
 node=   376 local x,y,z moments=    0.0000E+00    0.0000E+00    0.0000E+00  setid=       0
 node=   377 local x,y,z forces =    0.0000E+00    0.0000E+00    0.0000E+00  setid=       0
 node=   377 local x,y,z moments=    0.0000E+00    0.0000E+00    0.0000E+00  setid=       0
 node=   378 local x,y,z forces =    0.0000E+00    0.0000E+00    0.0000E+00  setid=       0
 node=   378 local x,y,z moments=    0.0000E+00    0.0000E+00    0.0000E+00  setid=       0
 node=   379 local x,y,z forces =    0.0000E+00    0.0000E+00    0.0000E+00  setid=       0
 node=   379 local x,y,z moments=    0.0000E+00    0.0000E+00    0.0000E+00  setid=       0
 node=   380 local x,y,z forces =    0.0000E+00    0.0000E+00    0.0000E+00  setid=       0
 node=   380 local x,y,z moments=    0.0000E+00    0.0000E+00    0.0000E+00  setid=       0
 node=   591 local x,y,z forces =    0.0000E+00    0.0000E+00    0.0000E+00  setid=       0
 node=   591 local x,y,z moments=    0.0000E+00    0.0000E+00    0.0000E+00  setid=       0
 node=   592 local x,y,z forces =    0.0000E+00    0.0000E+00    0.0000E+00  setid=       0
 node=   592 local x,y,z moments=    0.0000E+00    0.0000E+00    0.0000E+00  setid=       0
 node=   593 local x,y,z forces =    0.0000E+00    0.0000E+00    0.0000E+00  setid=       0
 node=   593 local x,y,z moments=    0.0000E+00    0.0000E+00    0.0000E+00  setid=       0
 node=   594 local x,y,z forces =    0.0000E+00    0.0000E+00    0.0000E+00  setid=       0
 node=   594 local x,y,z moments=    0.0000E+00    0.0000E+00    0.0000E+00  setid=       0
 node=   595 local x,y,z forces =    0.0000E+00    0.0000E+00    0.0000E+00  setid=       0
 node=   595 local x,y,z moments=    0.0000E+00    0.0000E+00    0.0000E+00  setid=       0
 node=   596 local x,y,z forces =    0.0000E+00    0.0000E+00    0.0000E+00  setid=       0
 node=   596 local x,y,z moments=    0.0000E+00    0.0000E+00    0.0000E+00  setid=       0
 node=   597 local x,y,z forces =    0.0000E+00    0.0000E+00    0.0000E+00  setid=       0
 node=   597 local x,y,z moments=    0.0000E+00    0.0000E+00    0.0000E+00  setid=       0
 node=   598 local x,y,z forces =    0.0000E+00    0.0000E+00    0.0000E+00  setid=       0
 node=   598 local x,y,z moments=    0.0000E+00    0.0000E+00    0.0000E+00  setid=       0
 node=   599 local x,y,z forces =    0.0000E+00    0.0000E+00    0.0000E+00  setid=       0
 node=   599 local x,y,z moments=    0.0000E+00    0.0000E+00    0.0000E+00  setid=       0
 node=   600 local x,y,z forces =    0.0000E+00    0.0000E+00    0.0000E+00  setid=       0
 node=   600 local x,y,z moments=    0.0000E+00    0.0000E+00    0.0000E+00  setid=       0
 node=   601 local x,y,z forces =    0.0000E+00    0.0000E+00    0.0000E+00  setid=       0
 node=   601 local x,y,z moments=    0.0000E+00    0.0000E+00    0.0000E+00  setid=       0
 node=   602 local x,y,z forces =    0.0000E+00    0.0000E+00    0.0000E+00  setid=       0
 node=   602 local x,y,z moments=    0.0000E+00    0.0000E+00    0.0000E+00  setid=       0
 node=   603 local x,y,z forces =    0.0000E+00    0.0000E+00    0.0000E+00  setid=       0
 node=   603 local x,y,z moments=    0.0000E+00    0.0000E+00    0.0000E+00  setid=       0
 node=   604 local x,y,z forces =    0.0000E+00    0.0000E+00    0.0000E+00  setid=       0
 node=   604 local x,y,z moments=    0.0000E+00    0.0000E+00    0.0000E+00  setid=       0
 node=   605 local x,y,z forces =    0.0000E+00    0.0000E+00    0.0000E+00  setid=       0
 node=   605 local x,y,z moments=    0.0000E+00    0.0000E+00    0.0000E+00  setid=       0
 node=   606 local x,y,z forces =    0.0000E+00    0.0000E+00    0.0000E+00  setid=       0
 node=   606 local x,y,z moments=    0.0000E+00    0.0000E+00    0.0000E+00  setid=       0
 node=   607 local x,y,z forces =    0.0000E+00    0.0000E+00    0.0000E+00  setid=       0
 node=   607 local x,y,z moments=    0.0000E+00    0.0000E+00    0.0000E+00  setid=       0
 node=   608 local x,y,z forces =    0.0000E+00    0.0000E+00    0.0000E+00  setid=       0
 node=   608 local x,y,z moments=    0.0000E+00    0.0000E+00    0.0000E+00  setid=       0
 node=   609 local x,y,z forces =    0.0000E+00    0.0000E+00    0.0000E+00  setid=       0
 node=   609 local x,y,z moments=    0.0000E+00    0.0000E+00    0.0000E+00  setid=       0
 node=   610 local x,y,z forces =    0.0000E+00    0.0000E+00    0.0000E+00  setid=       0
 node=   610 local x,y,z moments=    0.0000E+00    0.0000E+00    0.0000E+00  setid=       0
 node=   611 local x,y,z forces =    0.0000E+00    0.0000E+00    0.0000E+00  setid=       0
 node=   611 local x,y,z moments=    0.0000E+00    0.0000E+00    0.0000E+00  setid=       0
 node=   612 local x,y,z forces =    0.0000E+00    0.0000E+00    0.0000E+00  setid=       0
 node=   612 local x,y,z moments=    0.0000E+00    0.0000E+00    0.0000E+00  setid=       0
 node=   613 local x,y,z forces =    0.0000E+00    0.0000E+00    0.0000E+00  setid=       0
 node=   613 local x,y,z moments=    0.0000E+00    0.0000E+00    0.0000E+00  setid=       0
 node=   614 local x,y,z forces =    0.0000E+00    0.0000E+00    0.0000E+00  setid=       0
 node=   614 local x,y,z moments=    0.0000E+00    0.0000E+00    0.0000E+00  setid=       0
 node=   615 local x,y,z forces =    0.0000E+00    0.0000E+00    0.0000E+00  setid=       0
 node=   615 local x,y,z moments=    0.0000E+00    0.0000E+00    0.0000E+00  setid=       0
 node=   616 local x,y,z forces =    0.0000E+00    0.0000E+00    0.0000E+00  setid=       0
 node=   616 local x,y,z moments=    0.0000E+00    0.0000E+00    0.0000E+00  setid=       0
 node=   617 local x,y,z forces =    0.0000E+00    0.0000E+00    0.0000E+00  setid=       0
 node=   617 local x,y,z moments=    0.0000E+00    0.0000E+00    0.0000E+00  setid=       0
 node=   618 local x,y,z forces =    0.0000E+00    0.0000E+00    0.0000E+00  setid=       0
 node=   618 local x,y,z moments=    0.0000E+00    0.0000E+00    0.0000E+00  setid=       0
 node=   619 local x,y,z forces =    0.0000E+00    0.0000E+00    0.0000E+00  setid=       0
 node=   619 local x,y,z moments=    0.0000E+00    0.0000E+00    0.0000E+00  setid=       0
 node=   620 local x,y,z forces =    0.0000E+00    0.0000E+00    0.0000E+00  setid=       0
 node=   620 local x,y,z moments=    0.0000E+00    0.0000E+00    0.0000E+00  setid=       0
 node=   621 local x,y,z forces =    0.0000E+00    0.0000E+00    0.0000E+00  setid=       0
 node=   621 local x,y,z moments=    0.0000E+00    0.0000E+00    0.0000E+00  setid=       0
 node=   622 local x,y,z forces =    0.0000E+00    0.0000E+00    0.0000E+00  setid=       0
 node=   622 local x,y,z moments=    0.0000E+00    0.0000E+00    0.0000E+00  setid=       0
 node=   623 local x,y,z forces =    0.0000E+00    0.0000E+00    0.0000E+00  setid=       0
 node=   623 local x,y,z moments=    0.0000E+00    0.0000E+00    0.0000E+00  setid=       0
 node=   624 local x,y,z forces =    0.0000E+00    0.0000E+00    0.0000E+00  setid=       0
 node=   624 local x,y,z moments=    0.0000E+00    0.0000E+00    0.0000E+00  setid=       0
 node=   625 local x,y,z forces =    0.0000E+00    0.0000E+00    0.0000E+00  setid=       0
 node=   625 local x,y,z moments=    0.0000E+00    0.0000E+00    0.0000E+00  setid=       0
 node=   626 local x,y,z forces =    0.0000E+00    0.0000E+00    0.0000E+00  setid=       0
 node=   626 local x,y,z moments=    0.0000E+00    0.0000E+00    0.0000E+00  setid=       0
 node=   627 local x,y,z forces =    0.0000E+00    0.0000E+00    0.0000E+00  setid=       0
 node=   627 local x,y,z moments=    0.0000E+00    0.0000E+00    0.0000E+00  setid=       0
 node=   628 local x,y,z forces =    0.0000E+00    0.0000E+00    0.0000E+00  setid=       0
 node=   628 local x,y,z moments=    0.0000E+00    0.0000E+00    0.0000E+00  setid=       0
 node=   629 local x,y,z forces =    0.0000E+00    0.0000E+00    0.0000E+00  setid=       0
 node=   629 local x,y,z moments=    0.0000E+00    0.0000E+00    0.0000E+00  setid=       0
 node=   630 local x,y,z forces =    0.0000E+00    0.0000E+00    0.0000E+00  setid=       0
 node=   630 local x,y,z moments=    0.0000E+00    0.0000E+00    0.0000E+00  setid=       0
 node=   631 local x,y,z forces =    0.0000E+00    0.0000E+00    0.0000E+00  setid=       0
 node=   631 local x,y,z moments=    0.0000E+00    0.0000E+00    0.0000E+00  setid=       0
 node=   632 local x,y,z forces =    0.0000E+00    0.0000E+00    0.0000E+00  setid=       0
 node=   632 local x,y,z moments=    0.0000E+00    0.0000E+00    0.0000E+00  setid=       0
 node=   633 local x,y,z forces =    0.0000E+00    0.0000E+00    0.0000E+00  setid=       0
 node=   633 local x,y,z moments=    0.0000E+00    0.0000E+00    0.0000E+00  setid=       0
 node=   634 local x,y,z forces =    0.0000E+00    0.0000E+00    0.0000E+00  setid=       0
 node=   634 local x,y,z moments=    0.0000E+00    0.0000E+00    0.0000E+00  setid=       0
 node=   635 local x,y,z forces =    0.0000E+00    0.0000E+00    0.0000E+00  setid=       0
 node=   635 local x,y,z moments=    0.0000E+00    0.0000E+00    0.0000E+00  setid=       0
 node=   636 local x,y,z forces =    0.0000E+00    0.0000E+00    0.0000E+00  setid=       0
 node=   636 local x,y,z moments=    0.0000E+00    0.0000E+00    0.0000E+00  setid=       0
 node=   637 local x,y,z forces =    0.0000E+00    0.0000E+00    0.0000E+00  setid=       0
 node=   637 local x,y,z moments=    0.0000E+00    0.0000E+00    0.0000E+00  setid=       0
 node=   638 local x,y,z forces =    0.0000E+00    0.0000E+00    0.0000E+00  setid=       0
 node=   638 local x,y,z moments=    0.0000E+00    0.0000E+00    0.0000E+00  setid=       0
 node=   639 local x,y,z forces =    0.0000E+00    0.0000E+00    0.0000E+00  setid=       0
 node=   639 local x,y,z moments=    0.0000E+00    0.0000E+00    0.0000E+00  setid=       0
 node=   640 local x,y,z forces =    0.0000E+00    0.0000E+00    0.0000E+00  setid=       0
 node=   640 local x,y,z moments=    0.0000E+00    0.0000E+00    0.0000E+00  setid=       0
 node=   641 local x,y,z forces =    0.0000E+00    0.0000E+00    0.0000E+00  setid=       0
 node=   641 local x,y,z moments=    0.0000E+00    0.0000E+00    0.0000E+00  setid=       0
 node=   642 local x,y,z forces =    0.0000E+00    0.0000E+00    0.0000E+00  setid=       0
 node=   642 local x,y,z moments=    0.0000E+00    0.0000E+00    0.0000E+00  setid=       0
 node=   643 local x,y,z forces =    0.0000E+00    0.0000E+00    0.0000E+00  setid=       0
 node=   643 local x,y,z moments=    0.0000E+00    0.0000E+00    0.0000E+00  setid=       0
 node=   644 local x,y,z forces =    0.0000E+00    0.0000E+00    0.0000E+00  setid=       0
 node=   644 local x,y,z moments=    0.0000E+00    0.0000E+00    0.0000E+00  setid=       0
 node=   645 local x,y,z forces =    0.0000E+00    0.0000E+00    0.0000E+00  setid=       0
 node=   645 local x,y,z moments=    0.0000E+00    0.0000E+00    0.0000E+00  setid=       0
 node=   646 local x,y,z forces =    0.0000E+00    0.0000E+00    0.0000E+00  setid=       0
 node=   646 local x,y,z moments=    0.0000E+00    0.0000E+00    0.0000E+00  setid=       0
 node=   647 local x,y,z forces =    0.0000E+00    0.0000E+00    0.0000E+00  setid=       0
 node=   647 local x,y,z moments=    0.0000E+00    0.0000E+00    0.0000E+00  setid=       0
 node=   648 local x,y,z forces =    0.0000E+00    0.0000E+00    0.0000E+00  setid=       0
 node=   648 local x,y,z moments=    0.0000E+00    0.0000E+00    0.0000E+00  setid=       0
 node=   649 local x,y,z forces =    0.0000E+00    0.0000E+00    0.0000E+00  setid=       0
 node=   649 local x,y,z moments=    0.0000E+00    0.0000E+00    0.0000E+00  setid=       0
 node=   650 local x,y,z forces =    0.0000E+00    0.0000E+00    0.0000E+00  setid=       0
 node=   650 local x,y,z moments=    0.0000E+00    0.0000E+00    0.0000E+00  setid=       0
 node=   657 local x,y,z forces =    0.0000E+00    0.0000E+00    0.0000E+00  setid=       0
 node=   657 local x,y,z moments=    0.0000E+00    0.0000E+00    0.0000E+00  setid=       0
 node=   658 local x,y,z forces =    0.0000E+00    0.0000E+00    0.0000E+00  setid=       0
 node=   658 local x,y,z moments=    0.0000E+00    0.0000E+00    0.0000E+00  setid=       0
 node=   671 local x,y,z forces =    0.0000E+00    0.0000E+00    0.0000E+00  setid=       0
 node=   671 local x,y,z moments=    0.0000E+00    0.0000E+00    0.0000E+00  setid=       0
 node=   672 local x,y,z forces =    0.0000E+00    0.0000E+00    0.0000E+00  setid=       0
 node=   672 local x,y,z moments=    0.0000E+00    0.0000E+00    0.0000E+00  setid=       0
 node=   673 local x,y,z forces =    0.0000E+00    0.0000E+00    0.0000E+00  setid=       0
 node=   673 local x,y,z moments=    0.0000E+00    0.0000E+00    0.0000E+00  setid=       0
 node=   674 local x,y,z forces =    0.0000E+00    0.0000E+00    0.0000E+00  setid=       0
 node=   674 local x,y,z moments=    0.0000E+00    0.0000E+00    0.0000E+00  setid=       0
 node=   681 local x,y,z forces =    0.0000E+00    0.0000E+00    0.0000E+00  setid=       0
 node=   681 local x,y,z moments=    0.0000E+00    0.0000E+00    0.0000E+00  setid=       0
 node=   682 local x,y,z forces =    0.0000E+00    0.0000E+00    0.0000E+00  setid=       0
 node=   682 local x,y,z moments=    0.0000E+00    0.0000E+00    0.0000E+00  setid=       0
 node=   695 local x,y,z forces =    0.0000E+00    0.0000E+00    0.0000E+00  setid=       0
 node=   695 local x,y,z moments=    0.0000E+00    0.0000E+00    0.0000E+00  setid=       0
 node=   696 local x,y,z forces =    0.0000E+00    0.0000E+00    0.0000E+00  setid=       0
 node=   696 local x,y,z moments=    0.0000E+00    0.0000E+00    0.0000E+00  setid=       0
 node=   697 local x,y,z forces =    0.0000E+00    0.0000E+00    0.0000E+00  setid=       0
 node=   697 local x,y,z moments=    0.0000E+00    0.0000E+00    0.0000E+00  setid=       0
 node=   698 local x,y,z forces =    0.0000E+00    0.0000E+00    0.0000E+00  setid=       0
 node=   698 local x,y,z moments=    0.0000E+00    0.0000E+00    0.0000E+00  setid=       0
 node=   711 local x,y,z forces =    0.0000E+00    0.0000E+00    0.0000E+00  setid=       0
 node=   711 local x,y,z moments=    0.0000E+00    0.0000E+00    0.0000E+00  setid=       0
 node=   712 local x,y,z forces =    0.0000E+00    0.0000E+00    0.0000E+00  setid=       0
 node=   712 local x,y,z moments=    0.0000E+00    0.0000E+00    0.0000E+00  setid=       0
 node=   713 local x,y,z forces =    0.0000E+00    0.0000E+00    0.0000E+00  setid=       0
 node=   713 local x,y,z moments=    0.0000E+00    0.0000E+00    0.0000E+00  setid=       0
 node=   714 local x,y,z forces =    0.0000E+00    0.0000E+00    0.0000E+00  setid=       0
 node=   714 local x,y,z moments=    0.0000E+00    0.0000E+00    0.0000E+00  setid=       0
 node=   721 local x,y,z forces =    0.0000E+00    0.0000E+00    0.0000E+00  setid=       0
 node=   721 local x,y,z moments=    0.0000E+00    0.0000E+00    0.0000E+00  setid=       0
 node=   722 local x,y,z forces =    0.0000E+00    0.0000E+00    0.0000E+00  setid=       0
 node=   722 local x,y,z moments=    0.0000E+00    0.0000E+00    0.0000E+00  setid=       0
 node=   735 local x,y,z forces =    0.0000E+00    0.0000E+00    0.0000E+00  setid=       0
 node=   735 local x,y,z moments=    0.0000E+00    0.0000E+00    0.0000E+00  setid=       0
 node=   736 local x,y,z forces =    0.0000E+00    0.0000E+00    0.0000E+00  setid=       0
 node=   736 local x,y,z moments=    0.0000E+00    0.0000E+00    0.0000E+00  setid=       0
 node=   737 local x,y,z forces =    0.0000E+00    0.0000E+00    0.0000E+00  setid=       0
 node=   737 local x,y,z moments=    0.0000E+00    0.0000E+00    0.0000E+00  setid=       0
 node=   738 local x,y,z forces =    0.0000E+00    0.0000E+00    0.0000E+00  setid=       0
 node=   738 local x,y,z moments=    0.0000E+00    0.0000E+00    0.0000E+00  setid=       0
 node=   745 local x,y,z forces =    0.0000E+00    0.0000E+00    0.0000E+00  setid=       0
 node=   745 local x,y,z moments=    0.0000E+00    0.0000E+00    0.0000E+00  setid=       0
 node=   746 local x,y,z forces =    0.0000E+00    0.0000E+00    0.0000E+00  setid=       0
 node=   746 local x,y,z moments=    0.0000E+00    0.0000E+00    0.0000E+00  setid=       0
 node=   753 local x,y,z forces =    0.0000E+00    0.0000E+00    0.0000E+00  setid=       0
 node=   753 local x,y,z moments=    0.0000E+00    0.0000E+00    0.0000E+00  setid=       0
 node=   754 local x,y,z forces =    0.0000E+00    0.0000E+00    0.0000E+00  setid=       0
 node=   754 local x,y,z moments=    0.0000E+00    0.0000E+00    0.0000E+00  setid=       0
 node=   761 local x,y,z forces =    0.0000E+00    0.0000E+00    0.0000E+00  setid=       0
 node=   761 local x,y,z moments=    0.0000E+00    0.0000E+00    0.0000E+00  setid=       0
 node=   762 local x,y,z forces =    0.0000E+00    0.0000E+00    0.0000E+00  setid=       0
 node=   762 local x,y,z moments=    0.0000E+00    0.0000E+00    0.0000E+00  setid=       0
 node=   769 local x,y,z forces =    0.0000E+00    0.0000E+00    0.0000E+00  setid=       0
 node=   769 local x,y,z moments=    0.0000E+00    0.0000E+00    0.0000E+00  setid=       0
 node=   770 local x,y,z forces =    0.0000E+00    0.0000E+00    0.0000E+00  setid=       0
 node=   770 local x,y,z moments=    0.0000E+00    0.0000E+00    0.0000E+00  setid=       0
 node=   780 local x,y,z forces =    0.0000E+00    0.0000E+00    0.0000E+00  setid=       0
 node=   780 local x,y,z moments=    0.0000E+00    0.0000E+00    0.0000E+00  setid=       0
 node=   781 local x,y,z forces =    0.0000E+00    0.0000E+00    0.0000E+00  setid=       0
 node=   781 local x,y,z moments=    0.0000E+00    0.0000E+00    0.0000E+00  setid=       0
 node=   782 local x,y,z forces =    0.0000E+00    0.0000E+00    0.0000E+00  setid=       0
 node=   782 local x,y,z moments=    0.0000E+00    0.0000E+00    0.0000E+00  setid=       0
 node=   795 local x,y,z forces =    0.0000E+00    0.0000E+00    0.0000E+00  setid=       0
 node=   795 local x,y,z moments=    0.0000E+00    0.0000E+00    0.0000E+00  setid=       0
 node=   796 local x,y,z forces =    0.0000E+00    0.0000E+00    0.0000E+00  setid=       0
 node=   796 local x,y,z moments=    0.0000E+00    0.0000E+00    0.0000E+00  setid=       0
 node=   797 local x,y,z forces =    0.0000E+00    0.0000E+00    0.0000E+00  setid=       0
 node=   797 local x,y,z moments=    0.0000E+00    0.0000E+00    0.0000E+00  setid=       0
 node=   798 local x,y,z forces =    0.0000E+00    0.0000E+00    0.0000E+00  setid=       0
 node=   798 local x,y,z moments=    0.0000E+00    0.0000E+00    0.0000E+00  setid=       0
 node=   802 local x,y,z forces =    0.0000E+00    0.0000E+00    0.0000E+00  setid=       0
 node=   802 local x,y,z moments=    0.0000E+00    0.0000E+00    0.0000E+00  setid=       0
 node=   809 local x,y,z forces =    0.0000E+00    0.0000E+00    0.0000E+00  setid=       0
 node=   809 local x,y,z moments=    0.0000E+00    0.0000E+00    0.0000E+00  setid=       0
 node=   810 local x,y,z forces =    0.0000E+00    0.0000E+00    0.0000E+00  setid=       0
 node=   810 local x,y,z moments=    0.0000E+00    0.0000E+00    0.0000E+00  setid=       0
 node=   814 local x,y,z forces =    0.0000E+00    0.0000E+00    0.0000E+00  setid=       0
 node=   814 local x,y,z moments=    0.0000E+00    0.0000E+00    0.0000E+00  setid=       0
 node=   824 local x,y,z forces =    0.0000E+00    0.0000E+00    0.0000E+00  setid=       0
 node=   824 local x,y,z moments=    0.0000E+00    0.0000E+00    0.0000E+00  setid=       0
 node=   825 local x,y,z forces =    0.0000E+00    0.0000E+00    0.0000E+00  setid=       0
 node=   825 local x,y,z moments=    0.0000E+00    0.0000E+00    0.0000E+00  setid=       0
 node=   826 local x,y,z forces =    0.0000E+00    0.0000E+00    0.0000E+00  setid=       0
 node=   826 local x,y,z moments=    0.0000E+00    0.0000E+00    0.0000E+00  setid=       0
 node=   833 local x,y,z forces =    0.0000E+00    0.0000E+00    0.0000E+00  setid=       0
 node=   833 local x,y,z moments=    0.0000E+00    0.0000E+00    0.0000E+00  setid=       0
 node=   834 local x,y,z forces =    0.0000E+00    0.0000E+00    0.0000E+00  setid=       0
 node=   834 local x,y,z moments=    0.0000E+00    0.0000E+00    0.0000E+00  setid=       0
 node=   838 local x,y,z forces =    0.0000E+00    0.0000E+00    0.0000E+00  setid=       0
 node=   838 local x,y,z moments=    0.0000E+00    0.0000E+00    0.0000E+00  setid=       0
 node=   842 local x,y,z forces =    0.0000E+00    0.0000E+00    0.0000E+00  setid=       0
 node=   842 local x,y,z moments=    0.0000E+00    0.0000E+00    0.0000E+00  setid=       0
 node=   849 local x,y,z forces =    0.0000E+00    0.0000E+00    0.0000E+00  setid=       0
 node=   849 local x,y,z moments=    0.0000E+00    0.0000E+00    0.0000E+00  setid=       0
 node=   850 local x,y,z forces =    0.0000E+00    0.0000E+00    0.0000E+00  setid=       0
 node=   850 local x,y,z moments=    0.0000E+00    0.0000E+00    0.0000E+00  setid=       0
 node=   857 local x,y,z forces =    0.0000E+00    0.0000E+00    0.0000E+00  setid=       0
 node=   857 local x,y,z moments=    0.0000E+00    0.0000E+00    0.0000E+00  setid=       0
 node=   858 local x,y,z forces =    0.0000E+00    0.0000E+00    0.0000E+00  setid=       0
 node=   858 local x,y,z moments=    0.0000E+00    0.0000E+00    0.0000E+00  setid=       0
 node=   862 local x,y,z forces =    0.0000E+00    0.0000E+00    0.0000E+00  setid=       0
 node=   862 local x,y,z moments=    0.0000E+00    0.0000E+00    0.0000E+00  setid=       0
 node=   869 local x,y,z forces =    0.0000E+00    0.0000E+00    0.0000E+00  setid=       0
 node=   869 local x,y,z moments=    0.0000E+00    0.0000E+00    0.0000E+00  setid=       0
 node=   870 local x,y,z forces =    0.0000E+00    0.0000E+00    0.0000E+00  setid=       0
 node=   870 local x,y,z moments=    0.0000E+00    0.0000E+00    0.0000E+00  setid=       0
 node=   874 local x,y,z forces =    0.0000E+00    0.0000E+00    0.0000E+00  setid=       0
 node=   874 local x,y,z moments=    0.0000E+00    0.0000E+00    0.0000E+00  setid=       0
 node=   878 local x,y,z forces =    0.0000E+00    0.0000E+00    0.0000E+00  setid=       0
 node=   878 local x,y,z moments=    0.0000E+00    0.0000E+00    0.0000E+00  setid=       0
 node=   885 local x,y,z forces =    0.0000E+00    0.0000E+00    0.0000E+00  setid=       0
 node=   885 local x,y,z moments=    0.0000E+00    0.0000E+00    0.0000E+00  setid=       0
 node=   886 local x,y,z forces =    0.0000E+00    0.0000E+00    0.0000E+00  setid=       0
 node=   886 local x,y,z moments=    0.0000E+00    0.0000E+00    0.0000E+00  setid=       0
 node=   890 local x,y,z forces =    0.0000E+00    0.0000E+00    0.0000E+00  setid=       0
 node=   890 local x,y,z moments=    0.0000E+00    0.0000E+00    0.0000E+00  setid=       0
             force resultants   =    0.0000E+00    0.0000E+00    0.0000E+00
 output at time =   5.00000E-01
 node=     1 local x,y,z forces =    0.0000E+00    3.5507E+00    3.0820E+01  setid=       0
 node=     1 local x,y,z moments=    5.4301E-03    4.5054E-03   -5.8044E-04  setid=       0
 node=     2 local x,y,z forces =    0.0000E+00    7.2325E+00    4.3214E+01  setid=       0
 node=     2 local x,y,z moments=    5.3174E-03    5.7464E-05    1.9556E-05  setid=       0
 node=     3 local x,y,z forces =    0.0000E+00    7.9971E+00    2.9450E+01  setid=       0
 node=     3 local x,y,z moments=    2.0015E-03    4.1087E-05    2.0278E-05  setid=       0
 node=     4 local x,y,z forces =    0.0000E+00    8.3067E+00    2.8003E+01  setid=       0
 node=     4 local x,y,z moments=    2.1411E-03    2.2228E-04    8.1794E-06  setid=       0
 node=     5 local x,y,z forces =    4.1074E+00    4.2277E+00    1.4061E+01  setid=       0
 node=     5 local x,y,z moments=    1.0998E-03   -1.1194E-03    1.4451E-05  setid=       0
 node=     6 local x,y,z forces =    8.1023E+00    0.0000E+00    2.7261E+01  setid=       0
 node=     6 local x,y,z moments=   -1.1789E-04   -1.9818E-03   -1.9647E-05  setid=       0
 node=     7 local x,y,z forces =    7.7145E+00    0.0000E+00    2.8431E+01  setid=       0
 node=     7 local x,y,z moments=    1.6205E-04   -1.8071E-03   -4.1650E-05  setid=       0
 node=     8 local x,y,z forces =    6.9269E+00    0.0000E+00    4.2651E+01  setid=       0
 node=     8 local x,y,z moments=    2.2772E-04   -5.3619E-03   -7.7804E-05  setid=       0
 node=     9 local x,y,z forces =    3.6644E+00    0.0000E+00    2.8762E+01  setid=       0
 node=     9 local x,y,z moments=   -4.0086E-03   -5.1651E-03    4.8218E-04  setid=       0
 node=    10 local x,y,z forces =    0.0000E+00    0.0000E+00    5.6498E+01  setid=       0
 node=    10 local x,y,z moments=   -7.0446E-03    3.5634E-03    0.0000E+00  setid=       0
 node=    11 local x,y,z forces =    0.0000E+00    0.0000E+00    5.2444E+01  setid=       0
 node=    11 local x,y,z moments=   -4.0148E-03    4.8048E-03    0.0000E+00  setid=       0
 node=    12 local x,y,z forces =    0.0000E+00    0.0000E+00    5.9201E+01  setid=       0
 node=    12 local x,y,z moments=   -2.7374E-03    7.9840E-03    0.0000E+00  setid=       0
 node=    13 local x,y,z forces =    0.0000E+00    0.0000E+00    3.5321E+01  setid=       0
 node=    13 local x,y,z moments=    6.8267E-05   -4.1548E-04    0.0000E+00  setid=       0
 node=    14 local x,y,z forces =    0.0000E+00    0.0000E+00    5.3390E+01  setid=       0
 node=    14 local x,y,z moments=    6.8559E-04   -3.4375E-04    0.0000E+00  setid=       0
 node=    15 local x,y,z forces =    0.0000E+00    0.0000E+00    5.2184E+01  setid=       0
 node=    15 local x,y,z moments=    4.6550E-04   -1.2556E-03    0.0000E+00  setid=       0
 node=    16 local x,y,z forces =    0.0000E+00    0.0000E+00    5.2409E+01  setid=       0
 node=    16 local x,y,z moments=   -8.8315E-04    4.3821E-04    0.0000E+00  setid=       0
 node=    17 local x,y,z forces =    0.0000E+00    0.0000E+00    7.4203E+01  setid=       0
 node=    17 local x,y,z moments=   -2.2630E-04   -9.1211E-04    0.0000E+00  setid=       0
 node=    18 local x,y,z forces =    0.0000E+00    0.0000E+00    8.1495E+01  setid=       0
 node=    18 local x,y,z moments=    1.9799E-03   -5.8988E-04    0.0000E+00  setid=       0
 node=    19 local x,y,z forces =    0.0000E+00    0.0000E+00    8.2239E+01  setid=       0
 node=    19 local x,y,z moments=   -7.4023E-04   -2.9302E-03    0.0000E+00  setid=       0
 node=    51 local x,y,z forces =    1.5853E+01    0.0000E+00    0.0000E+00  setid=       0
 node=    51 local x,y,z moments=    0.0000E+00   -3.5148E-05   -2.5461E-05  setid=       0
 node=    52 local x,y,z forces =    8.0386E+00    8.2526E+00    0.0000E+00  setid=       0
 node=    52 local x,y,z moments=   -1.5681E-05   -1.5244E-06    3.0519E-05  setid=       0
 node=    53 local x,y,z forces =    0.0000E+00    1.6236E+01    0.0000E+00  setid=       0
 node=    53 local x,y,z moments=   -4.2660E-05    0.0000E+00    1.8865E-05  setid=       0
 node=    55 local x,y,z forces =    1.4254E+01    0.0000E+00    0.0000E+00  setid=       0
 node=    55 local x,y,z moments=    0.0000E+00   -1.5729E-04    3.6122E-05  setid=       0
 node=    56 local x,y,z forces =    7.2567E+00    7.4608E+00    0.0000E+00  setid=       0
 node=    56 local x,y,z moments=    2.6085E-05   -4.9557E-05    4.4214E-05  setid=       0
 node=    57 local x,y,z forces =    0.0000E+00    1.4756E+01    0.0000E+00  setid=       0
 node=    57 local x,y,z moments=   -3.2228E-05    0.0000E+00    2.3007E-05  setid=       0
 node=    59 local x,y,z forces =    1.1295E+01    0.0000E+00    0.0000E+00  setid=       0
 node=    59 local x,y,z moments=    0.0000E+00   -2.5098E-04   -6.5525E-05  setid=       0
 node=    60 local x,y,z forces =    5.4641E+00    5.5649E+00    0.0000E+00  setid=       0
 node=    60 local x,y,z moments=    2.3857E-04   -2.1417E-04    5.4274E-05  setid=       0
 node=    61 local x,y,z forces =    0.0000E+00    1.1281E+01    0.0000E+00  setid=       0
 node=    61 local x,y,z moments=    2.9287E-04    0.0000E+00    3.9355E-05  setid=       0
 node=    63 local x,y,z forces =    8.7659E+00    0.0000E+00    0.0000E+00  setid=       0
 node=    63 local x,y,z moments=    0.0000E+00    2.2411E-04   -1.0953E-04  setid=       0
 node=    64 local x,y,z forces =    4.0976E+00    4.0260E+00    0.0000E+00  setid=       0
 node=    64 local x,y,z moments=   -2.2208E-04    3.0189E-04    2.8878E-06  setid=       0
 node=    65 local x,y,z forces =    0.0000E+00    7.9911E+00    0.0000E+00  setid=       0
 node=    65 local x,y,z moments=   -2.9486E-04    0.0000E+00    8.2825E-05  setid=       0
 node=    67 local x,y,z forces =    8.7952E+00    0.0000E+00    0.0000E+00  setid=       0
 node=    67 local x,y,z moments=    0.0000E+00    1.9864E-03    1.2597E-04  setid=       0
 node=    68 local x,y,z forces =    4.4311E+00    4.3022E+00    0.0000E+00  setid=       0
 node=    68 local x,y,z moments=   -1.3063E-03    1.4355E-03   -2.9143E-05  setid=       0
 node=    69 local x,y,z forces =    0.0000E+00    8.2541E+00    0.0000E+00  setid=       0
 node=    69 local x,y,z moments=   -2.1572E-03    0.0000E+00   -1.2841E-04  setid=       0
 node=    85 local x,y,z forces =    0.0000E+00    1.5090E+01    0.0000E+00  setid=       0
 node=    85 local x,y,z moments=   -3.6556E-04    0.0000E+00    1.2285E-04  setid=       0
 node=    86 local x,y,z forces =    0.0000E+00    6.7462E+00    0.0000E+00  setid=       0
 node=    86 local x,y,z moments=    1.8139E-04    0.0000E+00   -1.1047E-03  setid=       0
 node=    87 local x,y,z forces =    0.0000E+00    1.5701E+01    0.0000E+00  setid=       0
 node=    87 local x,y,z moments=   -7.2321E-04    0.0000E+00    2.9581E-04  setid=       0
 node=    88 local x,y,z forces =    0.0000E+00    5.9252E+00    0.0000E+00  setid=       0
 node=    88 local x,y,z moments=    1.4994E-04    0.0000E+00   -9.5085E-04  setid=       0
 node=    89 local x,y,z forces =    0.0000E+00    1.4513E+01    0.0000E+00  setid=       0
 node=    89 local x,y,z moments=   -8.0672E-04    0.0000E+00    3.4316E-04  setid=       0
 node=    90 local x,y,z forces =    0.0000E+00    5.0510E+00    0.0000E+00  setid=       0
 node=    90 local x,y,z moments=    1.0510E-04    0.0000E+00   -8.0199E-04  setid=       0
 node=    91 local x,y,z forces =    0.0000E+00    1.1148E+01    0.0000E+00  setid=       0
 node=    91 local x,y,z moments=   -6.4110E-04    0.0000E+00    7.3255E-05  setid=       0
 node=    92 local x,y,z forces =    0.0000E+00    3.7041E+00    0.0000E+00  setid=       0
 node=    92 local x,y,z moments=    1.9092E-04    0.0000E+00   -6.3882E-04  setid=       0
 node=    93 local x,y,z forces =    0.0000E+00    1.0123E+01    0.0000E+00  setid=       0
 node=    93 local x,y,z moments=   -2.3613E-03    0.0000E+00   -4.3826E-04  setid=       0
 node=    94 local x,y,z forces =    0.0000E+00    3.6725E+00    0.0000E+00  setid=       0
 node=    94 local x,y,z moments=   -1.2962E-03    0.0000E+00   -2.4016E-04  setid=       0
 node=    95 local x,y,z forces =    1.5248E+01    0.0000E+00    0.0000E+00  setid=       0
 node=    95 local x,y,z moments=    0.0000E+00   -2.3121E-04   -6.9401E-05  setid=       0
 node=    96 local x,y,z forces =    1.3847E+01    0.0000E+00    0.0000E+00  setid=       0
 node=    96 local x,y,z moments=    0.0000E+00   -5.2436E-04    1.5660E-05  setid=       0
 node=    97 local x,y,z forces =    1.1937E+01    0.0000E+00    0.0000E+00  setid=       0
 node=    97 local x,y,z moments=    0.0000E+00   -4.4111E-04   -1.9530E-04  setid=       0
 node=    98 local x,y,z forces =    9.7611E+00    0.0000E+00    0.0000E+00  setid=       0
 node=    98 local x,y,z moments=    0.0000E+00   -4.5792E-04   -1.3739E-04  setid=       0
 node=    99 local x,y,z forces =    9.4990E+00    0.0000E+00    0.0000E+00  setid=       0
 node=    99 local x,y,z moments=    0.0000E+00    5.9202E-04    1.7612E-04  setid=       0
 node=   100 local x,y,z forces =    1.4184E+01    0.0000E+00    0.0000E+00  setid=       0
 node=   100 local x,y,z moments=    0.0000E+00   -3.7171E-04   -1.0352E-04  setid=       0
 node=   101 local x,y,z forces =    1.3623E+01    0.0000E+00    0.0000E+00  setid=       0
 node=   101 local x,y,z moments=    0.0000E+00   -6.7176E-04    4.0438E-05  setid=       0
 node=   102 local x,y,z forces =    1.3196E+01    0.0000E+00    0.0000E+00  setid=       0
 node=   102 local x,y,z moments=    0.0000E+00   -1.5552E-04   -3.7380E-04  setid=       0
 node=   103 local x,y,z forces =    1.0754E+01    0.0000E+00    0.0000E+00  setid=       0
 node=   103 local x,y,z moments=    0.0000E+00   -3.1153E-04    2.8971E-05  setid=       0
 node=   104 local x,y,z forces =    1.0071E+01    0.0000E+00    0.0000E+00  setid=       0
 node=   104 local x,y,z moments=    0.0000E+00    1.0477E-03    2.4471E-04  setid=       0
 node=   105 local x,y,z forces =    0.0000E+00    1.5797E+01    0.0000E+00  setid=       0
 node=   105 local x,y,z moments=   -8.8138E-05    0.0000E+00    6.7790E-05  setid=       0
 node=   106 local x,y,z forces =    0.0000E+00    1.4731E+01    0.0000E+00  setid=       0
 node=   106 local x,y,z moments=   -1.1992E-04    0.0000E+00    1.2340E-04  setid=       0
 node=   107 local x,y,z forces =    0.0000E+00    1.1995E+01    0.0000E+00  setid=       0
 node=   107 local x,y,z moments=    7.5442E-05    0.0000E+00    1.5497E-04  setid=       0
 node=   108 local x,y,z forces =    0.0000E+00    8.9376E+00    0.0000E+00  setid=       0
 node=   108 local x,y,z moments=   -3.1474E-04    0.0000E+00    1.9767E-04  setid=       0
 node=   109 local x,y,z forces =    0.0000E+00    8.8164E+00    0.0000E+00  setid=       0
 node=   109 local x,y,z moments=   -2.0938E-03    0.0000E+00   -2.0193E-04  setid=       0
 node=   110 local x,y,z forces =    7.4977E+00    0.0000E+00    0.0000E+00  setid=       0
 node=   110 local x,y,z moments=    0.0000E+00    3.2054E-04    1.0467E-03  setid=       0
 node=   111 local x,y,z forces =    7.3582E+00    0.0000E+00    0.0000E+00  setid=       0
 node=   111 local x,y,z moments=    0.0000E+00    6.1013E-04    1.1377E-03  setid=       0
 node=   112 local x,y,z forces =    6.4680E+00    0.0000E+00    0.0000E+00  setid=       0
 node=   112 local x,y,z moments=    0.0000E+00    7.3575E-04    1.0815E-03  setid=       0
 node=   113 local x,y,z forces =    3.8782E+00    0.0000E+00    0.0000E+00  setid=       0
 node=   113 local x,y,z moments=    0.0000E+00    4.4107E-04    7.8651E-04  setid=       0
 node=   114 local x,y,z forces =    4.8247E+00    0.0000E+00    0.0000E+00  setid=       0
 node=   114 local x,y,z moments=    0.0000E+00    1.1479E-03    3.6780E-05  setid=       0
 node=   199 local x,y,z forces =    0.0000E+00    5.8023E+00    0.0000E+00  setid=       0
 node=   199 local x,y,z moments=    5.5828E-05    0.0000E+00    2.9831E-05  setid=       0
 node=   200 local x,y,z forces =    0.0000E+00    4.9293E+00    0.0000E+00  setid=       0
 node=   200 local x,y,z moments=   -2.1073E-05    0.0000E+00    1.8018E-05  setid=       0
 node=   201 local x,y,z forces =    0.0000E+00   -1.3534E-01    0.0000E+00  setid=       0
 node=   201 local x,y,z moments=   -2.3335E-04    0.0000E+00    6.2747E-05  setid=       0
 node=   202 local x,y,z forces =    0.0000E+00   -2.7676E-01    0.0000E+00  setid=       0
 node=   202 local x,y,z moments=   -2.9484E-04    0.0000E+00    5.0908E-05  setid=       0
 node=   203 local x,y,z forces =    0.0000E+00   -2.9819E+00    0.0000E+00  setid=       0
 node=   203 local x,y,z moments=   -3.1848E-04    0.0000E+00    5.7563E-05  setid=       0
 node=   204 local x,y,z forces =    0.0000E+00   -2.8689E+00    0.0000E+00  setid=       0
 node=   204 local x,y,z moments=   -3.2232E-04    0.0000E+00    6.3007E-05  setid=       0
 node=   205 local x,y,z forces =    0.0000E+00   -4.1996E+00    0.0000E+00  setid=       0
 node=   205 local x,y,z moments=   -3.2612E-04    0.0000E+00    4.9345E-05  setid=       0
 node=   206 local x,y,z forces =    0.0000E+00   -3.9815E+00    0.0000E+00  setid=       0
 node=   206 local x,y,z moments=   -2.9852E-04    0.0000E+00    5.0129E-05  setid=       0
 node=   207 local x,y,z forces =    0.0000E+00   -4.5516E+00    0.0000E+00  setid=       0
 node=   207 local x,y,z moments=   -3.0385E-04    0.0000E+00    3.8360E-05  setid=       0
 node=   208 local x,y,z forces =    0.0000E+00   -4.3103E+00    0.0000E+00  setid=       0
 node=   208 local x,y,z moments=   -2.5526E-04    0.0000E+00    3.6200E-05  setid=       0
 node=   209 local x,y,z forces =    0.0000E+00   -4.4307E+00    0.0000E+00  setid=       0
 node=   209 local x,y,z moments=   -2.7456E-04    0.0000E+00    2.9828E-05  setid=       0
 node=   210 local x,y,z forces =    0.0000E+00   -4.1920E+00    0.0000E+00  setid=       0
 node=   210 local x,y,z moments=   -2.0949E-04    0.0000E+00    2.6038E-05  setid=       0
 node=   211 local x,y,z forces =    0.0000E+00   -4.0406E+00    0.0000E+00  setid=       0
 node=   211 local x,y,z moments=   -2.4620E-04    0.0000E+00    2.3903E-05  setid=       0
 node=   212 local x,y,z forces =    0.0000E+00   -3.8125E+00    0.0000E+00  setid=       0
 node=   212 local x,y,z moments=   -1.6646E-04    0.0000E+00    1.9473E-05  setid=       0
 node=   213 local x,y,z forces =    0.0000E+00   -3.4808E+00    0.0000E+00  setid=       0
 node=   213 local x,y,z moments=   -2.2522E-04    0.0000E+00    1.9486E-05  setid=       0
 node=   214 local x,y,z forces =    0.0000E+00   -3.2696E+00    0.0000E+00  setid=       0
 node=   214 local x,y,z moments=   -1.3323E-04    0.0000E+00    1.5011E-05  setid=       0
 node=   215 local x,y,z forces =    0.0000E+00   -2.7756E+00    0.0000E+00  setid=       0
 node=   215 local x,y,z moments=   -2.1859E-04    0.0000E+00    1.5224E-05  setid=       0
 node=   216 local x,y,z forces =    0.0000E+00   -2.5881E+00    0.0000E+00  setid=       0
 node=   216 local x,y,z moments=   -1.1995E-04    0.0000E+00    1.1244E-05  setid=       0
 node=   217 local x,y,z forces =    0.0000E+00   -1.8777E+00    0.0000E+00  setid=       0
 node=   217 local x,y,z moments=   -2.4172E-04    0.0000E+00    1.0497E-05  setid=       0
 node=   218 local x,y,z forces =    0.0000E+00   -1.7074E+00    0.0000E+00  setid=       0
 node=   218 local x,y,z moments=   -1.4673E-04    0.0000E+00    7.5598E-06  setid=       0
 node=   219 local x,y,z forces =    0.0000E+00   -5.8459E-01    0.0000E+00  setid=       0
 node=   219 local x,y,z moments=   -3.1009E-04    0.0000E+00    5.1509E-06  setid=       0
 node=   220 local x,y,z forces =    0.0000E+00   -3.9568E-01    0.0000E+00  setid=       0
 node=   220 local x,y,z moments=   -2.3296E-04    0.0000E+00    3.1248E-06  setid=       0
 node=   221 local x,y,z forces =    0.0000E+00    1.7772E+00    0.0000E+00  setid=       0
 node=   221 local x,y,z moments=   -4.0426E-04    0.0000E+00    1.2464E-05  setid=       0
 node=   222 local x,y,z forces =    0.0000E+00    1.8696E+00    0.0000E+00  setid=       0
 node=   222 local x,y,z moments=   -3.4736E-04    0.0000E+00   -3.2507E-05  setid=       0
 node=   223 local x,y,z forces =    0.0000E+00    5.2844E+00    0.0000E+00  setid=       0
 node=   223 local x,y,z moments=   -1.9393E-04    0.0000E+00   -7.2020E-05  setid=       0
 node=   224 local x,y,z forces =    0.0000E+00    4.2797E+00    0.0000E+00  setid=       0
 node=   224 local x,y,z moments=    4.5190E-05    0.0000E+00   -1.6939E-04  setid=       0
 node=   225 local x,y,z forces =    0.0000E+00   -3.1569E+00    0.0000E+00  setid=       0
 node=   225 local x,y,z moments=   -1.9978E-03    2.1796E-04   -2.2782E-05  setid=       0
 node=   226 local x,y,z forces =    0.0000E+00   -3.8417E+00    0.0000E+00  setid=       0
 node=   226 local x,y,z moments=   -2.6795E-03    1.0691E-04   -2.3283E-04  setid=       0
 node=   227 local x,y,z forces =    0.0000E+00    5.9201E+00    0.0000E+00  setid=       0
 node=   227 local x,y,z moments=    4.1743E-05    0.0000E+00   -2.4701E-06  setid=       0
 node=   229 local x,y,z forces =    6.2292E+00    0.0000E+00    0.0000E+00  setid=       0
 node=   229 local x,y,z moments=    0.0000E+00    5.3867E-05    1.3809E-05  setid=       0
 node=   230 local x,y,z forces =    3.2706E+00    3.0534E+00    0.0000E+00  setid=       0
 node=   230 local x,y,z moments=   -1.3376E-04    5.0462E-04   -4.4254E-05  setid=       0
 node=   231 local x,y,z forces =    0.0000E+00   -7.6541E-02    0.0000E+00  setid=       0
 node=   231 local x,y,z moments=   -2.0632E-04    0.0000E+00    9.6181E-06  setid=       0
 node=   233 local x,y,z forces =    1.9721E-01    0.0000E+00    0.0000E+00  setid=       0
 node=   233 local x,y,z moments=    0.0000E+00    2.9154E-04    7.3806E-06  setid=       0
 node=   234 local x,y,z forces =    2.2872E-01    4.2530E-02    0.0000E+00  setid=       0
 node=   234 local x,y,z moments=   -2.4668E-04    5.7885E-04   -4.2159E-05  setid=       0
 node=   235 local x,y,z forces =    0.0000E+00   -3.0134E+00    0.0000E+00  setid=       0
 node=   235 local x,y,z moments=   -2.6670E-04    0.0000E+00    1.3091E-05  setid=       0
 node=   237 local x,y,z forces =   -2.8323E+00    0.0000E+00    0.0000E+00  setid=       0
 node=   237 local x,y,z moments=    0.0000E+00    4.7598E-04   -4.4423E-06  setid=       0
 node=   238 local x,y,z forces =   -1.3338E+00   -1.4424E+00    0.0000E+00  setid=       0
 node=   238 local x,y,z moments=   -2.7040E-04    6.5069E-04   -2.8104E-05  setid=       0
 node=   239 local x,y,z forces =    0.0000E+00   -4.2766E+00    0.0000E+00  setid=       0
 node=   239 local x,y,z moments=   -2.4828E-04    0.0000E+00    1.2566E-05  setid=       0
 node=   241 local x,y,z forces =   -4.1517E+00    0.0000E+00    0.0000E+00  setid=       0
 node=   241 local x,y,z moments=    0.0000E+00    5.9395E-04   -9.6959E-06  setid=       0
 node=   242 local x,y,z forces =   -2.0296E+00   -2.1028E+00    0.0000E+00  setid=       0
 node=   242 local x,y,z moments=   -2.5524E-04    6.9642E-04   -2.0547E-05  setid=       0
 node=   243 local x,y,z forces =    0.0000E+00   -4.6495E+00    0.0000E+00  setid=       0
 node=   243 local x,y,z moments=   -2.0569E-04    0.0000E+00    1.2637E-05  setid=       0
 node=   245 local x,y,z forces =   -4.5470E+00    0.0000E+00    0.0000E+00  setid=       0
 node=   245 local x,y,z moments=    0.0000E+00    6.7108E-04   -1.1351E-05  setid=       0
 node=   246 local x,y,z forces =   -2.2507E+00   -2.3171E+00    0.0000E+00  setid=       0
 node=   246 local x,y,z moments=   -2.2784E-04    7.2329E-04   -1.7822E-05  setid=       0
 node=   247 local x,y,z forces =    0.0000E+00   -4.5404E+00    0.0000E+00  setid=       0
 node=   247 local x,y,z moments=   -1.6046E-04    0.0000E+00    1.2345E-05  setid=       0
 node=   249 local x,y,z forces =   -4.4373E+00    0.0000E+00    0.0000E+00  setid=       0
 node=   249 local x,y,z moments=    0.0000E+00    7.2609E-04   -1.2309E-05  setid=       0
 node=   250 local x,y,z forces =   -2.2123E+00   -2.2804E+00    0.0000E+00  setid=       0
 node=   250 local x,y,z moments=   -1.9885E-04    7.3816E-04   -1.6996E-05  setid=       0
 node=   251 local x,y,z forces =    0.0000E+00   -4.1600E+00    0.0000E+00  setid=       0
 node=   251 local x,y,z moments=   -1.2011E-04    0.0000E+00    1.2827E-05  setid=       0
 node=   253 local x,y,z forces =   -4.0470E+00    0.0000E+00    0.0000E+00  setid=       0
 node=   253 local x,y,z moments=    0.0000E+00    7.6910E-04   -1.4041E-05  setid=       0
 node=   254 local x,y,z forces =   -2.0317E+00   -2.1040E+00    0.0000E+00  setid=       0
 node=   254 local x,y,z moments=   -1.7252E-04    7.4453E-04   -1.6904E-05  setid=       0
 node=   255 local x,y,z forces =    0.0000E+00   -3.6094E+00    0.0000E+00  setid=       0
 node=   255 local x,y,z moments=   -9.0433E-05    0.0000E+00    1.4627E-05  setid=       0
 node=   257 local x,y,z forces =   -3.4819E+00    0.0000E+00    0.0000E+00  setid=       0
 node=   257 local x,y,z moments=    0.0000E+00    8.0806E-04   -1.7193E-05  setid=       0
 node=   258 local x,y,z forces =   -1.7661E+00   -1.8438E+00    0.0000E+00  setid=       0
 node=   258 local x,y,z moments=   -1.5150E-04    7.4342E-04   -1.7189E-05  setid=       0
 node=   259 local x,y,z forces =    0.0000E+00   -2.9143E+00    0.0000E+00  setid=       0
 node=   259 local x,y,z moments=   -7.7621E-05    0.0000E+00    1.8457E-05  setid=       0
 node=   261 local x,y,z forces =   -2.7665E+00    0.0000E+00    0.0000E+00  setid=       0
 node=   261 local x,y,z moments=    0.0000E+00    8.5084E-04   -2.2630E-05  setid=       0
 node=   262 local x,y,z forces =   -1.4335E+00   -1.5186E+00    0.0000E+00  setid=       0
 node=   262 local x,y,z moments=   -1.3798E-04    7.3320E-04   -1.7941E-05  setid=       0
 node=   263 local x,y,z forces =    0.0000E+00   -2.0307E+00    0.0000E+00  setid=       0
 node=   263 local x,y,z moments=   -9.2328E-05    0.0000E+00    2.5343E-05  setid=       0
 node=   265 local x,y,z forces =   -1.8537E+00    0.0000E+00    0.0000E+00  setid=       0
 node=   265 local x,y,z moments=    0.0000E+00    9.1110E-04   -3.1481E-05  setid=       0
 node=   266 local x,y,z forces =   -1.0195E+00   -1.1142E+00    0.0000E+00  setid=       0
 node=   266 local x,y,z moments=   -1.3462E-04    7.1087E-04   -1.9357E-05  setid=       0
 node=   267 local x,y,z forces =    0.0000E+00   -8.3767E-01    0.0000E+00  setid=       0
 node=   267 local x,y,z moments=   -1.4028E-04    0.0000E+00    4.3568E-05  setid=       0
[...]
 node=   603 local x,y,z forces =    0.0000E+00   -1.8893E+01    0.0000E+00  setid=       0
 node=   603 local x,y,z moments=   -1.8664E-03    0.0000E+00    1.6595E-03  setid=       0
 node=   604 local x,y,z forces =    0.0000E+00   -2.1561E+01    0.0000E+00  setid=       0
 node=   604 local x,y,z moments=   -2.2883E-03    0.0000E+00   -3.4235E-04  setid=       0
 node=   605 local x,y,z forces =    0.0000E+00   -9.5082E+00    0.0000E+00  setid=       0
 node=   605 local x,y,z moments=   -5.8538E-03    0.0000E+00   -1.5262E-02  setid=       0
 node=   606 local x,y,z forces =    0.0000E+00    1.6243E+01    0.0000E+00  setid=       0
 node=   606 local x,y,z moments=    3.3798E-04    0.0000E+00   -3.8542E-02  setid=       0
 node=   607 local x,y,z forces =    0.0000E+00    2.9570E+01    0.0000E+00  setid=       0
 node=   607 local x,y,z moments=   -2.2343E-02    0.0000E+00   -6.2114E-02  setid=       0
 node=   608 local x,y,z forces =    0.0000E+00   -2.4864E+01    0.0000E+00  setid=       0
 node=   608 local x,y,z moments=    4.8943E-02   -3.3317E-03   -1.2335E-02  setid=       0
 node=   609 local x,y,z forces =    0.0000E+00   -7.3234E+01    0.0000E+00  setid=       0
 node=   609 local x,y,z moments=    5.8224E-02   -1.8582E-02    3.9942E-03  setid=       0
 node=   610 local x,y,z forces =    0.0000E+00   -6.0441E+01    0.0000E+00  setid=       0
 node=   610 local x,y,z moments=    2.9630E-02   -1.1369E-02    4.9666E-03  setid=       0
 node=   611 local x,y,z forces =    0.0000E+00   -5.2165E+01    0.0000E+00  setid=       0
 node=   611 local x,y,z moments=    8.9540E-03   -1.2691E-02    1.2577E-03  setid=       0
 node=   612 local x,y,z forces =    0.0000E+00   -1.3250E+00    0.0000E+00  setid=       0
 node=   612 local x,y,z moments=   -1.2240E-03    0.0000E+00    4.8919E-04  setid=       0
 node=   613 local x,y,z forces =    0.0000E+00   -1.2878E+00    0.0000E+00  setid=       0
 node=   613 local x,y,z moments=   -2.0920E-04    0.0000E+00   -4.8159E-04  setid=       0
 node=   614 local x,y,z forces =    0.0000E+00   -6.2921E-01    0.0000E+00  setid=       0
 node=   614 local x,y,z moments=    7.7796E-04    0.0000E+00   -8.7038E-04  setid=       0
 node=   615 local x,y,z forces =    0.0000E+00   -3.3211E+00    0.0000E+00  setid=       0
 node=   615 local x,y,z moments=    1.1008E-03    0.0000E+00    1.1556E-03  setid=       0
 node=   616 local x,y,z forces =    0.0000E+00   -4.4719E+00    0.0000E+00  setid=       0
 node=   616 local x,y,z moments=    6.7188E-04    0.0000E+00    8.4082E-04  setid=       0
 node=   617 local x,y,z forces =    0.0000E+00   -5.7779E+00    0.0000E+00  setid=       0
 node=   617 local x,y,z moments=    1.3844E-03    0.0000E+00    6.2942E-04  setid=       0
 node=   618 local x,y,z forces =    0.0000E+00   -5.2040E+00    0.0000E+00  setid=       0
 node=   618 local x,y,z moments=    1.5903E-03    0.0000E+00    1.3510E-03  setid=       0
 node=   619 local x,y,z forces =    0.0000E+00   -6.0466E+00    0.0000E+00  setid=       0
 node=   619 local x,y,z moments=    1.9921E-03    0.0000E+00    2.0017E-03  setid=       0
 node=   620 local x,y,z forces =    0.0000E+00   -4.6186E+00    0.0000E+00  setid=       0
 node=   620 local x,y,z moments=    1.3514E-03    0.0000E+00    1.1368E-03  setid=       0
 node=   621 local x,y,z forces =    0.0000E+00   -5.4643E+00    0.0000E+00  setid=       0
 node=   621 local x,y,z moments=    1.3447E-03    0.0000E+00    1.0183E-03  setid=       0
 node=   622 local x,y,z forces =    0.0000E+00   -7.7701E+00    0.0000E+00  setid=       0
 node=   622 local x,y,z moments=    2.0389E-03    0.0000E+00    1.5839E-03  setid=       0
 node=   623 local x,y,z forces =    0.0000E+00   -7.5127E+00    0.0000E+00  setid=       0
 node=   623 local x,y,z moments=    3.1297E-03    0.0000E+00    2.0682E-03  setid=       0
 node=   624 local x,y,z forces =    0.0000E+00   -9.9998E-01    0.0000E+00  setid=       0
 node=   624 local x,y,z moments=    2.4277E-04    0.0000E+00   -8.3106E-05  setid=       0
 node=   625 local x,y,z forces =    0.0000E+00   -1.7809E+00    0.0000E+00  setid=       0
 node=   625 local x,y,z moments=    7.1493E-04    0.0000E+00    3.2256E-04  setid=       0
 node=   626 local x,y,z forces =    0.0000E+00   -3.1490E+00    0.0000E+00  setid=       0
 node=   626 local x,y,z moments=    8.5396E-04    0.0000E+00    7.1232E-04  setid=       0
 node=   627 local x,y,z forces =    0.0000E+00   -5.4530E-01    0.0000E+00  setid=       0
 node=   627 local x,y,z moments=    4.7748E-04    0.0000E+00    4.9326E-04  setid=       0
 node=   628 local x,y,z forces =    0.0000E+00   -3.1119E-01    0.0000E+00  setid=       0
 node=   628 local x,y,z moments=   -3.8153E-04    0.0000E+00    3.3233E-04  setid=       0
 node=   629 local x,y,z forces =    0.0000E+00   -1.7262E+00    0.0000E+00  setid=       0
 node=   629 local x,y,z moments=    1.0948E-03    0.0000E+00    8.6676E-04  setid=       0
 node=   630 local x,y,z forces =    0.0000E+00   -2.0814E+00    0.0000E+00  setid=       0
 node=   630 local x,y,z moments=    1.3911E-03    0.0000E+00   -2.9331E-05  setid=       0
 node=   631 local x,y,z forces =    0.0000E+00   -9.1674E-01    0.0000E+00  setid=       0
 node=   631 local x,y,z moments=    1.1218E-03    0.0000E+00   -4.1374E-04  setid=       0
 node=   632 local x,y,z forces =    0.0000E+00   -3.8025E+00    0.0000E+00  setid=       0
 node=   632 local x,y,z moments=    1.6681E-03    0.0000E+00    5.1804E-04  setid=       0
 node=   633 local x,y,z forces =    0.0000E+00   -1.4844E+01    0.0000E+00  setid=       0
 node=   633 local x,y,z moments=   -8.1745E-03    0.0000E+00    5.0745E-03  setid=       0
 node=   634 local x,y,z forces =    0.0000E+00   -1.6645E+01    0.0000E+00  setid=       0
 node=   634 local x,y,z moments=   -5.5894E-03    0.0000E+00   -9.1305E-04  setid=       0
 node=   635 local x,y,z forces =    0.0000E+00   -1.1994E+01    0.0000E+00  setid=       0
 node=   635 local x,y,z moments=   -3.6855E-03    0.0000E+00   -1.2730E-03  setid=       0
 node=   636 local x,y,z forces =    0.0000E+00   -9.3168E+00    0.0000E+00  setid=       0
 node=   636 local x,y,z moments=   -3.0434E-03    0.0000E+00   -1.2424E-03  setid=       0
 node=   637 local x,y,z forces =    0.0000E+00   -3.5570E+00    0.0000E+00  setid=       0
 node=   637 local x,y,z moments=   -1.4082E-03    0.0000E+00   -8.6604E-04  setid=       0
 node=   638 local x,y,z forces =    0.0000E+00   -1.0151E+01    0.0000E+00  setid=       0
 node=   638 local x,y,z moments=   -5.1353E-03    0.0000E+00    2.1064E-03  setid=       0
 node=   639 local x,y,z forces =    0.0000E+00   -4.2767E+00    0.0000E+00  setid=       0
 node=   639 local x,y,z moments=   -2.8773E-03    0.0000E+00    1.0483E-03  setid=       0
 node=   640 local x,y,z forces =    0.0000E+00   -6.3905E+00    0.0000E+00  setid=       0
 node=   640 local x,y,z moments=   -1.5170E-03    0.0000E+00   -1.8508E-03  setid=       0
 node=   641 local x,y,z forces =    0.0000E+00   -2.0902E+00    0.0000E+00  setid=       0
 node=   641 local x,y,z moments=   -2.3039E-04    0.0000E+00   -1.4387E-03  setid=       0
 node=   642 local x,y,z forces =    0.0000E+00    5.6027E+01    0.0000E+00  setid=       0
 node=   642 local x,y,z moments=    1.2019E-02    0.0000E+00    1.0138E-02  setid=       0
 node=   643 local x,y,z forces =    0.0000E+00    6.6771E+01    0.0000E+00  setid=       0
 node=   643 local x,y,z moments=    5.4034E-03    0.0000E+00    6.6905E-03  setid=       0
 node=   644 local x,y,z forces =    0.0000E+00   -5.4110E+00    0.0000E+00  setid=       0
 node=   644 local x,y,z moments=   -6.3728E-03    0.0000E+00    1.5685E-03  setid=       0
 node=   645 local x,y,z forces =    0.0000E+00    9.3287E+01    0.0000E+00  setid=       0
 node=   645 local x,y,z moments=    1.6438E-03    0.0000E+00    1.4297E-02  setid=       0
 node=   646 local x,y,z forces =    0.0000E+00    8.3232E+01    0.0000E+00  setid=       0
 node=   646 local x,y,z moments=   -3.7032E-03    0.0000E+00    2.1571E-02  setid=       0
 node=   647 local x,y,z forces =    0.0000E+00    1.6566E+01    0.0000E+00  setid=       0
 node=   647 local x,y,z moments=   -1.2502E-02    0.0000E+00    1.3612E-02  setid=       0
 node=   648 local x,y,z forces =    0.0000E+00    5.0727E+01    0.0000E+00  setid=       0
 node=   648 local x,y,z moments=    5.8939E-03    0.0000E+00    2.4557E-03  setid=       0
 node=   649 local x,y,z forces =    0.0000E+00    3.9231E+01    0.0000E+00  setid=       0
 node=   649 local x,y,z moments=    2.0675E-02    0.0000E+00    4.1424E-03  setid=       0
 node=   650 local x,y,z forces =    0.0000E+00   -4.8893E+00    0.0000E+00  setid=       0
 node=   650 local x,y,z moments=   -1.7502E-03    0.0000E+00   -3.8711E-04  setid=       0
 node=   657 local x,y,z forces =   -8.0795E+00    0.0000E+00    0.0000E+00  setid=       0
 node=   657 local x,y,z moments=    0.0000E+00    5.6795E-03   -2.5378E-03  setid=       0
 node=   658 local x,y,z forces =   -1.2048E+01    0.0000E+00    0.0000E+00  setid=       0
 node=   658 local x,y,z moments=    0.0000E+00    4.8648E-03    4.0978E-04  setid=       0
 node=   671 local x,y,z forces =    3.5870E-01    0.0000E+00    0.0000E+00  setid=       0
 node=   671 local x,y,z moments=    0.0000E+00    5.0590E-03   -5.7755E-04  setid=       0
 node=   672 local x,y,z forces =   -4.6786E-01    0.0000E+00    0.0000E+00  setid=       0
 node=   672 local x,y,z moments=    0.0000E+00    4.7428E-03    7.0228E-05  setid=       0
 node=   673 local x,y,z forces =   -4.3293E+00    0.0000E+00    0.0000E+00  setid=       0
 node=   673 local x,y,z moments=    0.0000E+00    4.8270E-03    6.9329E-04  setid=       0
 node=   674 local x,y,z forces =   -5.3449E+00    0.0000E+00    0.0000E+00  setid=       0
 node=   674 local x,y,z moments=    0.0000E+00    9.2575E-03   -2.1961E-03  setid=       0
 node=   681 local x,y,z forces =   -2.9020E+00    0.0000E+00    0.0000E+00  setid=       0
 node=   681 local x,y,z moments=    0.0000E+00    1.0478E-03    1.1974E-03  setid=       0
 node=   682 local x,y,z forces =   -1.8203E+00    0.0000E+00    0.0000E+00  setid=       0
 node=   682 local x,y,z moments=    0.0000E+00    1.3012E-03    1.0685E-03  setid=       0
 node=   695 local x,y,z forces =    7.9114E-01    0.0000E+00    0.0000E+00  setid=       0
 node=   695 local x,y,z moments=    0.0000E+00    5.0074E-03    1.4705E-03  setid=       0
 node=   696 local x,y,z forces =   -2.5474E-01    0.0000E+00    0.0000E+00  setid=       0
 node=   696 local x,y,z moments=    0.0000E+00    2.7784E-03    8.0850E-04  setid=       0
 node=   697 local x,y,z forces =    6.9009E-01    0.0000E+00    0.0000E+00  setid=       0
 node=   697 local x,y,z moments=    0.0000E+00    3.3007E-03    3.4781E-04  setid=       0
 node=   698 local x,y,z forces =    1.3914E+00    0.0000E+00    0.0000E+00  setid=       0
 node=   698 local x,y,z moments=    0.0000E+00    6.1721E-03    8.0041E-04  setid=       0
 node=   711 local x,y,z forces =   -6.2562E+00    0.0000E+00    0.0000E+00  setid=       0
 node=   711 local x,y,z moments=    0.0000E+00    7.2296E-04    5.4798E-04  setid=       0
 node=   712 local x,y,z forces =   -3.5722E+00    0.0000E+00    0.0000E+00  setid=       0
 node=   712 local x,y,z moments=    0.0000E+00    5.8416E-04    4.9739E-04  setid=       0
 node=   713 local x,y,z forces =   -5.8872E+00    0.0000E+00    0.0000E+00  setid=       0
 node=   713 local x,y,z moments=    0.0000E+00    5.5248E-04    2.0596E-04  setid=       0
 node=   714 local x,y,z forces =   -9.0392E+00    0.0000E+00    0.0000E+00  setid=       0
 node=   714 local x,y,z moments=    0.0000E+00    1.2245E-03   -1.7993E-04  setid=       0
 node=   721 local x,y,z forces =   -1.1728E+01    0.0000E+00    0.0000E+00  setid=       0
 node=   721 local x,y,z moments=    0.0000E+00    7.2874E-04    5.6624E-04  setid=       0
 node=   722 local x,y,z forces =   -1.7692E+01    0.0000E+00    0.0000E+00  setid=       0
 node=   722 local x,y,z moments=    0.0000E+00    1.9276E-03   -3.9050E-04  setid=       0
 node=   735 local x,y,z forces =    5.4923E-01    0.0000E+00    0.0000E+00  setid=       0
 node=   735 local x,y,z moments=    0.0000E+00    5.3888E-04    3.6486E-04  setid=       0
 node=   736 local x,y,z forces =   -1.7768E+00    0.0000E+00    0.0000E+00  setid=       0
 node=   736 local x,y,z moments=    0.0000E+00    1.0468E-03    6.9647E-04  setid=       0
 node=   737 local x,y,z forces =   -6.1905E-01    0.0000E+00    0.0000E+00  setid=       0
 node=   737 local x,y,z moments=    0.0000E+00    1.6215E-03    9.0332E-04  setid=       0
 node=   738 local x,y,z forces =    1.1318E+00    0.0000E+00    0.0000E+00  setid=       0
 node=   738 local x,y,z moments=    0.0000E+00    1.2332E-03    7.2450E-04  setid=       0
 node=   745 local x,y,z forces =   -2.7664E-01    0.0000E+00    0.0000E+00  setid=       0
 node=   745 local x,y,z moments=    0.0000E+00    6.5815E-05    2.6275E-05  setid=       0
 node=   746 local x,y,z forces =   -1.3524E+00    0.0000E+00    0.0000E+00  setid=       0
 node=   746 local x,y,z moments=    0.0000E+00    2.1074E-04   -3.5818E-04  setid=       0
 node=   753 local x,y,z forces =    4.0800E-01    0.0000E+00    0.0000E+00  setid=       0
 node=   753 local x,y,z moments=    0.0000E+00    4.0453E-03    1.3827E-03  setid=       0
 node=   754 local x,y,z forces =   -9.5742E-01    0.0000E+00    0.0000E+00  setid=       0
 node=   754 local x,y,z moments=    0.0000E+00    2.5865E-03    1.0322E-03  setid=       0
 node=   761 local x,y,z forces =   -3.6152E+00    0.0000E+00    0.0000E+00  setid=       0
 node=   761 local x,y,z moments=    0.0000E+00    4.2471E-04   -1.9111E-03  setid=       0
 node=   762 local x,y,z forces =   -9.0187E+00    0.0000E+00    0.0000E+00  setid=       0
 node=   762 local x,y,z moments=    0.0000E+00    2.3804E-03    7.8670E-04  setid=       0
 node=   769 local x,y,z forces =   -4.1114E+00    0.0000E+00    0.0000E+00  setid=       0
 node=   769 local x,y,z moments=    0.0000E+00    9.8198E-04    8.4827E-04  setid=       0
 node=   770 local x,y,z forces =   -2.5217E+00    0.0000E+00    0.0000E+00  setid=       0
 node=   770 local x,y,z moments=    0.0000E+00    1.4175E-03    1.0405E-03  setid=       0
 node=   780 local x,y,z forces =   -4.4916E+00    0.0000E+00    0.0000E+00  setid=       0
 node=   780 local x,y,z moments=    0.0000E+00    1.2313E-02   -9.2515E-03  setid=       0
 node=   781 local x,y,z forces =   -4.1689E-01    0.0000E+00    0.0000E+00  setid=       0
 node=   781 local x,y,z moments=    0.0000E+00    1.4699E-03   -2.0942E-03  setid=       0
 node=   782 local x,y,z forces =    9.1327E-01    0.0000E+00    0.0000E+00  setid=       0
 node=   782 local x,y,z moments=    0.0000E+00   -7.8032E-03   -1.1134E-02  setid=       0
 node=   795 local x,y,z forces =   -7.9628E+00    0.0000E+00    0.0000E+00  setid=       0
 node=   795 local x,y,z moments=    0.0000E+00    1.3635E-03    4.0844E-04  setid=       0
 node=   796 local x,y,z forces =   -2.7288E+00    0.0000E+00    0.0000E+00  setid=       0
 node=   796 local x,y,z moments=    0.0000E+00    1.1776E-03   -6.9901E-04  setid=       0
 node=   797 local x,y,z forces =   -1.4160E+00    0.0000E+00    0.0000E+00  setid=       0
 node=   797 local x,y,z moments=    0.0000E+00    5.9401E-04   -1.4487E-03  setid=       0
 node=   798 local x,y,z forces =   -2.8960E+00    0.0000E+00    0.0000E+00  setid=       0
 node=   798 local x,y,z moments=    0.0000E+00   -8.8821E-05   -1.8070E-03  setid=       0
 node=   802 local x,y,z forces =   -4.1060E-01    0.0000E+00    0.0000E+00  setid=       0
 node=   802 local x,y,z moments=    0.0000E+00    1.9906E-03    9.9002E-04  setid=       0
 node=   809 local x,y,z forces =   -6.4770E+00    0.0000E+00    0.0000E+00  setid=       0
 node=   809 local x,y,z moments=    0.0000E+00   -1.4280E-02   -1.2819E-03  setid=       0
 node=   810 local x,y,z forces =    2.9304E+01    0.0000E+00    0.0000E+00  setid=       0
 node=   810 local x,y,z moments=   -1.3791E-02   -3.4689E-02   -1.0791E-03  setid=       0
 node=   814 local x,y,z forces =   -1.7528E+00    0.0000E+00    0.0000E+00  setid=       0
 node=   814 local x,y,z moments=    0.0000E+00    5.0701E-04    4.0526E-03  setid=       0
 node=   824 local x,y,z forces =    6.5658E+00    0.0000E+00    0.0000E+00  setid=       0
 node=   824 local x,y,z moments=    0.0000E+00    1.6618E-02    4.8357E-03  setid=       0
 node=   825 local x,y,z forces =    1.3080E+00    0.0000E+00    0.0000E+00  setid=       0
 node=   825 local x,y,z moments=    0.0000E+00    7.5399E-03   -1.8269E-03  setid=       0
 node=   826 local x,y,z forces =    5.3507E+00    0.0000E+00    0.0000E+00  setid=       0
 node=   826 local x,y,z moments=    0.0000E+00    2.4761E-02    1.1863E-02  setid=       0
 node=   833 local x,y,z forces =    2.5360E-01    0.0000E+00    0.0000E+00  setid=       0
 node=   833 local x,y,z moments=    0.0000E+00    2.2030E-03    1.1769E-03  setid=       0
 node=   834 local x,y,z forces =   -1.3707E+00    0.0000E+00    0.0000E+00  setid=       0
 node=   834 local x,y,z moments=    0.0000E+00    1.8663E-03    1.1216E-03  setid=       0
 node=   838 local x,y,z forces =   -8.3181E+00    0.0000E+00    0.0000E+00  setid=       0
 node=   838 local x,y,z moments=    0.0000E+00    2.2049E-04    1.0506E-03  setid=       0
 node=   842 local x,y,z forces =   -5.7164E+00    0.0000E+00    0.0000E+00  setid=       0
 node=   842 local x,y,z moments=    0.0000E+00    2.5477E-04    1.3337E-03  setid=       0
 node=   849 local x,y,z forces =    2.0395E+00    0.0000E+00    0.0000E+00  setid=       0
 node=   849 local x,y,z moments=    0.0000E+00    6.3639E-03    1.8578E-03  setid=       0
 node=   850 local x,y,z forces =    3.7536E+00    0.0000E+00    0.0000E+00  setid=       0
 node=   850 local x,y,z moments=    0.0000E+00    1.0804E-02    2.9050E-03  setid=       0
 node=   857 local x,y,z forces =   -5.6089E+00    0.0000E+00    0.0000E+00  setid=       0
 node=   857 local x,y,z moments=    0.0000E+00   -9.7340E-03   -5.9204E-03  setid=       0
 node=   858 local x,y,z forces =    3.2232E+01    0.0000E+00    0.0000E+00  setid=       0
 node=   858 local x,y,z moments=   -2.1413E-02   -6.0304E-02   -2.1100E-03  setid=       0
 node=   862 local x,y,z forces =    1.3334E+00    0.0000E+00    0.0000E+00  setid=       0
 node=   862 local x,y,z moments=    0.0000E+00    1.8809E-03    1.0049E-03  setid=       0
 node=   869 local x,y,z forces =    1.7254E+00    0.0000E+00    0.0000E+00  setid=       0
 node=   869 local x,y,z moments=    0.0000E+00   -1.9209E-02   -3.4255E-03  setid=       0
 node=   870 local x,y,z forces =    3.1654E+01    0.0000E+00    0.0000E+00  setid=       0
 node=   870 local x,y,z moments=   -1.7472E-02   -8.2248E-02    1.0578E-02  setid=       0
 node=   874 local x,y,z forces =   -3.9988E+00    0.0000E+00    0.0000E+00  setid=       0
 node=   874 local x,y,z moments=    0.0000E+00    6.9454E-04    1.1908E-03  setid=       0
 node=   878 local x,y,z forces =    1.4945E+00    0.0000E+00    0.0000E+00  setid=       0
 node=   878 local x,y,z moments=    0.0000E+00    4.0135E-03    1.3045E-03  setid=       0
 node=   885 local x,y,z forces =   -2.6046E+01    0.0000E+00    0.0000E+00  setid=       0
 node=   885 local x,y,z moments=    0.0000E+00   -1.4495E-03    2.6847E-02  setid=       0
 node=   886 local x,y,z forces =   -7.2299E+00    0.0000E+00    0.0000E+00  setid=       0
 node=   886 local x,y,z moments=   -1.5286E-02   -2.8125E-02    8.0686E-03  setid=       0
 node=   890 local x,y,z forces =   -8.2013E+00    0.0000E+00    0.0000E+00  setid=       0
 node=   890 local x,y,z moments=    0.0000E+00   -1.0611E-02    1.8037E-02  setid=       0
             force resultants   =    8.2810E+01    1.1345E+02    1.0993E+02
