 LS-DYNA keyword deck by LS-PrePost                                      
                    ls-dyna smp d R14 R14.1.1s_1_ef50e1 date 06/16/2024

 n o d a l   f o r c e/e n e r g y    o u t p u t  t=   0.00000E+00

 velocity boundary condition forces/rigid body moments 

 nd#     354  xforce=   0.0000E+00   yforce=   0.0000E+00  zforce=   0.0000E+00   energy=   0.0000E+00   setid =     354 xmoment=   0.0000E+00 ymoment=   0.0000E+00 zmoment=   0.0000E+00
 nd#     355  xforce=   0.0000E+00   yforce=   0.0000E+00  zforce=   0.0000E+00   energy=   0.0000E+00   setid =     355 xmoment=   0.0000E+00 ymoment=   0.0000E+00 zmoment=   0.0000E+00
 nd#     356  xforce=   0.0000E+00   yforce=   0.0000E+00  zforce=   0.0000E+00   energy=   0.0000E+00   setid =     356 xmoment=   0.0000E+00 ymoment=   0.0000E+00 zmoment=   0.0000E+00
 nd#     357  xforce=   0.0000E+00   yforce=   0.0000E+00  zforce=   0.0000E+00   energy=   0.0000E+00   setid =     357 xmoment=   0.0000E+00 ymoment=   0.0000E+00 zmoment=   0.0000E+00
 nd#     403  xforce=   0.0000E+00   yforce=   0.0000E+00  zforce=   0.0000E+00   energy=   0.0000E+00   setid =     403 xmoment=   0.0000E+00 ymoment=   0.0000E+00 zmoment=   0.0000E+00
 nd#     404  xforce=   0.0000E+00   yforce=   0.0000E+00  zforce=   0.0000E+00   energy=   0.0000E+00   setid =     404 xmoment=   0.0000E+00 ymoment=   0.0000E+00 zmoment=   0.0000E+00
 nd#     405  xforce=   0.0000E+00   yforce=   0.0000E+00  zforce=   0.0000E+00   energy=   0.0000E+00   setid =     405 xmoment=   0.0000E+00 ymoment=   0.0000E+00 zmoment=   0.0000E+00
 nd#     466  xforce=   0.0000E+00   yforce=   0.0000E+00  zforce=   0.0000E+00   energy=   0.0000E+00   setid =     466 xmoment=   0.0000E+00 ymoment=   0.0000E+00 zmoment=   0.0000E+00
 nd#     467  xforce=   0.0000E+00   yforce=   0.0000E+00  zforce=   0.0000E+00   energy=   0.0000E+00   setid =     467 xmoment=   0.0000E+00 ymoment=   0.0000E+00 zmoment=   0.0000E+00
 nd#     468  xforce=   0.0000E+00   yforce=   0.0000E+00  zforce=   0.0000E+00   energy=   0.0000E+00   setid =     468 xmoment=   0.0000E+00 ymoment=   0.0000E+00 zmoment=   0.0000E+00
 nd#     469  xforce=   0.0000E+00   yforce=   0.0000E+00  zforce=   0.0000E+00   energy=   0.0000E+00   setid =     469 xmoment=   0.0000E+00 ymoment=   0.0000E+00 zmoment=   0.0000E+00
 nd#     530  xforce=   0.0000E+00   yforce=   0.0000E+00  zforce=   0.0000E+00   energy=   0.0000E+00   setid =     530 xmoment=   0.0000E+00 ymoment=   0.0000E+00 zmoment=   0.0000E+00
 nd#     531  xforce=   0.0000E+00   yforce=   0.0000E+00  zforce=   0.0000E+00   energy=   0.0000E+00   setid =     531 xmoment=   0.0000E+00 ymoment=   0.0000E+00 zmoment=   0.0000E+00
 nd#     532  xforce=   0.0000E+00   yforce=   0.0000E+00  zforce=   0.0000E+00   energy=   0.0000E+00   setid =     532 xmoment=   0.0000E+00 ymoment=   0.0000E+00 zmoment=   0.0000E+00
 nd#     533  xforce=   0.0000E+00   yforce=   0.0000E+00  zforce=   0.0000E+00   energy=   0.0000E+00   setid =     533 xmoment=   0.0000E+00 ymoment=   0.0000E+00 zmoment=   0.0000E+00
 nd#     549  xforce=   0.0000E+00   yforce=   0.0000E+00  zforce=   0.0000E+00   energy=   0.0000E+00   setid =     549 xmoment=   0.0000E+00 ymoment=   0.0000E+00 zmoment=   0.0000E+00
 nd#     610  xforce=   0.0000E+00   yforce=   0.0000E+00  zforce=   0.0000E+00   energy=   0.0000E+00   setid =     610 xmoment=   0.0000E+00 ymoment=   0.0000E+00 zmoment=   0.0000E+00
 nd#     611  xforce=   0.0000E+00   yforce=   0.0000E+00  zforce=   0.0000E+00   energy=   0.0000E+00   setid =     611 xmoment=   0.0000E+00 ymoment=   0.0000E+00 zmoment=   0.0000E+00
 nd#     612  xforce=   0.0000E+00   yforce=   0.0000E+00  zforce=   0.0000E+00   energy=   0.0000E+00   setid =     612 xmoment=   0.0000E+00 ymoment=   0.0000E+00 zmoment=   0.0000E+00
 nd#     613  xforce=   0.0000E+00   yforce=   0.0000E+00  zforce=   0.0000E+00   energy=   0.0000E+00   setid =     613 xmoment=   0.0000E+00 ymoment=   0.0000E+00 zmoment=   0.0000E+00
 nd#     629  xforce=   0.0000E+00   yforce=   0.0000E+00  zforce=   0.0000E+00   energy=   0.0000E+00   setid =     629 xmoment=   0.0000E+00 ymoment=   0.0000E+00 zmoment=   0.0000E+00
 nd#     660  xforce=   0.0000E+00   yforce=   0.0000E+00  zforce=   0.0000E+00   energy=   0.0000E+00   setid =     660 xmoment=   0.0000E+00 ymoment=   0.0000E+00 zmoment=   0.0000E+00
 nd#     661  xforce=   0.0000E+00   yforce=   0.0000E+00  zforce=   0.0000E+00   energy=   0.0000E+00   setid =     661 xmoment=   0.0000E+00 ymoment=   0.0000E+00 zmoment=   0.0000E+00
 nd#     692  xforce=   0.0000E+00   yforce=   0.0000E+00  zforce=   0.0000E+00   energy=   0.0000E+00   setid =     692 xmoment=   0.0000E+00 ymoment=   0.0000E+00 zmoment=   0.0000E+00
 nd#     693  xforce=   0.0000E+00   yforce=   0.0000E+00  zforce=   0.0000E+00   energy=   0.0000E+00   setid =     693 xmoment=   0.0000E+00 ymoment=   0.0000E+00 zmoment=   0.0000E+00
 nd#     724  xforce=   0.0000E+00   yforce=   0.0000E+00  zforce=   0.0000E+00   energy=   0.0000E+00   setid =     724 xmoment=   0.0000E+00 ymoment=   0.0000E+00 zmoment=   0.0000E+00
 nd#     725  xforce=   0.0000E+00   yforce=   0.0000E+00  zforce=   0.0000E+00   energy=   0.0000E+00   setid =     725 xmoment=   0.0000E+00 ymoment=   0.0000E+00 zmoment=   0.0000E+00
 nd#     771  xforce=   0.0000E+00   yforce=   0.0000E+00  zforce=   0.0000E+00   energy=   0.0000E+00   setid =     771 xmoment=   0.0000E+00 ymoment=   0.0000E+00 zmoment=   0.0000E+00
 nd#     772  xforce=   0.0000E+00   yforce=   0.0000E+00  zforce=   0.0000E+00   energy=   0.0000E+00   setid =     772 xmoment=   0.0000E+00 ymoment=   0.0000E+00 zmoment=   0.0000E+00
 nd#     773  xforce=   0.0000E+00   yforce=   0.0000E+00  zforce=   0.0000E+00   energy=   0.0000E+00   setid =     773 xmoment=   0.0000E+00 ymoment=   0.0000E+00 zmoment=   0.0000E+00
 nd#     804  xforce=   0.0000E+00   yforce=   0.0000E+00  zforce=   0.0000E+00   energy=   0.0000E+00   setid =     804 xmoment=   0.0000E+00 ymoment=   0.0000E+00 zmoment=   0.0000E+00
 nd#     805  xforce=   0.0000E+00   yforce=   0.0000E+00  zforce=   0.0000E+00   energy=   0.0000E+00   setid =     805 xmoment=   0.0000E+00 ymoment=   0.0000E+00 zmoment=   0.0000E+00
 nd#     821  xforce=   0.0000E+00   yforce=   0.0000E+00  zforce=   0.0000E+00   energy=   0.0000E+00   setid =     821 xmoment=   0.0000E+00 ymoment=   0.0000E+00 zmoment=   0.0000E+00
 nd#     852  xforce=   0.0000E+00   yforce=   0.0000E+00  zforce=   0.0000E+00   energy=   0.0000E+00   setid =     852 xmoment=   0.0000E+00 ymoment=   0.0000E+00 zmoment=   0.0000E+00
 nd#     853  xforce=   0.0000E+00   yforce=   0.0000E+00  zforce=   0.0000E+00   energy=   0.0000E+00   setid =     853 xmoment=   0.0000E+00 ymoment=   0.0000E+00 zmoment=   0.0000E+00
 nd#     869  xforce=   0.0000E+00   yforce=   0.0000E+00  zforce=   0.0000E+00   energy=   0.0000E+00   setid =     869 xmoment=   0.0000E+00 ymoment=   0.0000E+00 zmoment=   0.0000E+00
 nd#     885  xforce=   0.0000E+00   yforce=   0.0000E+00  zforce=   0.0000E+00   energy=   0.0000E+00   setid =     885 xmoment=   0.0000E+00 ymoment=   0.0000E+00 zmoment=   0.0000E+00
 nd#    1082  xforce=   0.0000E+00   yforce=   0.0000E+00  zforce=   0.0000E+00   energy=   0.0000E+00   setid =    1082 xmoment=   0.0000E+00 ymoment=   0.0000E+00 zmoment=   0.0000E+00
 nd#    1083  xforce=   0.0000E+00   yforce=   0.0000E+00  zforce=   0.0000E+00   energy=   0.0000E+00   setid =    1083 xmoment=   0.0000E+00 ymoment=   0.0000E+00 zmoment=   0.0000E+00
 nd#    1084  xforce=   0.0000E+00   yforce=   0.0000E+00  zforce=   0.0000E+00   energy=   0.0000E+00   setid =    1084 xmoment=   0.0000E+00 ymoment=   0.0000E+00 zmoment=   0.0000E+00
 nd#    1085  xforce=   0.0000E+00   yforce=   0.0000E+00  zforce=   0.0000E+00   energy=   0.0000E+00   setid =    1085 xmoment=   0.0000E+00 ymoment=   0.0000E+00 zmoment=   0.0000E+00
 nd#    1086  xforce=   0.0000E+00   yforce=   0.0000E+00  zforce=   0.0000E+00   energy=   0.0000E+00   setid =    1086 xmoment=   0.0000E+00 ymoment=   0.0000E+00 zmoment=   0.0000E+00
 nd#    1087  xforce=   0.0000E+00   yforce=   0.0000E+00  zforce=   0.0000E+00   energy=   0.0000E+00   setid =    1087 xmoment=   0.0000E+00 ymoment=   0.0000E+00 zmoment=   0.0000E+00
 nd#    1649  xforce=   0.0000E+00   yforce=   0.0000E+00  zforce=   0.0000E+00   energy=   0.0000E+00   setid =    1649 xmoment=   0.0000E+00 ymoment=   0.0000E+00 zmoment=   0.0000E+00
 nd#    1651  xforce=   0.0000E+00   yforce=   0.0000E+00  zforce=   0.0000E+00   energy=   0.0000E+00   setid =    1651 xmoment=   0.0000E+00 ymoment=   0.0000E+00 zmoment=   0.0000E+00
 nd#    1653  xforce=   0.0000E+00   yforce=   0.0000E+00  zforce=   0.0000E+00   energy=   0.0000E+00   setid =    1653 xmoment=   0.0000E+00 ymoment=   0.0000E+00 zmoment=   0.0000E+00
 nd#    1655  xforce=   0.0000E+00   yforce=   0.0000E+00  zforce=   0.0000E+00   energy=   0.0000E+00   setid =    1655 xmoment=   0.0000E+00 ymoment=   0.0000E+00 zmoment=   0.0000E+00
 nd#    1657  xforce=   0.0000E+00   yforce=   0.0000E+00  zforce=   0.0000E+00   energy=   0.0000E+00   setid =    1657 xmoment=   0.0000E+00 ymoment=   0.0000E+00 zmoment=   0.0000E+00
 nd#    1659  xforce=   0.0000E+00   yforce=   0.0000E+00  zforce=   0.0000E+00   energy=   0.0000E+00   setid =    1659 xmoment=   0.0000E+00 ymoment=   0.0000E+00 zmoment=   0.0000E+00
 nd#    1733  xforce=   0.0000E+00   yforce=   0.0000E+00  zforce=   0.0000E+00   energy=   0.0000E+00   setid =    1733 xmoment=   0.0000E+00 ymoment=   0.0000E+00 zmoment=   0.0000E+00
 nd#    1734  xforce=   0.0000E+00   yforce=   0.0000E+00  zforce=   0.0000E+00   energy=   0.0000E+00   setid =    1734 xmoment=   0.0000E+00 ymoment=   0.0000E+00 zmoment=   0.0000E+00
 nd#    1735  xforce=   0.0000E+00   yforce=   0.0000E+00  zforce=   0.0000E+00   energy=   0.0000E+00   setid =    1735 xmoment=   0.0000E+00 ymoment=   0.0000E+00 zmoment=   0.0000E+00
 nd#    1736  xforce=   0.0000E+00   yforce=   0.0000E+00  zforce=   0.0000E+00   energy=   0.0000E+00   setid =    1736 xmoment=   0.0000E+00 ymoment=   0.0000E+00 zmoment=   0.0000E+00
 nd#    1737  xforce=   0.0000E+00   yforce=   0.0000E+00  zforce=   0.0000E+00   energy=   0.0000E+00   setid =    1737 xmoment=   0.0000E+00 ymoment=   0.0000E+00 zmoment=   0.0000E+00
 nd#    1738  xforce=   0.0000E+00   yforce=   0.0000E+00  zforce=   0.0000E+00   energy=   0.0000E+00   setid =    1738 xmoment=   0.0000E+00 ymoment=   0.0000E+00 zmoment=   0.0000E+00
 nd#    1739  xforce=   0.0000E+00   yforce=   0.0000E+00  zforce=   0.0000E+00   energy=   0.0000E+00   setid =    1739 xmoment=   0.0000E+00 ymoment=   0.0000E+00 zmoment=   0.0000E+00
 nd#    1740  xforce=   0.0000E+00   yforce=   0.0000E+00  zforce=   0.0000E+00   energy=   0.0000E+00   setid =    1740 xmoment=   0.0000E+00 ymoment=   0.0000E+00 zmoment=   0.0000E+00
 nd#    1741  xforce=   0.0000E+00   yforce=   0.0000E+00  zforce=   0.0000E+00   energy=   0.0000E+00   setid =    1741 xmoment=   0.0000E+00 ymoment=   0.0000E+00 zmoment=   0.0000E+00
 nd#    1742  xforce=   0.0000E+00   yforce=   0.0000E+00  zforce=   0.0000E+00   energy=   0.0000E+00   setid =    1742 xmoment=   0.0000E+00 ymoment=   0.0000E+00 zmoment=   0.0000E+00
 nd#    1743  xforce=   0.0000E+00   yforce=   0.0000E+00  zforce=   0.0000E+00   energy=   0.0000E+00   setid =    1743 xmoment=   0.0000E+00 ymoment=   0.0000E+00 zmoment=   0.0000E+00
 nd#    1744  xforce=   0.0000E+00   yforce=   0.0000E+00  zforce=   0.0000E+00   energy=   0.0000E+00   setid =    1744 xmoment=   0.0000E+00 ymoment=   0.0000E+00 zmoment=   0.0000E+00
 nd#    1751  xforce=   0.0000E+00   yforce=   0.0000E+00  zforce=   0.0000E+00   energy=   0.0000E+00   setid =    1751 xmoment=   0.0000E+00 ymoment=   0.0000E+00 zmoment=   0.0000E+00
 nd#    1752  xforce=   0.0000E+00   yforce=   0.0000E+00  zforce=   0.0000E+00   energy=   0.0000E+00   setid =    1752 xmoment=   0.0000E+00 ymoment=   0.0000E+00 zmoment=   0.0000E+00
 nd#    1753  xforce=   0.0000E+00   yforce=   0.0000E+00  zforce=   0.0000E+00   energy=   0.0000E+00   setid =    1753 xmoment=   0.0000E+00 ymoment=   0.0000E+00 zmoment=   0.0000E+00
 nd#    1754  xforce=   0.0000E+00   yforce=   0.0000E+00  zforce=   0.0000E+00   energy=   0.0000E+00   setid =    1754 xmoment=   0.0000E+00 ymoment=   0.0000E+00 zmoment=   0.0000E+00
 nd#    1755  xforce=   0.0000E+00   yforce=   0.0000E+00  zforce=   0.0000E+00   energy=   0.0000E+00   setid =    1755 xmoment=   0.0000E+00 ymoment=   0.0000E+00 zmoment=   0.0000E+00
 nd#    1756  xforce=   0.0000E+00   yforce=   0.0000E+00  zforce=   0.0000E+00   energy=   0.0000E+00   setid =    1756 xmoment=   0.0000E+00 ymoment=   0.0000E+00 zmoment=   0.0000E+00
 nd#    1757  xforce=   0.0000E+00   yforce=   0.0000E+00  zforce=   0.0000E+00   energy=   0.0000E+00   setid =    1757 xmoment=   0.0000E+00 ymoment=   0.0000E+00 zmoment=   0.0000E+00
 nd#    1758  xforce=   0.0000E+00   yforce=   0.0000E+00  zforce=   0.0000E+00   energy=   0.0000E+00   setid =    1758 xmoment=   0.0000E+00 ymoment=   0.0000E+00 zmoment=   0.0000E+00
 nd#    1759  xforce=   0.0000E+00   yforce=   0.0000E+00  zforce=   0.0000E+00   energy=   0.0000E+00   setid =    1759 xmoment=   0.0000E+00 ymoment=   0.0000E+00 zmoment=   0.0000E+00
 nd#    1760  xforce=   0.0000E+00   yforce=   0.0000E+00  zforce=   0.0000E+00   energy=   0.0000E+00   setid =    1760 xmoment=   0.0000E+00 ymoment=   0.0000E+00 zmoment=   0.0000E+00
 nd#    1761  xforce=   0.0000E+00   yforce=   0.0000E+00  zforce=   0.0000E+00   energy=   0.0000E+00   setid =    1761 xmoment=   0.0000E+00 ymoment=   0.0000E+00 zmoment=   0.0000E+00
 nd#    1762  xforce=   0.0000E+00   yforce=   0.0000E+00  zforce=   0.0000E+00   energy=   0.0000E+00   setid =    1762 xmoment=   0.0000E+00 ymoment=   0.0000E+00 zmoment=   0.0000E+00
 nd#    1769  xforce=   0.0000E+00   yforce=   0.0000E+00  zforce=   0.0000E+00   energy=   0.0000E+00   setid =    1769 xmoment=   0.0000E+00 ymoment=   0.0000E+00 zmoment=   0.0000E+00
 nd#    1770  xforce=   0.0000E+00   yforce=   0.0000E+00  zforce=   0.0000E+00   energy=   0.0000E+00   setid =    1770 xmoment=   0.0000E+00 ymoment=   0.0000E+00 zmoment=   0.0000E+00
 nd#    1771  xforce=   0.0000E+00   yforce=   0.0000E+00  zforce=   0.0000E+00   energy=   0.0000E+00   setid =    1771 xmoment=   0.0000E+00 ymoment=   0.0000E+00 zmoment=   0.0000E+00
 nd#    1772  xforce=   0.0000E+00   yforce=   0.0000E+00  zforce=   0.0000E+00   energy=   0.0000E+00   setid =    1772 xmoment=   0.0000E+00 ymoment=   0.0000E+00 zmoment=   0.0000E+00
 nd#    1773  xforce=   0.0000E+00   yforce=   0.0000E+00  zforce=   0.0000E+00   energy=   0.0000E+00   setid =    1773 xmoment=   0.0000E+00 ymoment=   0.0000E+00 zmoment=   0.0000E+00
 nd#    1774  xforce=   0.0000E+00   yforce=   0.0000E+00  zforce=   0.0000E+00   energy=   0.0000E+00   setid =    1774 xmoment=   0.0000E+00 ymoment=   0.0000E+00 zmoment=   0.0000E+00
              xtotal=   0.0000E+00   ytotal=   0.0000E+00  ztotal=   0.0000E+00   etotal=   0.0000E+00

 n o d a l   f o r c e/e n e r g y    o u t p u t  t=   2.50000E+00

 velocity boundary condition forces/rigid body moments 

 nd#     354  xforce=   0.0000E+00   yforce=   0.0000E+00  zforce=  -1.4226E+01   energy=   8.8911E-05   setid =     354 xmoment=   0.0000E+00 ymoment=   0.0000E+00 zmoment=   0.0000E+00
 nd#     355  xforce=   0.0000E+00   yforce=   0.0000E+00  zforce=  -2.1145E+01   energy=   1.3215E-04   setid =     355 xmoment=   0.0000E+00 ymoment=   0.0000E+00 zmoment=   0.0000E+00
 nd#     356  xforce=   0.0000E+00   yforce=   0.0000E+00  zforce=  -1.0937E+01   energy=   6.8356E-05   setid =     356 xmoment=   0.0000E+00 ymoment=   0.0000E+00 zmoment=   0.0000E+00
 nd#     357  xforce=   0.0000E+00   yforce=   0.0000E+00  zforce=  -7.6686E+00   energy=   4.7929E-05   setid =     357 xmoment=   0.0000E+00 ymoment=   0.0000E+00 zmoment=   0.0000E+00
 nd#     403  xforce=   0.0000E+00   yforce=   0.0000E+00  zforce=  -9.3419E+00   energy=   5.8387E-05   setid =     403 xmoment=   0.0000E+00 ymoment=   0.0000E+00 zmoment=   0.0000E+00
 nd#     404  xforce=   0.0000E+00   yforce=   0.0000E+00  zforce=  -1.2438E+01   energy=   7.7738E-05   setid =     404 xmoment=   0.0000E+00 ymoment=   0.0000E+00 zmoment=   0.0000E+00
 nd#     405  xforce=   0.0000E+00   yforce=   0.0000E+00  zforce=  -1.1464E+01   energy=   7.1649E-05   setid =     405 xmoment=   0.0000E+00 ymoment=   0.0000E+00 zmoment=   0.0000E+00
 nd#     466  xforce=   0.0000E+00   yforce=   0.0000E+00  zforce=  -4.9448E+00   energy=   3.0905E-05   setid =     466 xmoment=   0.0000E+00 ymoment=   0.0000E+00 zmoment=   0.0000E+00
 nd#     467  xforce=   0.0000E+00   yforce=   0.0000E+00  zforce=  -7.3292E+00   energy=   4.5807E-05   setid =     467 xmoment=   0.0000E+00 ymoment=   0.0000E+00 zmoment=   0.0000E+00
 nd#     468  xforce=   0.0000E+00   yforce=   0.0000E+00  zforce=  -9.3958E+00   energy=   5.8724E-05   setid =     468 xmoment=   0.0000E+00 ymoment=   0.0000E+00 zmoment=   0.0000E+00
 nd#     469  xforce=   0.0000E+00   yforce=   0.0000E+00  zforce=  -7.8913E+00   energy=   4.9320E-05   setid =     469 xmoment=   0.0000E+00 ymoment=   0.0000E+00 zmoment=   0.0000E+00
 nd#     530  xforce=   0.0000E+00   yforce=   0.0000E+00  zforce=  -7.9950E+00   energy=   4.9969E-05   setid =     530 xmoment=   0.0000E+00 ymoment=   0.0000E+00 zmoment=   0.0000E+00
 nd#     531  xforce=   0.0000E+00   yforce=   0.0000E+00  zforce=  -1.0170E+01   energy=   6.3563E-05   setid =     531 xmoment=   0.0000E+00 ymoment=   0.0000E+00 zmoment=   0.0000E+00
 nd#     532  xforce=   0.0000E+00   yforce=   0.0000E+00  zforce=  -1.1163E+01   energy=   6.9767E-05   setid =     532 xmoment=   0.0000E+00 ymoment=   0.0000E+00 zmoment=   0.0000E+00
 nd#     533  xforce=   0.0000E+00   yforce=   0.0000E+00  zforce=  -9.0337E+00   energy=   5.6461E-05   setid =     533 xmoment=   0.0000E+00 ymoment=   0.0000E+00 zmoment=   0.0000E+00
 nd#     549  xforce=   0.0000E+00   yforce=   0.0000E+00  zforce=  -6.2098E+00   energy=   3.8811E-05   setid =     549 xmoment=   0.0000E+00 ymoment=   0.0000E+00 zmoment=   0.0000E+00
 nd#     610  xforce=   0.0000E+00   yforce=   0.0000E+00  zforce=  -1.2497E+01   energy=   7.8103E-05   setid =     610 xmoment=   0.0000E+00 ymoment=   0.0000E+00 zmoment=   0.0000E+00
 nd#     611  xforce=   0.0000E+00   yforce=   0.0000E+00  zforce=  -1.3964E+01   energy=   8.7272E-05   setid =     611 xmoment=   0.0000E+00 ymoment=   0.0000E+00 zmoment=   0.0000E+00
 nd#     612  xforce=   0.0000E+00   yforce=   0.0000E+00  zforce=  -2.2944E+01   energy=   1.4340E-04   setid =     612 xmoment=   0.0000E+00 ymoment=   0.0000E+00 zmoment=   0.0000E+00
 nd#     613  xforce=   0.0000E+00   yforce=   0.0000E+00  zforce=  -2.1987E+01   energy=   1.3742E-04   setid =     613 xmoment=   0.0000E+00 ymoment=   0.0000E+00 zmoment=   0.0000E+00
 nd#     629  xforce=   0.0000E+00   yforce=   0.0000E+00  zforce=  -1.1164E+01   energy=   6.9776E-05   setid =     629 xmoment=   0.0000E+00 ymoment=   0.0000E+00 zmoment=   0.0000E+00
 nd#     660  xforce=   0.0000E+00   yforce=   0.0000E+00  zforce=  -5.9232E+00   energy=   3.7020E-05   setid =     660 xmoment=   0.0000E+00 ymoment=   0.0000E+00 zmoment=   0.0000E+00
 nd#     661  xforce=   0.0000E+00   yforce=   0.0000E+00  zforce=  -6.3140E+00   energy=   3.9462E-05   setid =     661 xmoment=   0.0000E+00 ymoment=   0.0000E+00 zmoment=   0.0000E+00
 nd#     692  xforce=   0.0000E+00   yforce=   0.0000E+00  zforce=  -2.0709E+01   energy=   1.2943E-04   setid =     692 xmoment=   0.0000E+00 ymoment=   0.0000E+00 zmoment=   0.0000E+00
 nd#     693  xforce=   0.0000E+00   yforce=   0.0000E+00  zforce=  -2.0586E+01   energy=   1.2866E-04   setid =     693 xmoment=   0.0000E+00 ymoment=   0.0000E+00 zmoment=   0.0000E+00
 nd#     724  xforce=   0.0000E+00   yforce=   0.0000E+00  zforce=  -3.2659E+00   energy=   2.0412E-05   setid =     724 xmoment=   0.0000E+00 ymoment=   0.0000E+00 zmoment=   0.0000E+00
 nd#     725  xforce=   0.0000E+00   yforce=   0.0000E+00  zforce=  -5.8009E+00   energy=   3.6255E-05   setid =     725 xmoment=   0.0000E+00 ymoment=   0.0000E+00 zmoment=   0.0000E+00
 nd#     771  xforce=   0.0000E+00   yforce=   0.0000E+00  zforce=  -8.4302E+00   energy=   5.2689E-05   setid =     771 xmoment=   0.0000E+00 ymoment=   0.0000E+00 zmoment=   0.0000E+00
 nd#     772  xforce=   0.0000E+00   yforce=   0.0000E+00  zforce=  -6.4559E+00   energy=   4.0350E-05   setid =     772 xmoment=   0.0000E+00 ymoment=   0.0000E+00 zmoment=   0.0000E+00
 nd#     773  xforce=   0.0000E+00   yforce=   0.0000E+00  zforce=  -5.2830E+00   energy=   3.3019E-05   setid =     773 xmoment=   0.0000E+00 ymoment=   0.0000E+00 zmoment=   0.0000E+00
 nd#     804  xforce=   0.0000E+00   yforce=   0.0000E+00  zforce=  -7.1444E+00   energy=   4.4652E-05   setid =     804 xmoment=   0.0000E+00 ymoment=   0.0000E+00 zmoment=   0.0000E+00
 nd#     805  xforce=   0.0000E+00   yforce=   0.0000E+00  zforce=  -1.1530E+01   energy=   7.2063E-05   setid =     805 xmoment=   0.0000E+00 ymoment=   0.0000E+00 zmoment=   0.0000E+00
 nd#     821  xforce=   0.0000E+00   yforce=   0.0000E+00  zforce=  -4.7002E+00   energy=   2.9376E-05   setid =     821 xmoment=   0.0000E+00 ymoment=   0.0000E+00 zmoment=   0.0000E+00
 nd#     852  xforce=   0.0000E+00   yforce=   0.0000E+00  zforce=  -9.9825E+00   energy=   6.2391E-05   setid =     852 xmoment=   0.0000E+00 ymoment=   0.0000E+00 zmoment=   0.0000E+00
 nd#     853  xforce=   0.0000E+00   yforce=   0.0000E+00  zforce=  -1.0925E+01   energy=   6.8284E-05   setid =     853 xmoment=   0.0000E+00 ymoment=   0.0000E+00 zmoment=   0.0000E+00
 nd#     869  xforce=   0.0000E+00   yforce=   0.0000E+00  zforce=  -5.7271E+00   energy=   3.5794E-05   setid =     869 xmoment=   0.0000E+00 ymoment=   0.0000E+00 zmoment=   0.0000E+00
 nd#     885  xforce=   0.0000E+00   yforce=   0.0000E+00  zforce=  -5.5991E+00   energy=   3.4994E-05   setid =     885 xmoment=   0.0000E+00 ymoment=   0.0000E+00 zmoment=   0.0000E+00
 nd#    1082  xforce=   0.0000E+00   yforce=   0.0000E+00  zforce=  -7.3552E+00   energy=   4.5970E-05   setid =    1082 xmoment=   0.0000E+00 ymoment=   0.0000E+00 zmoment=   0.0000E+00
 nd#    1083  xforce=   0.0000E+00   yforce=   0.0000E+00  zforce=  -2.8215E+01   energy=   1.7635E-04   setid =    1083 xmoment=   0.0000E+00 ymoment=   0.0000E+00 zmoment=   0.0000E+00
 nd#    1084  xforce=   0.0000E+00   yforce=   0.0000E+00  zforce=  -2.5398E+01   energy=   1.5874E-04   setid =    1084 xmoment=   0.0000E+00 ymoment=   0.0000E+00 zmoment=   0.0000E+00
 nd#    1085  xforce=   0.0000E+00   yforce=   0.0000E+00  zforce=  -2.2158E+01   energy=   1.3849E-04   setid =    1085 xmoment=   0.0000E+00 ymoment=   0.0000E+00 zmoment=   0.0000E+00
 nd#    1086  xforce=   0.0000E+00   yforce=   0.0000E+00  zforce=  -1.9264E+01   energy=   1.2040E-04   setid =    1086 xmoment=   0.0000E+00 ymoment=   0.0000E+00 zmoment=   0.0000E+00
 nd#    1087  xforce=   0.0000E+00   yforce=   0.0000E+00  zforce=  -1.6274E+01   energy=   1.0171E-04   setid =    1087 xmoment=   0.0000E+00 ymoment=   0.0000E+00 zmoment=   0.0000E+00
 nd#    1649  xforce=   0.0000E+00   yforce=   0.0000E+00  zforce=  -3.2457E+01   energy=   2.0286E-04   setid =    1649 xmoment=   0.0000E+00 ymoment=   0.0000E+00 zmoment=   0.0000E+00
 nd#    1651  xforce=   0.0000E+00   yforce=   0.0000E+00  zforce=  -3.1943E+01   energy=   1.9965E-04   setid =    1651 xmoment=   0.0000E+00 ymoment=   0.0000E+00 zmoment=   0.0000E+00
 nd#    1653  xforce=   0.0000E+00   yforce=   0.0000E+00  zforce=  -3.1433E+01   energy=   1.9646E-04   setid =    1653 xmoment=   0.0000E+00 ymoment=   0.0000E+00 zmoment=   0.0000E+00
 nd#    1655  xforce=   0.0000E+00   yforce=   0.0000E+00  zforce=  -3.1412E+01   energy=   1.9633E-04   setid =    1655 xmoment=   0.0000E+00 ymoment=   0.0000E+00 zmoment=   0.0000E+00
 nd#    1657  xforce=   0.0000E+00   yforce=   0.0000E+00  zforce=  -3.1977E+01   energy=   1.9986E-04   setid =    1657 xmoment=   0.0000E+00 ymoment=   0.0000E+00 zmoment=   0.0000E+00
 nd#    1659  xforce=   0.0000E+00   yforce=   0.0000E+00  zforce=  -1.6364E+01   energy=   1.0228E-04   setid =    1659 xmoment=   0.0000E+00 ymoment=   0.0000E+00 zmoment=   0.0000E+00
 nd#    1733  xforce=   0.0000E+00   yforce=   0.0000E+00  zforce=  -5.0952E+01   energy=   3.1845E-04   setid =    1733 xmoment=   0.0000E+00 ymoment=   0.0000E+00 zmoment=   0.0000E+00
 nd#    1734  xforce=   0.0000E+00   yforce=   0.0000E+00  zforce=  -5.6919E+01   energy=   3.5574E-04   setid =    1734 xmoment=   0.0000E+00 ymoment=   0.0000E+00 zmoment=   0.0000E+00
 nd#    1735  xforce=   0.0000E+00   yforce=   0.0000E+00  zforce=  -5.1110E+01   energy=   3.1944E-04   setid =    1735 xmoment=   0.0000E+00 ymoment=   0.0000E+00 zmoment=   0.0000E+00
 nd#    1736  xforce=   0.0000E+00   yforce=   0.0000E+00  zforce=  -5.7745E+01   energy=   3.6091E-04   setid =    1736 xmoment=   0.0000E+00 ymoment=   0.0000E+00 zmoment=   0.0000E+00
 nd#    1737  xforce=   0.0000E+00   yforce=   0.0000E+00  zforce=  -5.1184E+01   energy=   3.1990E-04   setid =    1737 xmoment=   0.0000E+00 ymoment=   0.0000E+00 zmoment=   0.0000E+00
 nd#    1738  xforce=   0.0000E+00   yforce=   0.0000E+00  zforce=  -5.7976E+01   energy=   3.6235E-04   setid =    1738 xmoment=   0.0000E+00 ymoment=   0.0000E+00 zmoment=   0.0000E+00
 nd#    1739  xforce=   0.0000E+00   yforce=   0.0000E+00  zforce=  -5.1202E+01   energy=   3.2001E-04   setid =    1739 xmoment=   0.0000E+00 ymoment=   0.0000E+00 zmoment=   0.0000E+00
 nd#    1740  xforce=   0.0000E+00   yforce=   0.0000E+00  zforce=  -5.7244E+01   energy=   3.5778E-04   setid =    1740 xmoment=   0.0000E+00 ymoment=   0.0000E+00 zmoment=   0.0000E+00
 nd#    1741  xforce=   0.0000E+00   yforce=   0.0000E+00  zforce=  -5.1212E+01   energy=   3.2007E-04   setid =    1741 xmoment=   0.0000E+00 ymoment=   0.0000E+00 zmoment=   0.0000E+00
 nd#    1742  xforce=   0.0000E+00   yforce=   0.0000E+00  zforce=  -5.6134E+01   energy=   3.5084E-04   setid =    1742 xmoment=   0.0000E+00 ymoment=   0.0000E+00 zmoment=   0.0000E+00
 nd#    1743  xforce=   0.0000E+00   yforce=   0.0000E+00  zforce=  -2.5683E+01   energy=   1.6052E-04   setid =    1743 xmoment=   0.0000E+00 ymoment=   0.0000E+00 zmoment=   0.0000E+00
 nd#    1744  xforce=   0.0000E+00   yforce=   0.0000E+00  zforce=  -2.7859E+01   energy=   1.7412E-04   setid =    1744 xmoment=   0.0000E+00 ymoment=   0.0000E+00 zmoment=   0.0000E+00
 nd#    1751  xforce=   0.0000E+00   yforce=   0.0000E+00  zforce=  -3.8528E+01   energy=   2.4080E-04   setid =    1751 xmoment=   0.0000E+00 ymoment=   0.0000E+00 zmoment=   0.0000E+00
 nd#    1752  xforce=   0.0000E+00   yforce=   0.0000E+00  zforce=  -4.4382E+01   energy=   2.7739E-04   setid =    1752 xmoment=   0.0000E+00 ymoment=   0.0000E+00 zmoment=   0.0000E+00
 nd#    1753  xforce=   0.0000E+00   yforce=   0.0000E+00  zforce=  -3.8248E+01   energy=   2.3905E-04   setid =    1753 xmoment=   0.0000E+00 ymoment=   0.0000E+00 zmoment=   0.0000E+00
 nd#    1754  xforce=   0.0000E+00   yforce=   0.0000E+00  zforce=  -4.4287E+01   energy=   2.7679E-04   setid =    1754 xmoment=   0.0000E+00 ymoment=   0.0000E+00 zmoment=   0.0000E+00
 nd#    1755  xforce=   0.0000E+00   yforce=   0.0000E+00  zforce=  -3.7877E+01   energy=   2.3673E-04   setid =    1755 xmoment=   0.0000E+00 ymoment=   0.0000E+00 zmoment=   0.0000E+00
 nd#    1756  xforce=   0.0000E+00   yforce=   0.0000E+00  zforce=  -4.4116E+01   energy=   2.7572E-04   setid =    1756 xmoment=   0.0000E+00 ymoment=   0.0000E+00 zmoment=   0.0000E+00
 nd#    1757  xforce=   0.0000E+00   yforce=   0.0000E+00  zforce=  -3.7708E+01   energy=   2.3568E-04   setid =    1757 xmoment=   0.0000E+00 ymoment=   0.0000E+00 zmoment=   0.0000E+00
 nd#    1758  xforce=   0.0000E+00   yforce=   0.0000E+00  zforce=  -4.4047E+01   energy=   2.7529E-04   setid =    1758 xmoment=   0.0000E+00 ymoment=   0.0000E+00 zmoment=   0.0000E+00
 nd#    1759  xforce=   0.0000E+00   yforce=   0.0000E+00  zforce=  -3.7933E+01   energy=   2.3708E-04   setid =    1759 xmoment=   0.0000E+00 ymoment=   0.0000E+00 zmoment=   0.0000E+00
 nd#    1760  xforce=   0.0000E+00   yforce=   0.0000E+00  zforce=  -4.4171E+01   energy=   2.7607E-04   setid =    1760 xmoment=   0.0000E+00 ymoment=   0.0000E+00 zmoment=   0.0000E+00
 nd#    1761  xforce=   0.0000E+00   yforce=   0.0000E+00  zforce=  -1.9208E+01   energy=   1.2005E-04   setid =    1761 xmoment=   0.0000E+00 ymoment=   0.0000E+00 zmoment=   0.0000E+00
 nd#    1762  xforce=   0.0000E+00   yforce=   0.0000E+00  zforce=  -2.2245E+01   energy=   1.3903E-04   setid =    1762 xmoment=   0.0000E+00 ymoment=   0.0000E+00 zmoment=   0.0000E+00
 nd#    1769  xforce=   0.0000E+00   yforce=   0.0000E+00  zforce=  -1.4456E+01   energy=   9.0347E-05   setid =    1769 xmoment=   0.0000E+00 ymoment=   0.0000E+00 zmoment=   0.0000E+00
 nd#    1770  xforce=   0.0000E+00   yforce=   0.0000E+00  zforce=  -1.3754E+01   energy=   8.5960E-05   setid =    1770 xmoment=   0.0000E+00 ymoment=   0.0000E+00 zmoment=   0.0000E+00
 nd#    1771  xforce=   0.0000E+00   yforce=   0.0000E+00  zforce=  -1.3010E+01   energy=   8.1310E-05   setid =    1771 xmoment=   0.0000E+00 ymoment=   0.0000E+00 zmoment=   0.0000E+00
 nd#    1772  xforce=   0.0000E+00   yforce=   0.0000E+00  zforce=  -1.2565E+01   energy=   7.8529E-05   setid =    1772 xmoment=   0.0000E+00 ymoment=   0.0000E+00 zmoment=   0.0000E+00
 nd#    1773  xforce=   0.0000E+00   yforce=   0.0000E+00  zforce=  -1.2397E+01   energy=   7.7481E-05   setid =    1773 xmoment=   0.0000E+00 ymoment=   0.0000E+00 zmoment=   0.0000E+00
 nd#    1774  xforce=   0.0000E+00   yforce=   0.0000E+00  zforce=  -6.1893E+00   energy=   3.8683E-05   setid =    1774 xmoment=   0.0000E+00 ymoment=   0.0000E+00 zmoment=   0.0000E+00
              xtotal=   0.0000E+00   ytotal=   0.0000E+00  ztotal=  -1.7969E+03   etotal=   1.1230E-02

 n o d a l   f o r c e/e n e r g y    o u t p u t  t=   6.46223E+00

 velocity boundary condition forces/rigid body moments 

 nd#     354  xforce=   0.0000E+00   yforce=   0.0000E+00  zforce=  -3.6526E+01   energy=   5.9164E-04   setid =     354 xmoment=   0.0000E+00 ymoment=   0.0000E+00 zmoment=   0.0000E+00
 nd#     355  xforce=   0.0000E+00   yforce=   0.0000E+00  zforce=  -5.2666E+01   energy=   8.6329E-04   setid =     355 xmoment=   0.0000E+00 ymoment=   0.0000E+00 zmoment=   0.0000E+00
 nd#     356  xforce=   0.0000E+00   yforce=   0.0000E+00  zforce=  -2.7841E+01   energy=   4.5247E-04   setid =     356 xmoment=   0.0000E+00 ymoment=   0.0000E+00 zmoment=   0.0000E+00
 nd#     357  xforce=   0.0000E+00   yforce=   0.0000E+00  zforce=  -2.0581E+01   energy=   3.2776E-04   setid =     357 xmoment=   0.0000E+00 ymoment=   0.0000E+00 zmoment=   0.0000E+00
 nd#     403  xforce=   0.0000E+00   yforce=   0.0000E+00  zforce=  -2.2703E+01   energy=   3.7581E-04   setid =     403 xmoment=   0.0000E+00 ymoment=   0.0000E+00 zmoment=   0.0000E+00
 nd#     404  xforce=   0.0000E+00   yforce=   0.0000E+00  zforce=  -3.1223E+01   energy=   5.1022E-04   setid =     404 xmoment=   0.0000E+00 ymoment=   0.0000E+00 zmoment=   0.0000E+00
 nd#     405  xforce=   0.0000E+00   yforce=   0.0000E+00  zforce=  -2.9272E+01   energy=   4.7516E-04   setid =     405 xmoment=   0.0000E+00 ymoment=   0.0000E+00 zmoment=   0.0000E+00
 nd#     466  xforce=   0.0000E+00   yforce=   0.0000E+00  zforce=  -1.2653E+01   energy=   2.0522E-04   setid =     466 xmoment=   0.0000E+00 ymoment=   0.0000E+00 zmoment=   0.0000E+00
 nd#     467  xforce=   0.0000E+00   yforce=   0.0000E+00  zforce=  -1.6210E+01   energy=   2.7898E-04   setid =     467 xmoment=   0.0000E+00 ymoment=   0.0000E+00 zmoment=   0.0000E+00
 nd#     468  xforce=   0.0000E+00   yforce=   0.0000E+00  zforce=  -2.2595E+01   energy=   3.7561E-04   setid =     468 xmoment=   0.0000E+00 ymoment=   0.0000E+00 zmoment=   0.0000E+00
 nd#     469  xforce=   0.0000E+00   yforce=   0.0000E+00  zforce=  -1.9215E+01   energy=   3.1782E-04   setid =     469 xmoment=   0.0000E+00 ymoment=   0.0000E+00 zmoment=   0.0000E+00
 nd#     530  xforce=   0.0000E+00   yforce=   0.0000E+00  zforce=  -1.8452E+01   energy=   3.1194E-04   setid =     530 xmoment=   0.0000E+00 ymoment=   0.0000E+00 zmoment=   0.0000E+00
 nd#     531  xforce=   0.0000E+00   yforce=   0.0000E+00  zforce=  -2.5489E+01   energy=   4.1678E-04   setid =     531 xmoment=   0.0000E+00 ymoment=   0.0000E+00 zmoment=   0.0000E+00
 nd#     532  xforce=   0.0000E+00   yforce=   0.0000E+00  zforce=  -2.9417E+01   energy=   4.7174E-04   setid =     532 xmoment=   0.0000E+00 ymoment=   0.0000E+00 zmoment=   0.0000E+00
 nd#     533  xforce=   0.0000E+00   yforce=   0.0000E+00  zforce=  -2.2953E+01   energy=   3.7331E-04   setid =     533 xmoment=   0.0000E+00 ymoment=   0.0000E+00 zmoment=   0.0000E+00
 nd#     549  xforce=   0.0000E+00   yforce=   0.0000E+00  zforce=  -1.3263E+01   energy=   2.3170E-04   setid =     549 xmoment=   0.0000E+00 ymoment=   0.0000E+00 zmoment=   0.0000E+00
 nd#     610  xforce=   0.0000E+00   yforce=   0.0000E+00  zforce=  -3.0999E+01   energy=   5.0895E-04   setid =     610 xmoment=   0.0000E+00 ymoment=   0.0000E+00 zmoment=   0.0000E+00
 nd#     611  xforce=   0.0000E+00   yforce=   0.0000E+00  zforce=  -3.6080E+01   energy=   5.8299E-04   setid =     611 xmoment=   0.0000E+00 ymoment=   0.0000E+00 zmoment=   0.0000E+00
 nd#     612  xforce=   0.0000E+00   yforce=   0.0000E+00  zforce=  -6.0419E+01   energy=   9.6916E-04   setid =     612 xmoment=   0.0000E+00 ymoment=   0.0000E+00 zmoment=   0.0000E+00
 nd#     613  xforce=   0.0000E+00   yforce=   0.0000E+00  zforce=  -5.6478E+01   energy=   9.1466E-04   setid =     613 xmoment=   0.0000E+00 ymoment=   0.0000E+00 zmoment=   0.0000E+00
 nd#     629  xforce=   0.0000E+00   yforce=   0.0000E+00  zforce=  -2.7875E+01   energy=   4.5648E-04   setid =     629 xmoment=   0.0000E+00 ymoment=   0.0000E+00 zmoment=   0.0000E+00
 nd#     660  xforce=   0.0000E+00   yforce=   0.0000E+00  zforce=  -1.6379E+01   energy=   2.5793E-04   setid =     660 xmoment=   0.0000E+00 ymoment=   0.0000E+00 zmoment=   0.0000E+00
 nd#     661  xforce=   0.0000E+00   yforce=   0.0000E+00  zforce=  -1.8040E+01   energy=   2.8070E-04   setid =     661 xmoment=   0.0000E+00 ymoment=   0.0000E+00 zmoment=   0.0000E+00
 nd#     692  xforce=   0.0000E+00   yforce=   0.0000E+00  zforce=  -5.2890E+01   energy=   8.5848E-04   setid =     692 xmoment=   0.0000E+00 ymoment=   0.0000E+00 zmoment=   0.0000E+00
 nd#     693  xforce=   0.0000E+00   yforce=   0.0000E+00  zforce=  -5.1670E+01   energy=   8.4441E-04   setid =     693 xmoment=   0.0000E+00 ymoment=   0.0000E+00 zmoment=   0.0000E+00
 nd#     724  xforce=   0.0000E+00   yforce=   0.0000E+00  zforce=  -9.7967E+00   energy=   1.4980E-04   setid =     724 xmoment=   0.0000E+00 ymoment=   0.0000E+00 zmoment=   0.0000E+00
 nd#     725  xforce=   0.0000E+00   yforce=   0.0000E+00  zforce=  -1.6185E+01   energy=   2.5404E-04   setid =     725 xmoment=   0.0000E+00 ymoment=   0.0000E+00 zmoment=   0.0000E+00
 nd#     771  xforce=   0.0000E+00   yforce=   0.0000E+00  zforce=  -2.0042E+01   energy=   3.3472E-04   setid =     771 xmoment=   0.0000E+00 ymoment=   0.0000E+00 zmoment=   0.0000E+00
 nd#     772  xforce=   0.0000E+00   yforce=   0.0000E+00  zforce=  -1.7508E+01   energy=   2.7773E-04   setid =     772 xmoment=   0.0000E+00 ymoment=   0.0000E+00 zmoment=   0.0000E+00
 nd#     773  xforce=   0.0000E+00   yforce=   0.0000E+00  zforce=  -1.4465E+01   energy=   2.2863E-04   setid =     773 xmoment=   0.0000E+00 ymoment=   0.0000E+00 zmoment=   0.0000E+00
 nd#     804  xforce=   0.0000E+00   yforce=   0.0000E+00  zforce=  -1.9061E+01   energy=   3.0423E-04   setid =     804 xmoment=   0.0000E+00 ymoment=   0.0000E+00 zmoment=   0.0000E+00
 nd#     805  xforce=   0.0000E+00   yforce=   0.0000E+00  zforce=  -3.0953E+01   energy=   4.9288E-04   setid =     805 xmoment=   0.0000E+00 ymoment=   0.0000E+00 zmoment=   0.0000E+00
 nd#     821  xforce=   0.0000E+00   yforce=   0.0000E+00  zforce=  -1.2756E+01   energy=   2.0229E-04   setid =     821 xmoment=   0.0000E+00 ymoment=   0.0000E+00 zmoment=   0.0000E+00
 nd#     852  xforce=   0.0000E+00   yforce=   0.0000E+00  zforce=  -2.5654E+01   energy=   4.1539E-04   setid =     852 xmoment=   0.0000E+00 ymoment=   0.0000E+00 zmoment=   0.0000E+00
 nd#     853  xforce=   0.0000E+00   yforce=   0.0000E+00  zforce=  -2.8033E+01   energy=   4.5418E-04   setid =     853 xmoment=   0.0000E+00 ymoment=   0.0000E+00 zmoment=   0.0000E+00
 nd#     869  xforce=   0.0000E+00   yforce=   0.0000E+00  zforce=  -1.5414E+01   energy=   2.4521E-04   setid =     869 xmoment=   0.0000E+00 ymoment=   0.0000E+00 zmoment=   0.0000E+00
 nd#     885  xforce=   0.0000E+00   yforce=   0.0000E+00  zforce=  -1.5929E+01   energy=   2.4824E-04   setid =     885 xmoment=   0.0000E+00 ymoment=   0.0000E+00 zmoment=   0.0000E+00
 nd#    1082  xforce=   0.0000E+00   yforce=   0.0000E+00  zforce=  -1.6801E+01   energy=   2.8525E-04   setid =    1082 xmoment=   0.0000E+00 ymoment=   0.0000E+00 zmoment=   0.0000E+00
 nd#    1083  xforce=   0.0000E+00   yforce=   0.0000E+00  zforce=  -7.0546E+01   energy=   1.1546E-03   setid =    1083 xmoment=   0.0000E+00 ymoment=   0.0000E+00 zmoment=   0.0000E+00
 nd#    1084  xforce=   0.0000E+00   yforce=   0.0000E+00  zforce=  -6.4546E+01   energy=   1.0497E-03   setid =    1084 xmoment=   0.0000E+00 ymoment=   0.0000E+00 zmoment=   0.0000E+00
 nd#    1085  xforce=   0.0000E+00   yforce=   0.0000E+00  zforce=  -5.6983E+01   energy=   9.2243E-04   setid =    1085 xmoment=   0.0000E+00 ymoment=   0.0000E+00 zmoment=   0.0000E+00
 nd#    1086  xforce=   0.0000E+00   yforce=   0.0000E+00  zforce=  -4.9994E+01   energy=   8.0644E-04   setid =    1086 xmoment=   0.0000E+00 ymoment=   0.0000E+00 zmoment=   0.0000E+00
 nd#    1087  xforce=   0.0000E+00   yforce=   0.0000E+00  zforce=  -4.2605E+01   energy=   6.8493E-04   setid =    1087 xmoment=   0.0000E+00 ymoment=   0.0000E+00 zmoment=   0.0000E+00
 nd#    1649  xforce=   0.0000E+00   yforce=   0.0000E+00  zforce=  -8.3818E+01   energy=   1.3546E-03   setid =    1649 xmoment=   0.0000E+00 ymoment=   0.0000E+00 zmoment=   0.0000E+00
 nd#    1651  xforce=   0.0000E+00   yforce=   0.0000E+00  zforce=  -8.1025E+01   energy=   1.3187E-03   setid =    1651 xmoment=   0.0000E+00 ymoment=   0.0000E+00 zmoment=   0.0000E+00
 nd#    1653  xforce=   0.0000E+00   yforce=   0.0000E+00  zforce=  -7.9822E+01   energy=   1.2985E-03   setid =    1653 xmoment=   0.0000E+00 ymoment=   0.0000E+00 zmoment=   0.0000E+00
 nd#    1655  xforce=   0.0000E+00   yforce=   0.0000E+00  zforce=  -7.9839E+01   energy=   1.2983E-03   setid =    1655 xmoment=   0.0000E+00 ymoment=   0.0000E+00 zmoment=   0.0000E+00
 nd#    1657  xforce=   0.0000E+00   yforce=   0.0000E+00  zforce=  -8.1522E+01   energy=   1.3241E-03   setid =    1657 xmoment=   0.0000E+00 ymoment=   0.0000E+00 zmoment=   0.0000E+00
 nd#    1659  xforce=   0.0000E+00   yforce=   0.0000E+00  zforce=  -4.2314E+01   energy=   6.8352E-04   setid =    1659 xmoment=   0.0000E+00 ymoment=   0.0000E+00 zmoment=   0.0000E+00
 nd#    1733  xforce=   0.0000E+00   yforce=   0.0000E+00  zforce=  -1.2920E+02   energy=   2.1029E-03   setid =    1733 xmoment=   0.0000E+00 ymoment=   0.0000E+00 zmoment=   0.0000E+00
 nd#    1734  xforce=   0.0000E+00   yforce=   0.0000E+00  zforce=  -1.4258E+02   energy=   2.3319E-03   setid =    1734 xmoment=   0.0000E+00 ymoment=   0.0000E+00 zmoment=   0.0000E+00
 nd#    1735  xforce=   0.0000E+00   yforce=   0.0000E+00  zforce=  -1.2924E+02   energy=   2.1060E-03   setid =    1735 xmoment=   0.0000E+00 ymoment=   0.0000E+00 zmoment=   0.0000E+00
 nd#    1736  xforce=   0.0000E+00   yforce=   0.0000E+00  zforce=  -1.4566E+02   energy=   2.3758E-03   setid =    1736 xmoment=   0.0000E+00 ymoment=   0.0000E+00 zmoment=   0.0000E+00
 nd#    1737  xforce=   0.0000E+00   yforce=   0.0000E+00  zforce=  -1.2990E+02   energy=   2.1137E-03   setid =    1737 xmoment=   0.0000E+00 ymoment=   0.0000E+00 zmoment=   0.0000E+00
 nd#    1738  xforce=   0.0000E+00   yforce=   0.0000E+00  zforce=  -1.4770E+02   energy=   2.3997E-03   setid =    1738 xmoment=   0.0000E+00 ymoment=   0.0000E+00 zmoment=   0.0000E+00
 nd#    1739  xforce=   0.0000E+00   yforce=   0.0000E+00  zforce=  -1.3059E+02   energy=   2.1208E-03   setid =    1739 xmoment=   0.0000E+00 ymoment=   0.0000E+00 zmoment=   0.0000E+00
 nd#    1740  xforce=   0.0000E+00   yforce=   0.0000E+00  zforce=  -1.4590E+02   energy=   2.3700E-03   setid =    1740 xmoment=   0.0000E+00 ymoment=   0.0000E+00 zmoment=   0.0000E+00
 nd#    1741  xforce=   0.0000E+00   yforce=   0.0000E+00  zforce=  -1.3066E+02   energy=   2.1216E-03   setid =    1741 xmoment=   0.0000E+00 ymoment=   0.0000E+00 zmoment=   0.0000E+00
 nd#    1742  xforce=   0.0000E+00   yforce=   0.0000E+00  zforce=  -1.4137E+02   energy=   2.3072E-03   setid =    1742 xmoment=   0.0000E+00 ymoment=   0.0000E+00 zmoment=   0.0000E+00
 nd#    1743  xforce=   0.0000E+00   yforce=   0.0000E+00  zforce=  -6.5651E+01   energy=   1.0652E-03   setid =    1743 xmoment=   0.0000E+00 ymoment=   0.0000E+00 zmoment=   0.0000E+00
 nd#    1744  xforce=   0.0000E+00   yforce=   0.0000E+00  zforce=  -6.9685E+01   energy=   1.1404E-03   setid =    1744 xmoment=   0.0000E+00 ymoment=   0.0000E+00 zmoment=   0.0000E+00
 nd#    1751  xforce=   0.0000E+00   yforce=   0.0000E+00  zforce=  -9.9115E+01   energy=   1.6042E-03   setid =    1751 xmoment=   0.0000E+00 ymoment=   0.0000E+00 zmoment=   0.0000E+00
 nd#    1752  xforce=   0.0000E+00   yforce=   0.0000E+00  zforce=  -1.1353E+02   energy=   1.8416E-03   setid =    1752 xmoment=   0.0000E+00 ymoment=   0.0000E+00 zmoment=   0.0000E+00
 nd#    1753  xforce=   0.0000E+00   yforce=   0.0000E+00  zforce=  -9.7268E+01   energy=   1.5814E-03   setid =    1753 xmoment=   0.0000E+00 ymoment=   0.0000E+00 zmoment=   0.0000E+00
 nd#    1754  xforce=   0.0000E+00   yforce=   0.0000E+00  zforce=  -1.1248E+02   energy=   1.8296E-03   setid =    1754 xmoment=   0.0000E+00 ymoment=   0.0000E+00 zmoment=   0.0000E+00
 nd#    1755  xforce=   0.0000E+00   yforce=   0.0000E+00  zforce=  -9.6419E+01   energy=   1.5670E-03   setid =    1755 xmoment=   0.0000E+00 ymoment=   0.0000E+00 zmoment=   0.0000E+00
 nd#    1756  xforce=   0.0000E+00   yforce=   0.0000E+00  zforce=  -1.1225E+02   energy=   1.8246E-03   setid =    1756 xmoment=   0.0000E+00 ymoment=   0.0000E+00 zmoment=   0.0000E+00
 nd#    1757  xforce=   0.0000E+00   yforce=   0.0000E+00  zforce=  -9.5998E+01   energy=   1.5601E-03   setid =    1757 xmoment=   0.0000E+00 ymoment=   0.0000E+00 zmoment=   0.0000E+00
 nd#    1758  xforce=   0.0000E+00   yforce=   0.0000E+00  zforce=  -1.1233E+02   energy=   1.8243E-03   setid =    1758 xmoment=   0.0000E+00 ymoment=   0.0000E+00 zmoment=   0.0000E+00
 nd#    1759  xforce=   0.0000E+00   yforce=   0.0000E+00  zforce=  -9.6549E+01   energy=   1.5692E-03   setid =    1759 xmoment=   0.0000E+00 ymoment=   0.0000E+00 zmoment=   0.0000E+00
 nd#    1760  xforce=   0.0000E+00   yforce=   0.0000E+00  zforce=  -1.1265E+02   energy=   1.8295E-03   setid =    1760 xmoment=   0.0000E+00 ymoment=   0.0000E+00 zmoment=   0.0000E+00
 nd#    1761  xforce=   0.0000E+00   yforce=   0.0000E+00  zforce=  -4.9298E+01   energy=   7.9864E-04   setid =    1761 xmoment=   0.0000E+00 ymoment=   0.0000E+00 zmoment=   0.0000E+00
 nd#    1762  xforce=   0.0000E+00   yforce=   0.0000E+00  zforce=  -5.7011E+01   energy=   9.2410E-04   setid =    1762 xmoment=   0.0000E+00 ymoment=   0.0000E+00 zmoment=   0.0000E+00
 nd#    1769  xforce=   0.0000E+00   yforce=   0.0000E+00  zforce=  -3.2368E+01   energy=   5.5416E-04   setid =    1769 xmoment=   0.0000E+00 ymoment=   0.0000E+00 zmoment=   0.0000E+00
 nd#    1770  xforce=   0.0000E+00   yforce=   0.0000E+00  zforce=  -2.9312E+01   energy=   5.1255E-04   setid =    1770 xmoment=   0.0000E+00 ymoment=   0.0000E+00 zmoment=   0.0000E+00
 nd#    1771  xforce=   0.0000E+00   yforce=   0.0000E+00  zforce=  -2.6303E+01   energy=   4.7073E-04   setid =    1771 xmoment=   0.0000E+00 ymoment=   0.0000E+00 zmoment=   0.0000E+00
 nd#    1772  xforce=   0.0000E+00   yforce=   0.0000E+00  zforce=  -2.4234E+01   energy=   4.4305E-04   setid =    1772 xmoment=   0.0000E+00 ymoment=   0.0000E+00 zmoment=   0.0000E+00
 nd#    1773  xforce=   0.0000E+00   yforce=   0.0000E+00  zforce=  -2.2712E+01   energy=   4.2526E-04   setid =    1773 xmoment=   0.0000E+00 ymoment=   0.0000E+00 zmoment=   0.0000E+00
 nd#    1774  xforce=   0.0000E+00   yforce=   0.0000E+00  zforce=  -1.1033E+01   energy=   2.0928E-04   setid =    1774 xmoment=   0.0000E+00 ymoment=   0.0000E+00 zmoment=   0.0000E+00
              xtotal=   0.0000E+00   ytotal=   0.0000E+00  ztotal=  -4.5365E+03   etotal=   7.3966E-02

 n o d a l   f o r c e/e n e r g y    o u t p u t  t=   9.37702E+00

 velocity boundary condition forces/rigid body moments 

 nd#     354  xforce=   0.0000E+00   yforce=   0.0000E+00  zforce=  -5.1546E+01   energy=   1.2334E-03   setid =     354 xmoment=   0.0000E+00 ymoment=   0.0000E+00 zmoment=   0.0000E+00
 nd#     355  xforce=   0.0000E+00   yforce=   0.0000E+00  zforce=  -5.8239E+01   energy=   1.6715E-03   setid =     355 xmoment=   0.0000E+00 ymoment=   0.0000E+00 zmoment=   0.0000E+00
 nd#     356  xforce=   0.0000E+00   yforce=   0.0000E+00  zforce=  -4.1124E+01   energy=   9.5502E-04   setid =     356 xmoment=   0.0000E+00 ymoment=   0.0000E+00 zmoment=   0.0000E+00
 nd#     357  xforce=   0.0000E+00   yforce=   0.0000E+00  zforce=  -5.8121E+01   energy=   9.0126E-04   setid =     357 xmoment=   0.0000E+00 ymoment=   0.0000E+00 zmoment=   0.0000E+00
 nd#     403  xforce=   0.0000E+00   yforce=   0.0000E+00  zforce=  -9.5607E+00   energy=   6.1092E-04   setid =     403 xmoment=   0.0000E+00 ymoment=   0.0000E+00 zmoment=   0.0000E+00
 nd#     404  xforce=   0.0000E+00   yforce=   0.0000E+00  zforce=  -5.6980E+01   energy=   1.1530E-03   setid =     404 xmoment=   0.0000E+00 ymoment=   0.0000E+00 zmoment=   0.0000E+00
 nd#     405  xforce=   0.0000E+00   yforce=   0.0000E+00  zforce=  -1.9716E+01   energy=   8.3214E-04   setid =     405 xmoment=   0.0000E+00 ymoment=   0.0000E+00 zmoment=   0.0000E+00
 nd#     466  xforce=   0.0000E+00   yforce=   0.0000E+00  zforce=  -3.9864E+01   energy=   5.8791E-04   setid =     466 xmoment=   0.0000E+00 ymoment=   0.0000E+00 zmoment=   0.0000E+00
 nd#     467  xforce=   0.0000E+00   yforce=   0.0000E+00  zforce=   2.7904E+01   energy=   1.9376E-04   setid =     467 xmoment=   0.0000E+00 ymoment=   0.0000E+00 zmoment=   0.0000E+00
 nd#     468  xforce=   0.0000E+00   yforce=   0.0000E+00  zforce=  -3.5694E+01   energy=   8.0036E-04   setid =     468 xmoment=   0.0000E+00 ymoment=   0.0000E+00 zmoment=   0.0000E+00
 nd#     469  xforce=   0.0000E+00   yforce=   0.0000E+00  zforce=  -4.1606E+01   energy=   7.6101E-04   setid =     469 xmoment=   0.0000E+00 ymoment=   0.0000E+00 zmoment=   0.0000E+00
 nd#     530  xforce=   0.0000E+00   yforce=   0.0000E+00  zforce=   3.9612E+00   energy=   4.1753E-04   setid =     530 xmoment=   0.0000E+00 ymoment=   0.0000E+00 zmoment=   0.0000E+00
 nd#     531  xforce=   0.0000E+00   yforce=   0.0000E+00  zforce=  -2.6640E+01   energy=   7.9664E-04   setid =     531 xmoment=   0.0000E+00 ymoment=   0.0000E+00 zmoment=   0.0000E+00
 nd#     532  xforce=   0.0000E+00   yforce=   0.0000E+00  zforce=  -1.8448E+00   energy=   6.9954E-04   setid =     532 xmoment=   0.0000E+00 ymoment=   0.0000E+00 zmoment=   0.0000E+00
 nd#     533  xforce=   0.0000E+00   yforce=   0.0000E+00  zforce=   3.6192E+00   energy=   5.1419E-04   setid =     533 xmoment=   0.0000E+00 ymoment=   0.0000E+00 zmoment=   0.0000E+00
 nd#     549  xforce=   0.0000E+00   yforce=   0.0000E+00  zforce=  -5.6974E+00   energy=   3.6986E-04   setid =     549 xmoment=   0.0000E+00 ymoment=   0.0000E+00 zmoment=   0.0000E+00
 nd#     610  xforce=   0.0000E+00   yforce=   0.0000E+00  zforce=  -7.0090E+01   energy=   1.2456E-03   setid =     610 xmoment=   0.0000E+00 ymoment=   0.0000E+00 zmoment=   0.0000E+00
 nd#     611  xforce=   0.0000E+00   yforce=   0.0000E+00  zforce=  -5.7779E+01   energy=   1.2669E-03   setid =     611 xmoment=   0.0000E+00 ymoment=   0.0000E+00 zmoment=   0.0000E+00
 nd#     612  xforce=   0.0000E+00   yforce=   0.0000E+00  zforce=  -1.0121E+02   energy=   2.1469E-03   setid =     612 xmoment=   0.0000E+00 ymoment=   0.0000E+00 zmoment=   0.0000E+00
 nd#     613  xforce=   0.0000E+00   yforce=   0.0000E+00  zforce=  -1.2106E+02   energy=   2.2084E-03   setid =     613 xmoment=   0.0000E+00 ymoment=   0.0000E+00 zmoment=   0.0000E+00
 nd#     629  xforce=   0.0000E+00   yforce=   0.0000E+00  zforce=  -6.2602E+01   energy=   1.1158E-03   setid =     629 xmoment=   0.0000E+00 ymoment=   0.0000E+00 zmoment=   0.0000E+00
 nd#     660  xforce=   0.0000E+00   yforce=   0.0000E+00  zforce=  -6.0808E+01   energy=   8.2039E-04   setid =     660 xmoment=   0.0000E+00 ymoment=   0.0000E+00 zmoment=   0.0000E+00
 nd#     661  xforce=   0.0000E+00   yforce=   0.0000E+00  zforce=  -5.1366E+01   energy=   7.8646E-04   setid =     661 xmoment=   0.0000E+00 ymoment=   0.0000E+00 zmoment=   0.0000E+00
 nd#     692  xforce=   0.0000E+00   yforce=   0.0000E+00  zforce=  -1.0622E+02   energy=   2.0179E-03   setid =     692 xmoment=   0.0000E+00 ymoment=   0.0000E+00 zmoment=   0.0000E+00
 nd#     693  xforce=   0.0000E+00   yforce=   0.0000E+00  zforce=  -9.7300E+01   energy=   1.9299E-03   setid =     693 xmoment=   0.0000E+00 ymoment=   0.0000E+00 zmoment=   0.0000E+00
 nd#     724  xforce=   0.0000E+00   yforce=   0.0000E+00  zforce=  -5.9656E+01   energy=   6.5590E-04   setid =     724 xmoment=   0.0000E+00 ymoment=   0.0000E+00 zmoment=   0.0000E+00
 nd#     725  xforce=   0.0000E+00   yforce=   0.0000E+00  zforce=  -7.6880E+01   energy=   9.3220E-04   setid =     725 xmoment=   0.0000E+00 ymoment=   0.0000E+00 zmoment=   0.0000E+00
 nd#     771  xforce=   0.0000E+00   yforce=   0.0000E+00  zforce=  -2.4671E+01   energy=   6.6054E-04   setid =     771 xmoment=   0.0000E+00 ymoment=   0.0000E+00 zmoment=   0.0000E+00
 nd#     772  xforce=   0.0000E+00   yforce=   0.0000E+00  zforce=  -5.4038E+01   energy=   7.9908E-04   setid =     772 xmoment=   0.0000E+00 ymoment=   0.0000E+00 zmoment=   0.0000E+00
 nd#     773  xforce=   0.0000E+00   yforce=   0.0000E+00  zforce=  -6.6144E+01   energy=   8.1603E-04   setid =     773 xmoment=   0.0000E+00 ymoment=   0.0000E+00 zmoment=   0.0000E+00
 nd#     804  xforce=   0.0000E+00   yforce=   0.0000E+00  zforce=  -7.3843E+01   energy=   9.8122E-04   setid =     804 xmoment=   0.0000E+00 ymoment=   0.0000E+00 zmoment=   0.0000E+00
 nd#     805  xforce=   0.0000E+00   yforce=   0.0000E+00  zforce=  -7.9114E+01   energy=   1.2949E-03   setid =     805 xmoment=   0.0000E+00 ymoment=   0.0000E+00 zmoment=   0.0000E+00
 nd#     821  xforce=   0.0000E+00   yforce=   0.0000E+00  zforce=  -7.4630E+01   energy=   8.3907E-04   setid =     821 xmoment=   0.0000E+00 ymoment=   0.0000E+00 zmoment=   0.0000E+00
 nd#     852  xforce=   0.0000E+00   yforce=   0.0000E+00  zforce=   4.7471E+01   energy=   2.5640E-04   setid =     852 xmoment=   0.0000E+00 ymoment=   0.0000E+00 zmoment=   0.0000E+00
 nd#     853  xforce=   0.0000E+00   yforce=   0.0000E+00  zforce=  -2.2987E+01   energy=   8.2597E-04   setid =     853 xmoment=   0.0000E+00 ymoment=   0.0000E+00 zmoment=   0.0000E+00
 nd#     869  xforce=   0.0000E+00   yforce=   0.0000E+00  zforce=  -7.0381E+01   energy=   8.7039E-04   setid =     869 xmoment=   0.0000E+00 ymoment=   0.0000E+00 zmoment=   0.0000E+00
 nd#     885  xforce=   0.0000E+00   yforce=   0.0000E+00  zforce=  -4.6559E+01   energy=   7.0359E-04   setid =     885 xmoment=   0.0000E+00 ymoment=   0.0000E+00 zmoment=   0.0000E+00
 nd#    1082  xforce=   0.0000E+00   yforce=   0.0000E+00  zforce=   2.9874E+01   energy=   1.8999E-04   setid =    1082 xmoment=   0.0000E+00 ymoment=   0.0000E+00 zmoment=   0.0000E+00
 nd#    1083  xforce=   0.0000E+00   yforce=   0.0000E+00  zforce=  -1.4766E+01   energy=   1.7763E-03   setid =    1083 xmoment=   0.0000E+00 ymoment=   0.0000E+00 zmoment=   0.0000E+00
 nd#    1084  xforce=   0.0000E+00   yforce=   0.0000E+00  zforce=  -3.3718E+01   energy=   1.7657E-03   setid =    1084 xmoment=   0.0000E+00 ymoment=   0.0000E+00 zmoment=   0.0000E+00
 nd#    1085  xforce=   0.0000E+00   yforce=   0.0000E+00  zforce=  -5.2306E+01   energy=   1.7188E-03   setid =    1085 xmoment=   0.0000E+00 ymoment=   0.0000E+00 zmoment=   0.0000E+00
 nd#    1086  xforce=   0.0000E+00   yforce=   0.0000E+00  zforce=  -6.3915E+01   energy=   1.6365E-03   setid =    1086 xmoment=   0.0000E+00 ymoment=   0.0000E+00 zmoment=   0.0000E+00
 nd#    1087  xforce=   0.0000E+00   yforce=   0.0000E+00  zforce=  -7.4483E+01   energy=   1.5381E-03   setid =    1087 xmoment=   0.0000E+00 ymoment=   0.0000E+00 zmoment=   0.0000E+00
 nd#    1649  xforce=   0.0000E+00   yforce=   0.0000E+00  zforce=  -1.1385E+02   energy=   2.7951E-03   setid =    1649 xmoment=   0.0000E+00 ymoment=   0.0000E+00 zmoment=   0.0000E+00
 nd#    1651  xforce=   0.0000E+00   yforce=   0.0000E+00  zforce=  -1.5689E+02   energy=   3.0524E-03   setid =    1651 xmoment=   0.0000E+00 ymoment=   0.0000E+00 zmoment=   0.0000E+00
 nd#    1653  xforce=   0.0000E+00   yforce=   0.0000E+00  zforce=  -1.5051E+02   energy=   2.9769E-03   setid =    1653 xmoment=   0.0000E+00 ymoment=   0.0000E+00 zmoment=   0.0000E+00
 nd#    1655  xforce=   0.0000E+00   yforce=   0.0000E+00  zforce=  -1.4971E+02   energy=   2.9710E-03   setid =    1655 xmoment=   0.0000E+00 ymoment=   0.0000E+00 zmoment=   0.0000E+00
 nd#    1657  xforce=   0.0000E+00   yforce=   0.0000E+00  zforce=  -1.1896E+02   energy=   2.7850E-03   setid =    1657 xmoment=   0.0000E+00 ymoment=   0.0000E+00 zmoment=   0.0000E+00
 nd#    1659  xforce=   0.0000E+00   yforce=   0.0000E+00  zforce=  -6.1206E+01   energy=   1.4379E-03   setid =    1659 xmoment=   0.0000E+00 ymoment=   0.0000E+00 zmoment=   0.0000E+00
 nd#    1733  xforce=   0.0000E+00   yforce=   0.0000E+00  zforce=  -1.0488E+02   energy=   3.8087E-03   setid =    1733 xmoment=   0.0000E+00 ymoment=   0.0000E+00 zmoment=   0.0000E+00
 nd#    1734  xforce=   0.0000E+00   yforce=   0.0000E+00  zforce=  -8.4025E+01   energy=   3.9831E-03   setid =    1734 xmoment=   0.0000E+00 ymoment=   0.0000E+00 zmoment=   0.0000E+00
 nd#    1735  xforce=   0.0000E+00   yforce=   0.0000E+00  zforce=  -1.5126E+02   energy=   4.1500E-03   setid =    1735 xmoment=   0.0000E+00 ymoment=   0.0000E+00 zmoment=   0.0000E+00
 nd#    1736  xforce=   0.0000E+00   yforce=   0.0000E+00  zforce=  -1.3247E+02   energy=   4.4025E-03   setid =    1736 xmoment=   0.0000E+00 ymoment=   0.0000E+00 zmoment=   0.0000E+00
 nd#    1737  xforce=   0.0000E+00   yforce=   0.0000E+00  zforce=  -1.5789E+02   energy=   4.2108E-03   setid =    1737 xmoment=   0.0000E+00 ymoment=   0.0000E+00 zmoment=   0.0000E+00
 nd#    1738  xforce=   0.0000E+00   yforce=   0.0000E+00  zforce=  -1.5107E+02   energy=   4.5768E-03   setid =    1738 xmoment=   0.0000E+00 ymoment=   0.0000E+00 zmoment=   0.0000E+00
 nd#    1739  xforce=   0.0000E+00   yforce=   0.0000E+00  zforce=  -1.7656E+02   energy=   4.3590E-03   setid =    1739 xmoment=   0.0000E+00 ymoment=   0.0000E+00 zmoment=   0.0000E+00
 nd#    1740  xforce=   0.0000E+00   yforce=   0.0000E+00  zforce=  -1.4980E+02   energy=   4.5248E-03   setid =    1740 xmoment=   0.0000E+00 ymoment=   0.0000E+00 zmoment=   0.0000E+00
 nd#    1741  xforce=   0.0000E+00   yforce=   0.0000E+00  zforce=  -1.3283E+02   energy=   4.0416E-03   setid =    1741 xmoment=   0.0000E+00 ymoment=   0.0000E+00 zmoment=   0.0000E+00
 nd#    1742  xforce=   0.0000E+00   yforce=   0.0000E+00  zforce=  -7.5552E+01   energy=   3.8879E-03   setid =    1742 xmoment=   0.0000E+00 ymoment=   0.0000E+00 zmoment=   0.0000E+00
 nd#    1743  xforce=   0.0000E+00   yforce=   0.0000E+00  zforce=  -5.1933E+01   energy=   1.9221E-03   setid =    1743 xmoment=   0.0000E+00 ymoment=   0.0000E+00 zmoment=   0.0000E+00
 nd#    1744  xforce=   0.0000E+00   yforce=   0.0000E+00  zforce=  -8.7080E+00   energy=   1.7116E-03   setid =    1744 xmoment=   0.0000E+00 ymoment=   0.0000E+00 zmoment=   0.0000E+00
 nd#    1751  xforce=   0.0000E+00   yforce=   0.0000E+00  zforce=  -1.1891E+02   energy=   3.1930E-03   setid =    1751 xmoment=   0.0000E+00 ymoment=   0.0000E+00 zmoment=   0.0000E+00
 nd#    1752  xforce=   0.0000E+00   yforce=   0.0000E+00  zforce=  -1.1983E+02   energy=   3.5420E-03   setid =    1752 xmoment=   0.0000E+00 ymoment=   0.0000E+00 zmoment=   0.0000E+00
 nd#    1753  xforce=   0.0000E+00   yforce=   0.0000E+00  zforce=  -1.6724E+02   energy=   3.5089E-03   setid =    1753 xmoment=   0.0000E+00 ymoment=   0.0000E+00 zmoment=   0.0000E+00
 nd#    1754  xforce=   0.0000E+00   yforce=   0.0000E+00  zforce=  -1.6639E+02   energy=   3.8617E-03   setid =    1754 xmoment=   0.0000E+00 ymoment=   0.0000E+00 zmoment=   0.0000E+00
 nd#    1755  xforce=   0.0000E+00   yforce=   0.0000E+00  zforce=  -1.6115E+02   energy=   3.4439E-03   setid =    1755 xmoment=   0.0000E+00 ymoment=   0.0000E+00 zmoment=   0.0000E+00
 nd#    1756  xforce=   0.0000E+00   yforce=   0.0000E+00  zforce=  -1.6646E+02   energy=   3.8555E-03   setid =    1756 xmoment=   0.0000E+00 ymoment=   0.0000E+00 zmoment=   0.0000E+00
 nd#    1757  xforce=   0.0000E+00   yforce=   0.0000E+00  zforce=  -1.6065E+02   energy=   3.4303E-03   setid =    1757 xmoment=   0.0000E+00 ymoment=   0.0000E+00 zmoment=   0.0000E+00
 nd#    1758  xforce=   0.0000E+00   yforce=   0.0000E+00  zforce=  -1.7450E+02   energy=   3.9144E-03   setid =    1758 xmoment=   0.0000E+00 ymoment=   0.0000E+00 zmoment=   0.0000E+00
 nd#    1759  xforce=   0.0000E+00   yforce=   0.0000E+00  zforce=  -1.3282E+02   energy=   3.2406E-03   setid =    1759 xmoment=   0.0000E+00 ymoment=   0.0000E+00 zmoment=   0.0000E+00
 nd#    1760  xforce=   0.0000E+00   yforce=   0.0000E+00  zforce=  -1.3398E+02   energy=   3.6267E-03   setid =    1760 xmoment=   0.0000E+00 ymoment=   0.0000E+00 zmoment=   0.0000E+00
 nd#    1761  xforce=   0.0000E+00   yforce=   0.0000E+00  zforce=  -5.9603E+01   energy=   1.5922E-03   setid =    1761 xmoment=   0.0000E+00 ymoment=   0.0000E+00 zmoment=   0.0000E+00
 nd#    1762  xforce=   0.0000E+00   yforce=   0.0000E+00  zforce=  -5.9047E+01   energy=   1.7698E-03   setid =    1762 xmoment=   0.0000E+00 ymoment=   0.0000E+00 zmoment=   0.0000E+00
 nd#    1769  xforce=   0.0000E+00   yforce=   0.0000E+00  zforce=   5.0530E+01   energy=   4.2181E-04   setid =    1769 xmoment=   0.0000E+00 ymoment=   0.0000E+00 zmoment=   0.0000E+00
 nd#    1770  xforce=   0.0000E+00   yforce=   0.0000E+00  zforce=   6.9268E+01   energy=   2.2139E-04   setid =    1770 xmoment=   0.0000E+00 ymoment=   0.0000E+00 zmoment=   0.0000E+00
 nd#    1771  xforce=   0.0000E+00   yforce=   0.0000E+00  zforce=   8.9172E+01   energy=   1.2604E-05   setid =    1771 xmoment=   0.0000E+00 ymoment=   0.0000E+00 zmoment=   0.0000E+00
 nd#    1772  xforce=   0.0000E+00   yforce=   0.0000E+00  zforce=   9.8420E+01   energy=  -9.7545E-05   setid =    1772 xmoment=   0.0000E+00 ymoment=   0.0000E+00 zmoment=   0.0000E+00
 nd#    1773  xforce=   0.0000E+00   yforce=   0.0000E+00  zforce=   1.2294E+02   energy=  -3.0506E-04   setid =    1773 xmoment=   0.0000E+00 ymoment=   0.0000E+00 zmoment=   0.0000E+00
 nd#    1774  xforce=   0.0000E+00   yforce=   0.0000E+00  zforce=   7.1284E+01   energy=  -2.2977E-04   setid =    1774 xmoment=   0.0000E+00 ymoment=   0.0000E+00 zmoment=   0.0000E+00
              xtotal=   0.0000E+00   ytotal=   0.0000E+00  ztotal=  -5.1974E+03   etotal=   1.4490E-01

 n o d a l   f o r c e/e n e r g y    o u t p u t  t=   1.08379E+01

 velocity boundary condition forces/rigid body moments 

 nd#     354  xforce=   0.0000E+00   yforce=   0.0000E+00  zforce=  -5.9207E+01   energy=   1.6379E-03   setid =     354 xmoment=   0.0000E+00 ymoment=   0.0000E+00 zmoment=   0.0000E+00
 nd#     355  xforce=   0.0000E+00   yforce=   0.0000E+00  zforce=  -6.2805E+01   energy=   2.1135E-03   setid =     355 xmoment=   0.0000E+00 ymoment=   0.0000E+00 zmoment=   0.0000E+00
 nd#     356  xforce=   0.0000E+00   yforce=   0.0000E+00  zforce=  -4.1520E+01   energy=   1.2568E-03   setid =     356 xmoment=   0.0000E+00 ymoment=   0.0000E+00 zmoment=   0.0000E+00
 nd#     357  xforce=   0.0000E+00   yforce=   0.0000E+00  zforce=  -5.4354E+01   energy=   1.3120E-03   setid =     357 xmoment=   0.0000E+00 ymoment=   0.0000E+00 zmoment=   0.0000E+00
 nd#     403  xforce=   0.0000E+00   yforce=   0.0000E+00  zforce=  -2.6949E+01   energy=   7.4426E-04   setid =     403 xmoment=   0.0000E+00 ymoment=   0.0000E+00 zmoment=   0.0000E+00
 nd#     404  xforce=   0.0000E+00   yforce=   0.0000E+00  zforce=  -5.8590E+01   energy=   1.5750E-03   setid =     404 xmoment=   0.0000E+00 ymoment=   0.0000E+00 zmoment=   0.0000E+00
 nd#     405  xforce=   0.0000E+00   yforce=   0.0000E+00  zforce=  -3.2621E+01   energy=   1.0233E-03   setid =     405 xmoment=   0.0000E+00 ymoment=   0.0000E+00 zmoment=   0.0000E+00
 nd#     466  xforce=   0.0000E+00   yforce=   0.0000E+00  zforce=  -2.9751E+01   energy=   8.4215E-04   setid =     466 xmoment=   0.0000E+00 ymoment=   0.0000E+00 zmoment=   0.0000E+00
 nd#     467  xforce=   0.0000E+00   yforce=   0.0000E+00  zforce=  -1.7261E+00   energy=   9.8155E-05   setid =     467 xmoment=   0.0000E+00 ymoment=   0.0000E+00 zmoment=   0.0000E+00
 nd#     468  xforce=   0.0000E+00   yforce=   0.0000E+00  zforce=  -4.5624E+01   energy=   1.0973E-03   setid =     468 xmoment=   0.0000E+00 ymoment=   0.0000E+00 zmoment=   0.0000E+00
 nd#     469  xforce=   0.0000E+00   yforce=   0.0000E+00  zforce=  -3.6459E+01   energy=   1.0461E-03   setid =     469 xmoment=   0.0000E+00 ymoment=   0.0000E+00 zmoment=   0.0000E+00
 nd#     530  xforce=   0.0000E+00   yforce=   0.0000E+00  zforce=  -1.2673E+01   energy=   4.4935E-04   setid =     530 xmoment=   0.0000E+00 ymoment=   0.0000E+00 zmoment=   0.0000E+00
 nd#     531  xforce=   0.0000E+00   yforce=   0.0000E+00  zforce=  -3.4372E+01   energy=   1.0195E-03   setid =     531 xmoment=   0.0000E+00 ymoment=   0.0000E+00 zmoment=   0.0000E+00
 nd#     532  xforce=   0.0000E+00   yforce=   0.0000E+00  zforce=   1.0581E+01   energy=   6.6763E-04   setid =     532 xmoment=   0.0000E+00 ymoment=   0.0000E+00 zmoment=   0.0000E+00
 nd#     533  xforce=   0.0000E+00   yforce=   0.0000E+00  zforce=   3.3595E+01   energy=   3.7828E-04   setid =     533 xmoment=   0.0000E+00 ymoment=   0.0000E+00 zmoment=   0.0000E+00
 nd#     549  xforce=   0.0000E+00   yforce=   0.0000E+00  zforce=  -6.7288E+00   energy=   4.1525E-04   setid =     549 xmoment=   0.0000E+00 ymoment=   0.0000E+00 zmoment=   0.0000E+00
 nd#     610  xforce=   0.0000E+00   yforce=   0.0000E+00  zforce=  -7.4856E+01   energy=   1.7749E-03   setid =     610 xmoment=   0.0000E+00 ymoment=   0.0000E+00 zmoment=   0.0000E+00
 nd#     611  xforce=   0.0000E+00   yforce=   0.0000E+00  zforce=  -6.5835E+01   energy=   1.7184E-03   setid =     611 xmoment=   0.0000E+00 ymoment=   0.0000E+00 zmoment=   0.0000E+00
 nd#     612  xforce=   0.0000E+00   yforce=   0.0000E+00  zforce=  -1.0883E+02   energy=   2.9140E-03   setid =     612 xmoment=   0.0000E+00 ymoment=   0.0000E+00 zmoment=   0.0000E+00
 nd#     613  xforce=   0.0000E+00   yforce=   0.0000E+00  zforce=  -1.1533E+02   energy=   3.0717E-03   setid =     613 xmoment=   0.0000E+00 ymoment=   0.0000E+00 zmoment=   0.0000E+00
 nd#     629  xforce=   0.0000E+00   yforce=   0.0000E+00  zforce=  -6.0302E+01   energy=   1.5646E-03   setid =     629 xmoment=   0.0000E+00 ymoment=   0.0000E+00 zmoment=   0.0000E+00
 nd#     660  xforce=   0.0000E+00   yforce=   0.0000E+00  zforce=  -5.6267E+01   energy=   1.2480E-03   setid =     660 xmoment=   0.0000E+00 ymoment=   0.0000E+00 zmoment=   0.0000E+00
 nd#     661  xforce=   0.0000E+00   yforce=   0.0000E+00  zforce=  -2.8977E+01   energy=   1.0799E-03   setid =     661 xmoment=   0.0000E+00 ymoment=   0.0000E+00 zmoment=   0.0000E+00
 nd#     692  xforce=   0.0000E+00   yforce=   0.0000E+00  zforce=  -1.0488E+02   energy=   2.7888E-03   setid =     692 xmoment=   0.0000E+00 ymoment=   0.0000E+00 zmoment=   0.0000E+00
 nd#     693  xforce=   0.0000E+00   yforce=   0.0000E+00  zforce=  -9.5052E+01   energy=   2.6324E-03   setid =     693 xmoment=   0.0000E+00 ymoment=   0.0000E+00 zmoment=   0.0000E+00
 nd#     724  xforce=   0.0000E+00   yforce=   0.0000E+00  zforce=  -6.6202E+01   energy=   1.1155E-03   setid =     724 xmoment=   0.0000E+00 ymoment=   0.0000E+00 zmoment=   0.0000E+00
 nd#     725  xforce=   0.0000E+00   yforce=   0.0000E+00  zforce=  -1.0162E+02   energy=   1.5841E-03   setid =     725 xmoment=   0.0000E+00 ymoment=   0.0000E+00 zmoment=   0.0000E+00
 nd#     771  xforce=   0.0000E+00   yforce=   0.0000E+00  zforce=  -1.6648E+01   energy=   8.1144E-04   setid =     771 xmoment=   0.0000E+00 ymoment=   0.0000E+00 zmoment=   0.0000E+00
 nd#     772  xforce=   0.0000E+00   yforce=   0.0000E+00  zforce=  -4.7241E+01   energy=   1.1690E-03   setid =     772 xmoment=   0.0000E+00 ymoment=   0.0000E+00 zmoment=   0.0000E+00
 nd#     773  xforce=   0.0000E+00   yforce=   0.0000E+00  zforce=  -4.8748E+01   energy=   1.2356E-03   setid =     773 xmoment=   0.0000E+00 ymoment=   0.0000E+00 zmoment=   0.0000E+00
 nd#     804  xforce=   0.0000E+00   yforce=   0.0000E+00  zforce=  -6.4191E+01   energy=   1.4853E-03   setid =     804 xmoment=   0.0000E+00 ymoment=   0.0000E+00 zmoment=   0.0000E+00
 nd#     805  xforce=   0.0000E+00   yforce=   0.0000E+00  zforce=  -6.8782E+01   energy=   1.8351E-03   setid =     805 xmoment=   0.0000E+00 ymoment=   0.0000E+00 zmoment=   0.0000E+00
 nd#     821  xforce=   0.0000E+00   yforce=   0.0000E+00  zforce=  -8.0284E+01   energy=   1.4048E-03   setid =     821 xmoment=   0.0000E+00 ymoment=   0.0000E+00 zmoment=   0.0000E+00
 nd#     852  xforce=   0.0000E+00   yforce=   0.0000E+00  zforce=   5.4755E+01   energy=  -1.1694E-04   setid =     852 xmoment=   0.0000E+00 ymoment=   0.0000E+00 zmoment=   0.0000E+00
 nd#     853  xforce=   0.0000E+00   yforce=   0.0000E+00  zforce=  -1.2705E+01   energy=   9.5632E-04   setid =     853 xmoment=   0.0000E+00 ymoment=   0.0000E+00 zmoment=   0.0000E+00
 nd#     869  xforce=   0.0000E+00   yforce=   0.0000E+00  zforce=  -5.5633E+01   energy=   1.3306E-03   setid =     869 xmoment=   0.0000E+00 ymoment=   0.0000E+00 zmoment=   0.0000E+00
 nd#     885  xforce=   0.0000E+00   yforce=   0.0000E+00  zforce=  -4.9757E+01   energy=   1.0553E-03   setid =     885 xmoment=   0.0000E+00 ymoment=   0.0000E+00 zmoment=   0.0000E+00
 nd#    1082  xforce=   0.0000E+00   yforce=   0.0000E+00  zforce=   2.4908E+01   energy=  -1.0079E-05   setid =    1082 xmoment=   0.0000E+00 ymoment=   0.0000E+00 zmoment=   0.0000E+00
 nd#    1083  xforce=   0.0000E+00   yforce=   0.0000E+00  zforce=  -2.1094E+01   energy=   1.9073E-03   setid =    1083 xmoment=   0.0000E+00 ymoment=   0.0000E+00 zmoment=   0.0000E+00
 nd#    1084  xforce=   0.0000E+00   yforce=   0.0000E+00  zforce=  -3.5458E+01   energy=   2.0184E-03   setid =    1084 xmoment=   0.0000E+00 ymoment=   0.0000E+00 zmoment=   0.0000E+00
 nd#    1085  xforce=   0.0000E+00   yforce=   0.0000E+00  zforce=  -4.8735E+01   energy=   2.0878E-03   setid =    1085 xmoment=   0.0000E+00 ymoment=   0.0000E+00 zmoment=   0.0000E+00
 nd#    1086  xforce=   0.0000E+00   yforce=   0.0000E+00  zforce=  -5.5706E+01   energy=   2.0734E-03   setid =    1086 xmoment=   0.0000E+00 ymoment=   0.0000E+00 zmoment=   0.0000E+00
 nd#    1087  xforce=   0.0000E+00   yforce=   0.0000E+00  zforce=  -6.4112E+01   energy=   2.0443E-03   setid =    1087 xmoment=   0.0000E+00 ymoment=   0.0000E+00 zmoment=   0.0000E+00
 nd#    1649  xforce=   0.0000E+00   yforce=   0.0000E+00  zforce=  -1.2471E+02   energy=   3.6663E-03   setid =    1649 xmoment=   0.0000E+00 ymoment=   0.0000E+00 zmoment=   0.0000E+00
 nd#    1651  xforce=   0.0000E+00   yforce=   0.0000E+00  zforce=  -1.4846E+02   energy=   4.1676E-03   setid =    1651 xmoment=   0.0000E+00 ymoment=   0.0000E+00 zmoment=   0.0000E+00
 nd#    1653  xforce=   0.0000E+00   yforce=   0.0000E+00  zforce=  -1.4714E+02   energy=   4.0640E-03   setid =    1653 xmoment=   0.0000E+00 ymoment=   0.0000E+00 zmoment=   0.0000E+00
 nd#    1655  xforce=   0.0000E+00   yforce=   0.0000E+00  zforce=  -1.4204E+02   energy=   4.0365E-03   setid =    1655 xmoment=   0.0000E+00 ymoment=   0.0000E+00 zmoment=   0.0000E+00
 nd#    1657  xforce=   0.0000E+00   yforce=   0.0000E+00  zforce=  -1.1782E+02   energy=   3.6498E-03   setid =    1657 xmoment=   0.0000E+00 ymoment=   0.0000E+00 zmoment=   0.0000E+00
 nd#    1659  xforce=   0.0000E+00   yforce=   0.0000E+00  zforce=  -6.2268E+01   energy=   1.8888E-03   setid =    1659 xmoment=   0.0000E+00 ymoment=   0.0000E+00 zmoment=   0.0000E+00
 nd#    1733  xforce=   0.0000E+00   yforce=   0.0000E+00  zforce=  -1.2210E+02   energy=   4.6377E-03   setid =    1733 xmoment=   0.0000E+00 ymoment=   0.0000E+00 zmoment=   0.0000E+00
 nd#    1734  xforce=   0.0000E+00   yforce=   0.0000E+00  zforce=  -1.0397E+02   energy=   4.6697E-03   setid =    1734 xmoment=   0.0000E+00 ymoment=   0.0000E+00 zmoment=   0.0000E+00
 nd#    1735  xforce=   0.0000E+00   yforce=   0.0000E+00  zforce=  -1.5391E+02   energy=   5.2645E-03   setid =    1735 xmoment=   0.0000E+00 ymoment=   0.0000E+00 zmoment=   0.0000E+00
 nd#    1736  xforce=   0.0000E+00   yforce=   0.0000E+00  zforce=  -1.4408E+02   energy=   5.4125E-03   setid =    1736 xmoment=   0.0000E+00 ymoment=   0.0000E+00 zmoment=   0.0000E+00
 nd#    1737  xforce=   0.0000E+00   yforce=   0.0000E+00  zforce=  -1.6237E+02   energy=   5.3804E-03   setid =    1737 xmoment=   0.0000E+00 ymoment=   0.0000E+00 zmoment=   0.0000E+00
 nd#    1738  xforce=   0.0000E+00   yforce=   0.0000E+00  zforce=  -1.6108E+02   energy=   5.7168E-03   setid =    1738 xmoment=   0.0000E+00 ymoment=   0.0000E+00 zmoment=   0.0000E+00
 nd#    1739  xforce=   0.0000E+00   yforce=   0.0000E+00  zforce=  -1.6844E+02   energy=   5.6190E-03   setid =    1739 xmoment=   0.0000E+00 ymoment=   0.0000E+00 zmoment=   0.0000E+00
 nd#    1740  xforce=   0.0000E+00   yforce=   0.0000E+00  zforce=  -1.5222E+02   energy=   5.6278E-03   setid =    1740 xmoment=   0.0000E+00 ymoment=   0.0000E+00 zmoment=   0.0000E+00
 nd#    1741  xforce=   0.0000E+00   yforce=   0.0000E+00  zforce=  -1.3400E+02   energy=   5.0162E-03   setid =    1741 xmoment=   0.0000E+00 ymoment=   0.0000E+00 zmoment=   0.0000E+00
 nd#    1742  xforce=   0.0000E+00   yforce=   0.0000E+00  zforce=  -8.5993E+01   energy=   4.4779E-03   setid =    1742 xmoment=   0.0000E+00 ymoment=   0.0000E+00 zmoment=   0.0000E+00
 nd#    1743  xforce=   0.0000E+00   yforce=   0.0000E+00  zforce=  -5.6145E+01   energy=   2.3168E-03   setid =    1743 xmoment=   0.0000E+00 ymoment=   0.0000E+00 zmoment=   0.0000E+00
 nd#    1744  xforce=   0.0000E+00   yforce=   0.0000E+00  zforce=  -1.7832E+01   energy=   1.8085E-03   setid =    1744 xmoment=   0.0000E+00 ymoment=   0.0000E+00 zmoment=   0.0000E+00
 nd#    1751  xforce=   0.0000E+00   yforce=   0.0000E+00  zforce=  -1.3220E+02   energy=   4.1101E-03   setid =    1751 xmoment=   0.0000E+00 ymoment=   0.0000E+00 zmoment=   0.0000E+00
 nd#    1752  xforce=   0.0000E+00   yforce=   0.0000E+00  zforce=  -1.3488E+02   energy=   4.4723E-03   setid =    1752 xmoment=   0.0000E+00 ymoment=   0.0000E+00 zmoment=   0.0000E+00
 nd#    1753  xforce=   0.0000E+00   yforce=   0.0000E+00  zforce=  -1.5945E+02   energy=   4.7020E-03   setid =    1753 xmoment=   0.0000E+00 ymoment=   0.0000E+00 zmoment=   0.0000E+00
 nd#    1754  xforce=   0.0000E+00   yforce=   0.0000E+00  zforce=  -1.6292E+02   energy=   5.0644E-03   setid =    1754 xmoment=   0.0000E+00 ymoment=   0.0000E+00 zmoment=   0.0000E+00
 nd#    1755  xforce=   0.0000E+00   yforce=   0.0000E+00  zforce=  -1.5738E+02   energy=   4.6072E-03   setid =    1755 xmoment=   0.0000E+00 ymoment=   0.0000E+00 zmoment=   0.0000E+00
 nd#    1756  xforce=   0.0000E+00   yforce=   0.0000E+00  zforce=  -1.6630E+02   energy=   5.0707E-03   setid =    1756 xmoment=   0.0000E+00 ymoment=   0.0000E+00 zmoment=   0.0000E+00
 nd#    1757  xforce=   0.0000E+00   yforce=   0.0000E+00  zforce=  -1.5265E+02   energy=   4.5745E-03   setid =    1757 xmoment=   0.0000E+00 ymoment=   0.0000E+00 zmoment=   0.0000E+00
 nd#    1758  xforce=   0.0000E+00   yforce=   0.0000E+00  zforce=  -1.6514E+02   energy=   5.1548E-03   setid =    1758 xmoment=   0.0000E+00 ymoment=   0.0000E+00 zmoment=   0.0000E+00
 nd#    1759  xforce=   0.0000E+00   yforce=   0.0000E+00  zforce=  -1.2933E+02   energy=   4.1980E-03   setid =    1759 xmoment=   0.0000E+00 ymoment=   0.0000E+00 zmoment=   0.0000E+00
 nd#    1760  xforce=   0.0000E+00   yforce=   0.0000E+00  zforce=  -1.3372E+02   energy=   4.6044E-03   setid =    1760 xmoment=   0.0000E+00 ymoment=   0.0000E+00 zmoment=   0.0000E+00
 nd#    1761  xforce=   0.0000E+00   yforce=   0.0000E+00  zforce=  -6.4722E+01   energy=   2.0462E-03   setid =    1761 xmoment=   0.0000E+00 ymoment=   0.0000E+00 zmoment=   0.0000E+00
 nd#    1762  xforce=   0.0000E+00   yforce=   0.0000E+00  zforce=  -6.2762E+01   energy=   2.2147E-03   setid =    1762 xmoment=   0.0000E+00 ymoment=   0.0000E+00 zmoment=   0.0000E+00
 nd#    1769  xforce=   0.0000E+00   yforce=   0.0000E+00  zforce=   3.7086E+01   energy=   1.0183E-04   setid =    1769 xmoment=   0.0000E+00 ymoment=   0.0000E+00 zmoment=   0.0000E+00
 nd#    1770  xforce=   0.0000E+00   yforce=   0.0000E+00  zforce=   5.5510E+01   energy=  -2.3432E-04   setid =    1770 xmoment=   0.0000E+00 ymoment=   0.0000E+00 zmoment=   0.0000E+00
 nd#    1771  xforce=   0.0000E+00   yforce=   0.0000E+00  zforce=   7.4681E+01   energy=  -5.8581E-04   setid =    1771 xmoment=   0.0000E+00 ymoment=   0.0000E+00 zmoment=   0.0000E+00
 nd#    1772  xforce=   0.0000E+00   yforce=   0.0000E+00  zforce=   7.9743E+01   energy=  -7.4822E-04   setid =    1772 xmoment=   0.0000E+00 ymoment=   0.0000E+00 zmoment=   0.0000E+00
 nd#    1773  xforce=   0.0000E+00   yforce=   0.0000E+00  zforce=   9.9614E+01   energy=  -1.1178E-03   setid =    1773 xmoment=   0.0000E+00 ymoment=   0.0000E+00 zmoment=   0.0000E+00
 nd#    1774  xforce=   0.0000E+00   yforce=   0.0000E+00  zforce=   5.9839E+01   energy=  -7.0865E-04   setid =    1774 xmoment=   0.0000E+00 ymoment=   0.0000E+00 zmoment=   0.0000E+00
              xtotal=   0.0000E+00   ytotal=   0.0000E+00  ztotal=  -5.3463E+03   etotal=   1.8340E-01

 n o d a l   f o r c e/e n e r g y    o u t p u t  t=   1.46140E+01

 velocity boundary condition forces/rigid body moments 

 nd#     354  xforce=   0.0000E+00   yforce=   0.0000E+00  zforce=  -6.5206E+01   energy=   2.8159E-03   setid =     354 xmoment=   0.0000E+00 ymoment=   0.0000E+00 zmoment=   0.0000E+00
 nd#     355  xforce=   0.0000E+00   yforce=   0.0000E+00  zforce=  -6.5921E+01   energy=   3.3267E-03   setid =     355 xmoment=   0.0000E+00 ymoment=   0.0000E+00 zmoment=   0.0000E+00
 nd#     356  xforce=   0.0000E+00   yforce=   0.0000E+00  zforce=  -4.5770E+01   energy=   2.0890E-03   setid =     356 xmoment=   0.0000E+00 ymoment=   0.0000E+00 zmoment=   0.0000E+00
 nd#     357  xforce=   0.0000E+00   yforce=   0.0000E+00  zforce=  -6.0842E+01   energy=   2.4023E-03   setid =     357 xmoment=   0.0000E+00 ymoment=   0.0000E+00 zmoment=   0.0000E+00
 nd#     403  xforce=   0.0000E+00   yforce=   0.0000E+00  zforce=  -2.8590E+01   energy=   1.2644E-03   setid =     403 xmoment=   0.0000E+00 ymoment=   0.0000E+00 zmoment=   0.0000E+00
 nd#     404  xforce=   0.0000E+00   yforce=   0.0000E+00  zforce=  -6.7152E+01   energy=   2.7719E-03   setid =     404 xmoment=   0.0000E+00 ymoment=   0.0000E+00 zmoment=   0.0000E+00
 nd#     405  xforce=   0.0000E+00   yforce=   0.0000E+00  zforce=  -3.4575E+01   energy=   1.6574E-03   setid =     405 xmoment=   0.0000E+00 ymoment=   0.0000E+00 zmoment=   0.0000E+00
 nd#     466  xforce=   0.0000E+00   yforce=   0.0000E+00  zforce=  -3.7924E+01   energy=   1.4807E-03   setid =     466 xmoment=   0.0000E+00 ymoment=   0.0000E+00 zmoment=   0.0000E+00
 nd#     467  xforce=   0.0000E+00   yforce=   0.0000E+00  zforce=  -6.6083E+00   energy=   2.0328E-04   setid =     467 xmoment=   0.0000E+00 ymoment=   0.0000E+00 zmoment=   0.0000E+00
 nd#     468  xforce=   0.0000E+00   yforce=   0.0000E+00  zforce=  -5.2088E+01   energy=   2.0335E-03   setid =     468 xmoment=   0.0000E+00 ymoment=   0.0000E+00 zmoment=   0.0000E+00
 nd#     469  xforce=   0.0000E+00   yforce=   0.0000E+00  zforce=  -4.0094E+01   energy=   1.7600E-03   setid =     469 xmoment=   0.0000E+00 ymoment=   0.0000E+00 zmoment=   0.0000E+00
 nd#     530  xforce=   0.0000E+00   yforce=   0.0000E+00  zforce=  -1.4048E+01   energy=   7.3262E-04   setid =     530 xmoment=   0.0000E+00 ymoment=   0.0000E+00 zmoment=   0.0000E+00
 nd#     531  xforce=   0.0000E+00   yforce=   0.0000E+00  zforce=  -3.8768E+01   energy=   1.7371E-03   setid =     531 xmoment=   0.0000E+00 ymoment=   0.0000E+00 zmoment=   0.0000E+00
 nd#     532  xforce=   0.0000E+00   yforce=   0.0000E+00  zforce=   2.1989E+01   energy=   3.4602E-04   setid =     532 xmoment=   0.0000E+00 ymoment=   0.0000E+00 zmoment=   0.0000E+00
 nd#     533  xforce=   0.0000E+00   yforce=   0.0000E+00  zforce=   4.6208E+01   energy=  -4.0551E-04   setid =     533 xmoment=   0.0000E+00 ymoment=   0.0000E+00 zmoment=   0.0000E+00
 nd#     549  xforce=   0.0000E+00   yforce=   0.0000E+00  zforce=  -6.7741E+00   energy=   5.4485E-04   setid =     549 xmoment=   0.0000E+00 ymoment=   0.0000E+00 zmoment=   0.0000E+00
 nd#     610  xforce=   0.0000E+00   yforce=   0.0000E+00  zforce=  -8.6583E+01   energy=   3.3081E-03   setid =     610 xmoment=   0.0000E+00 ymoment=   0.0000E+00 zmoment=   0.0000E+00
 nd#     611  xforce=   0.0000E+00   yforce=   0.0000E+00  zforce=  -6.9721E+01   energy=   2.9846E-03   setid =     611 xmoment=   0.0000E+00 ymoment=   0.0000E+00 zmoment=   0.0000E+00
 nd#     612  xforce=   0.0000E+00   yforce=   0.0000E+00  zforce=  -1.1585E+02   energy=   5.0333E-03   setid =     612 xmoment=   0.0000E+00 ymoment=   0.0000E+00 zmoment=   0.0000E+00
 nd#     613  xforce=   0.0000E+00   yforce=   0.0000E+00  zforce=  -1.2841E+02   energy=   5.3962E-03   setid =     613 xmoment=   0.0000E+00 ymoment=   0.0000E+00 zmoment=   0.0000E+00
 nd#     629  xforce=   0.0000E+00   yforce=   0.0000E+00  zforce=  -6.8616E+01   energy=   2.7665E-03   setid =     629 xmoment=   0.0000E+00 ymoment=   0.0000E+00 zmoment=   0.0000E+00
 nd#     660  xforce=   0.0000E+00   yforce=   0.0000E+00  zforce=  -6.7954E+01   energy=   2.4286E-03   setid =     660 xmoment=   0.0000E+00 ymoment=   0.0000E+00 zmoment=   0.0000E+00
 nd#     661  xforce=   0.0000E+00   yforce=   0.0000E+00  zforce=  -2.7958E+01   energy=   1.5982E-03   setid =     661 xmoment=   0.0000E+00 ymoment=   0.0000E+00 zmoment=   0.0000E+00
 nd#     692  xforce=   0.0000E+00   yforce=   0.0000E+00  zforce=  -1.1496E+02   energy=   4.8546E-03   setid =     692 xmoment=   0.0000E+00 ymoment=   0.0000E+00 zmoment=   0.0000E+00
 nd#     693  xforce=   0.0000E+00   yforce=   0.0000E+00  zforce=  -1.0126E+02   energy=   4.4823E-03   setid =     693 xmoment=   0.0000E+00 ymoment=   0.0000E+00 zmoment=   0.0000E+00
[...]
 nd#    1737  xforce=   0.0000E+00   yforce=   0.0000E+00  zforce=  -1.9485E+02   energy=   1.0120E-01   setid =    1737 xmoment=   0.0000E+00 ymoment=   0.0000E+00 zmoment=   0.0000E+00
 nd#    1738  xforce=   0.0000E+00   yforce=   0.0000E+00  zforce=  -1.7630E+02   energy=   9.6295E-02   setid =    1738 xmoment=   0.0000E+00 ymoment=   0.0000E+00 zmoment=   0.0000E+00
 nd#    1739  xforce=   0.0000E+00   yforce=   0.0000E+00  zforce=  -1.9379E+02   energy=   1.0539E-01   setid =    1739 xmoment=   0.0000E+00 ymoment=   0.0000E+00 zmoment=   0.0000E+00
 nd#    1740  xforce=   0.0000E+00   yforce=   0.0000E+00  zforce=  -1.5002E+02   energy=   8.9288E-02   setid =    1740 xmoment=   0.0000E+00 ymoment=   0.0000E+00 zmoment=   0.0000E+00
 nd#    1741  xforce=   0.0000E+00   yforce=   0.0000E+00  zforce=  -1.2320E+02   energy=   7.8550E-02   setid =    1741 xmoment=   0.0000E+00 ymoment=   0.0000E+00 zmoment=   0.0000E+00
 nd#    1742  xforce=   0.0000E+00   yforce=   0.0000E+00  zforce=  -5.2790E+01   energy=   4.6619E-02   setid =    1742 xmoment=   0.0000E+00 ymoment=   0.0000E+00 zmoment=   0.0000E+00
 nd#    1743  xforce=   0.0000E+00   yforce=   0.0000E+00  zforce=  -5.1623E+01   energy=   3.2381E-02   setid =    1743 xmoment=   0.0000E+00 ymoment=   0.0000E+00 zmoment=   0.0000E+00
 nd#    1744  xforce=   0.0000E+00   yforce=   0.0000E+00  zforce=  -5.4386E+00   energy=   1.0384E-02   setid =    1744 xmoment=   0.0000E+00 ymoment=   0.0000E+00 zmoment=   0.0000E+00
 nd#    1751  xforce=   0.0000E+00   yforce=   0.0000E+00  zforce=  -1.5136E+02   energy=   7.8239E-02   setid =    1751 xmoment=   0.0000E+00 ymoment=   0.0000E+00 zmoment=   0.0000E+00
 nd#    1752  xforce=   0.0000E+00   yforce=   0.0000E+00  zforce=  -1.4828E+02   energy=   7.8119E-02   setid =    1752 xmoment=   0.0000E+00 ymoment=   0.0000E+00 zmoment=   0.0000E+00
 nd#    1753  xforce=   0.0000E+00   yforce=   0.0000E+00  zforce=  -1.9571E+02   energy=   1.0030E-01   setid =    1753 xmoment=   0.0000E+00 ymoment=   0.0000E+00 zmoment=   0.0000E+00
 nd#    1754  xforce=   0.0000E+00   yforce=   0.0000E+00  zforce=  -2.0284E+02   energy=   1.0347E-01   setid =    1754 xmoment=   0.0000E+00 ymoment=   0.0000E+00 zmoment=   0.0000E+00
 nd#    1755  xforce=   0.0000E+00   yforce=   0.0000E+00  zforce=  -1.8807E+02   energy=   9.5961E-02   setid =    1755 xmoment=   0.0000E+00 ymoment=   0.0000E+00 zmoment=   0.0000E+00
 nd#    1756  xforce=   0.0000E+00   yforce=   0.0000E+00  zforce=  -1.9870E+02   energy=   1.0206E-01   setid =    1756 xmoment=   0.0000E+00 ymoment=   0.0000E+00 zmoment=   0.0000E+00
 nd#    1757  xforce=   0.0000E+00   yforce=   0.0000E+00  zforce=  -1.7548E+02   energy=   9.3053E-02   setid =    1757 xmoment=   0.0000E+00 ymoment=   0.0000E+00 zmoment=   0.0000E+00
 nd#    1758  xforce=   0.0000E+00   yforce=   0.0000E+00  zforce=  -1.9526E+02   energy=   1.0367E-01   setid =    1758 xmoment=   0.0000E+00 ymoment=   0.0000E+00 zmoment=   0.0000E+00
 nd#    1759  xforce=   0.0000E+00   yforce=   0.0000E+00  zforce=  -1.2899E+02   energy=   7.4136E-02   setid =    1759 xmoment=   0.0000E+00 ymoment=   0.0000E+00 zmoment=   0.0000E+00
 nd#    1760  xforce=   0.0000E+00   yforce=   0.0000E+00  zforce=  -1.3897E+02   energy=   8.1461E-02   setid =    1760 xmoment=   0.0000E+00 ymoment=   0.0000E+00 zmoment=   0.0000E+00
 nd#    1761  xforce=   0.0000E+00   yforce=   0.0000E+00  zforce=  -6.4028E+01   energy=   3.4985E-02   setid =    1761 xmoment=   0.0000E+00 ymoment=   0.0000E+00 zmoment=   0.0000E+00
 nd#    1762  xforce=   0.0000E+00   yforce=   0.0000E+00  zforce=  -6.3023E+01   energy=   3.5569E-02   setid =    1762 xmoment=   0.0000E+00 ymoment=   0.0000E+00 zmoment=   0.0000E+00
 nd#    1769  xforce=   0.0000E+00   yforce=   0.0000E+00  zforce=   3.6666E+01   energy=  -2.0270E-02   setid =    1769 xmoment=   0.0000E+00 ymoment=   0.0000E+00 zmoment=   0.0000E+00
 nd#    1770  xforce=   0.0000E+00   yforce=   0.0000E+00  zforce=   4.9462E+01   energy=  -2.7681E-02   setid =    1770 xmoment=   0.0000E+00 ymoment=   0.0000E+00 zmoment=   0.0000E+00
 nd#    1771  xforce=   0.0000E+00   yforce=   0.0000E+00  zforce=   5.9566E+01   energy=  -3.4759E-02   setid =    1771 xmoment=   0.0000E+00 ymoment=   0.0000E+00 zmoment=   0.0000E+00
 nd#    1772  xforce=   0.0000E+00   yforce=   0.0000E+00  zforce=   6.6464E+01   energy=  -3.9992E-02   setid =    1772 xmoment=   0.0000E+00 ymoment=   0.0000E+00 zmoment=   0.0000E+00
 nd#    1773  xforce=   0.0000E+00   yforce=   0.0000E+00  zforce=   6.7836E+01   energy=  -4.9667E-02   setid =    1773 xmoment=   0.0000E+00 ymoment=   0.0000E+00 zmoment=   0.0000E+00
 nd#    1774  xforce=   0.0000E+00   yforce=   0.0000E+00  zforce=   3.3541E+01   energy=  -2.8404E-02   setid =    1774 xmoment=   0.0000E+00 ymoment=   0.0000E+00 zmoment=   0.0000E+00
              xtotal=   0.0000E+00   ytotal=   0.0000E+00  ztotal=  -6.0935E+03   etotal=   3.2570E+00

 n o d a l   f o r c e/e n e r g y    o u t p u t  t=   1.00000E+02

 velocity boundary condition forces/rigid body moments 

 nd#     354  xforce=   0.0000E+00   yforce=   0.0000E+00  zforce=  -6.0674E+01   energy=   3.5683E-02   setid =     354 xmoment=   0.0000E+00 ymoment=   0.0000E+00 zmoment=   0.0000E+00
 nd#     355  xforce=   0.0000E+00   yforce=   0.0000E+00  zforce=  -6.0104E+01   energy=   3.6684E-02   setid =     355 xmoment=   0.0000E+00 ymoment=   0.0000E+00 zmoment=   0.0000E+00
 nd#     356  xforce=   0.0000E+00   yforce=   0.0000E+00  zforce=  -5.6469E+01   energy=   2.5940E-02   setid =     356 xmoment=   0.0000E+00 ymoment=   0.0000E+00 zmoment=   0.0000E+00
 nd#     357  xforce=   0.0000E+00   yforce=   0.0000E+00  zforce=  -7.9948E+01   energy=   3.6155E-02   setid =     357 xmoment=   0.0000E+00 ymoment=   0.0000E+00 zmoment=   0.0000E+00
 nd#     403  xforce=   0.0000E+00   yforce=   0.0000E+00  zforce=  -4.3184E+01   energy=   2.3189E-02   setid =     403 xmoment=   0.0000E+00 ymoment=   0.0000E+00 zmoment=   0.0000E+00
 nd#     404  xforce=   0.0000E+00   yforce=   0.0000E+00  zforce=  -8.7004E+01   energy=   4.2512E-02   setid =     404 xmoment=   0.0000E+00 ymoment=   0.0000E+00 zmoment=   0.0000E+00
 nd#     405  xforce=   0.0000E+00   yforce=   0.0000E+00  zforce=  -1.5557E+01   energy=   1.7454E-02   setid =     405 xmoment=   0.0000E+00 ymoment=   0.0000E+00 zmoment=   0.0000E+00
 nd#     466  xforce=   0.0000E+00   yforce=   0.0000E+00  zforce=  -5.4456E+01   energy=   2.4451E-02   setid =     466 xmoment=   0.0000E+00 ymoment=   0.0000E+00 zmoment=   0.0000E+00
 nd#     467  xforce=   0.0000E+00   yforce=   0.0000E+00  zforce=   1.7696E+01   energy=   5.1877E-03   setid =     467 xmoment=   0.0000E+00 ymoment=   0.0000E+00 zmoment=   0.0000E+00
 nd#     468  xforce=   0.0000E+00   yforce=   0.0000E+00  zforce=  -4.3751E+01   energy=   2.8646E-02   setid =     468 xmoment=   0.0000E+00 ymoment=   0.0000E+00 zmoment=   0.0000E+00
 nd#     469  xforce=   0.0000E+00   yforce=   0.0000E+00  zforce=  -5.3962E+01   energy=   2.5547E-02   setid =     469 xmoment=   0.0000E+00 ymoment=   0.0000E+00 zmoment=   0.0000E+00
 nd#     530  xforce=   0.0000E+00   yforce=   0.0000E+00  zforce=   2.2372E+01   energy=   1.9789E-03   setid =     530 xmoment=   0.0000E+00 ymoment=   0.0000E+00 zmoment=   0.0000E+00
 nd#     531  xforce=   0.0000E+00   yforce=   0.0000E+00  zforce=   1.7529E+00   energy=   1.5079E-02   setid =     531 xmoment=   0.0000E+00 ymoment=   0.0000E+00 zmoment=   0.0000E+00
 nd#     532  xforce=   0.0000E+00   yforce=   0.0000E+00  zforce=   1.3413E+01   energy=  -8.2602E-03   setid =     532 xmoment=   0.0000E+00 ymoment=   0.0000E+00 zmoment=   0.0000E+00
 nd#     533  xforce=   0.0000E+00   yforce=   0.0000E+00  zforce=   2.6249E+01   energy=  -1.7279E-02   setid =     533 xmoment=   0.0000E+00 ymoment=   0.0000E+00 zmoment=   0.0000E+00
 nd#     549  xforce=   0.0000E+00   yforce=   0.0000E+00  zforce=   1.8839E+01   energy=  -3.7834E-03   setid =     549 xmoment=   0.0000E+00 ymoment=   0.0000E+00 zmoment=   0.0000E+00
 nd#     610  xforce=   0.0000E+00   yforce=   0.0000E+00  zforce=  -1.0811E+02   energy=   5.3466E-02   setid =     610 xmoment=   0.0000E+00 ymoment=   0.0000E+00 zmoment=   0.0000E+00
 nd#     611  xforce=   0.0000E+00   yforce=   0.0000E+00  zforce=  -9.7044E+01   energy=   4.3370E-02   setid =     611 xmoment=   0.0000E+00 ymoment=   0.0000E+00 zmoment=   0.0000E+00
 nd#     612  xforce=   0.0000E+00   yforce=   0.0000E+00  zforce=  -1.1822E+02   energy=   6.2250E-02   setid =     612 xmoment=   0.0000E+00 ymoment=   0.0000E+00 zmoment=   0.0000E+00
 nd#     613  xforce=   0.0000E+00   yforce=   0.0000E+00  zforce=  -1.3733E+02   energy=   7.3861E-02   setid =     613 xmoment=   0.0000E+00 ymoment=   0.0000E+00 zmoment=   0.0000E+00
 nd#     629  xforce=   0.0000E+00   yforce=   0.0000E+00  zforce=  -9.5507E+01   energy=   4.3345E-02   setid =     629 xmoment=   0.0000E+00 ymoment=   0.0000E+00 zmoment=   0.0000E+00
 nd#     660  xforce=   0.0000E+00   yforce=   0.0000E+00  zforce=  -1.2146E+02   energy=   4.9966E-02   setid =     660 xmoment=   0.0000E+00 ymoment=   0.0000E+00 zmoment=   0.0000E+00
 nd#     661  xforce=   0.0000E+00   yforce=   0.0000E+00  zforce=  -1.0029E+02   energy=   3.2484E-02   setid =     661 xmoment=   0.0000E+00 ymoment=   0.0000E+00 zmoment=   0.0000E+00
 nd#     692  xforce=   0.0000E+00   yforce=   0.0000E+00  zforce=  -1.2404E+02   energy=   6.4543E-02   setid =     692 xmoment=   0.0000E+00 ymoment=   0.0000E+00 zmoment=   0.0000E+00
 nd#     693  xforce=   0.0000E+00   yforce=   0.0000E+00  zforce=  -1.0363E+02   energy=   5.6163E-02   setid =     693 xmoment=   0.0000E+00 ymoment=   0.0000E+00 zmoment=   0.0000E+00
 nd#     724  xforce=   0.0000E+00   yforce=   0.0000E+00  zforce=  -9.9730E+01   energy=   4.2194E-02   setid =     724 xmoment=   0.0000E+00 ymoment=   0.0000E+00 zmoment=   0.0000E+00
 nd#     725  xforce=   0.0000E+00   yforce=   0.0000E+00  zforce=  -5.5971E+01   energy=   4.2058E-02   setid =     725 xmoment=   0.0000E+00 ymoment=   0.0000E+00 zmoment=   0.0000E+00
 nd#     771  xforce=   0.0000E+00   yforce=   0.0000E+00  zforce=   7.8809E+01   energy=  -1.9883E-02   setid =     771 xmoment=   0.0000E+00 ymoment=   0.0000E+00 zmoment=   0.0000E+00
 nd#     772  xforce=   0.0000E+00   yforce=   0.0000E+00  zforce=  -9.1304E+01   energy=   3.7457E-02   setid =     772 xmoment=   0.0000E+00 ymoment=   0.0000E+00 zmoment=   0.0000E+00
 nd#     773  xforce=   0.0000E+00   yforce=   0.0000E+00  zforce=  -6.2196E+01   energy=   2.5503E-02   setid =     773 xmoment=   0.0000E+00 ymoment=   0.0000E+00 zmoment=   0.0000E+00
 nd#     804  xforce=   0.0000E+00   yforce=   0.0000E+00  zforce=  -6.9521E+01   energy=   3.7325E-02   setid =     804 xmoment=   0.0000E+00 ymoment=   0.0000E+00 zmoment=   0.0000E+00
 nd#     805  xforce=   0.0000E+00   yforce=   0.0000E+00  zforce=  -7.0164E+01   energy=   4.0184E-02   setid =     805 xmoment=   0.0000E+00 ymoment=   0.0000E+00 zmoment=   0.0000E+00
 nd#     821  xforce=   0.0000E+00   yforce=   0.0000E+00  zforce=  -6.4037E+01   energy=   3.9495E-02   setid =     821 xmoment=   0.0000E+00 ymoment=   0.0000E+00 zmoment=   0.0000E+00
 nd#     852  xforce=   0.0000E+00   yforce=   0.0000E+00  zforce=   5.5169E+01   energy=  -2.4177E-02   setid =     852 xmoment=   0.0000E+00 ymoment=   0.0000E+00 zmoment=   0.0000E+00
 nd#     853  xforce=   0.0000E+00   yforce=   0.0000E+00  zforce=  -1.1354E+01   energy=   4.7532E-03   setid =     853 xmoment=   0.0000E+00 ymoment=   0.0000E+00 zmoment=   0.0000E+00
 nd#     869  xforce=   0.0000E+00   yforce=   0.0000E+00  zforce=  -3.8013E+01   energy=   2.7087E-02   setid =     869 xmoment=   0.0000E+00 ymoment=   0.0000E+00 zmoment=   0.0000E+00
 nd#     885  xforce=   0.0000E+00   yforce=   0.0000E+00  zforce=  -4.1030E+01   energy=   2.7692E-02   setid =     885 xmoment=   0.0000E+00 ymoment=   0.0000E+00 zmoment=   0.0000E+00
 nd#    1082  xforce=   0.0000E+00   yforce=   0.0000E+00  zforce=   2.8201E+01   energy=  -1.3519E-02   setid =    1082 xmoment=   0.0000E+00 ymoment=   0.0000E+00 zmoment=   0.0000E+00
 nd#    1083  xforce=   0.0000E+00   yforce=   0.0000E+00  zforce=  -2.3392E+01   energy=   1.8043E-02   setid =    1083 xmoment=   0.0000E+00 ymoment=   0.0000E+00 zmoment=   0.0000E+00
 nd#    1084  xforce=   0.0000E+00   yforce=   0.0000E+00  zforce=  -4.2181E+01   energy=   2.7321E-02   setid =    1084 xmoment=   0.0000E+00 ymoment=   0.0000E+00 zmoment=   0.0000E+00
 nd#    1085  xforce=   0.0000E+00   yforce=   0.0000E+00  zforce=  -5.9302E+01   energy=   3.5356E-02   setid =    1085 xmoment=   0.0000E+00 ymoment=   0.0000E+00 zmoment=   0.0000E+00
 nd#    1086  xforce=   0.0000E+00   yforce=   0.0000E+00  zforce=  -6.9866E+01   energy=   4.0179E-02   setid =    1086 xmoment=   0.0000E+00 ymoment=   0.0000E+00 zmoment=   0.0000E+00
 nd#    1087  xforce=   0.0000E+00   yforce=   0.0000E+00  zforce=  -7.1812E+01   energy=   4.1599E-02   setid =    1087 xmoment=   0.0000E+00 ymoment=   0.0000E+00 zmoment=   0.0000E+00
 nd#    1649  xforce=   0.0000E+00   yforce=   0.0000E+00  zforce=  -1.3124E+02   energy=   7.1291E-02   setid =    1649 xmoment=   0.0000E+00 ymoment=   0.0000E+00 zmoment=   0.0000E+00
 nd#    1651  xforce=   0.0000E+00   yforce=   0.0000E+00  zforce=  -1.6753E+02   energy=   9.0547E-02   setid =    1651 xmoment=   0.0000E+00 ymoment=   0.0000E+00 zmoment=   0.0000E+00
 nd#    1653  xforce=   0.0000E+00   yforce=   0.0000E+00  zforce=  -1.6057E+02   energy=   8.5484E-02   setid =    1653 xmoment=   0.0000E+00 ymoment=   0.0000E+00 zmoment=   0.0000E+00
 nd#    1655  xforce=   0.0000E+00   yforce=   0.0000E+00  zforce=  -1.4615E+02   energy=   8.1389E-02   setid =    1655 xmoment=   0.0000E+00 ymoment=   0.0000E+00 zmoment=   0.0000E+00
 nd#    1657  xforce=   0.0000E+00   yforce=   0.0000E+00  zforce=  -1.1260E+02   energy=   6.6593E-02   setid =    1657 xmoment=   0.0000E+00 ymoment=   0.0000E+00 zmoment=   0.0000E+00
 nd#    1659  xforce=   0.0000E+00   yforce=   0.0000E+00  zforce=  -6.6017E+01   energy=   3.5686E-02   setid =    1659 xmoment=   0.0000E+00 ymoment=   0.0000E+00 zmoment=   0.0000E+00
 nd#    1733  xforce=   0.0000E+00   yforce=   0.0000E+00  zforce=  -1.2744E+02   energy=   7.2844E-02   setid =    1733 xmoment=   0.0000E+00 ymoment=   0.0000E+00 zmoment=   0.0000E+00
 nd#    1734  xforce=   0.0000E+00   yforce=   0.0000E+00  zforce=  -1.0587E+02   energy=   6.2234E-02   setid =    1734 xmoment=   0.0000E+00 ymoment=   0.0000E+00 zmoment=   0.0000E+00
 nd#    1735  xforce=   0.0000E+00   yforce=   0.0000E+00  zforce=  -1.8812E+02   energy=   1.0083E-01   setid =    1735 xmoment=   0.0000E+00 ymoment=   0.0000E+00 zmoment=   0.0000E+00
 nd#    1736  xforce=   0.0000E+00   yforce=   0.0000E+00  zforce=  -1.5763E+02   energy=   8.8791E-02   setid =    1736 xmoment=   0.0000E+00 ymoment=   0.0000E+00 zmoment=   0.0000E+00
 nd#    1737  xforce=   0.0000E+00   yforce=   0.0000E+00  zforce=  -1.9029E+02   energy=   1.0316E-01   setid =    1737 xmoment=   0.0000E+00 ymoment=   0.0000E+00 zmoment=   0.0000E+00
 nd#    1738  xforce=   0.0000E+00   yforce=   0.0000E+00  zforce=  -1.6932E+02   energy=   9.8053E-02   setid =    1738 xmoment=   0.0000E+00 ymoment=   0.0000E+00 zmoment=   0.0000E+00
 nd#    1739  xforce=   0.0000E+00   yforce=   0.0000E+00  zforce=  -1.8766E+02   energy=   1.0733E-01   setid =    1739 xmoment=   0.0000E+00 ymoment=   0.0000E+00 zmoment=   0.0000E+00
 nd#    1740  xforce=   0.0000E+00   yforce=   0.0000E+00  zforce=  -1.4057E+02   energy=   9.0767E-02   setid =    1740 xmoment=   0.0000E+00 ymoment=   0.0000E+00 zmoment=   0.0000E+00
 nd#    1741  xforce=   0.0000E+00   yforce=   0.0000E+00  zforce=  -1.1791E+02   energy=   7.9777E-02   setid =    1741 xmoment=   0.0000E+00 ymoment=   0.0000E+00 zmoment=   0.0000E+00
 nd#    1742  xforce=   0.0000E+00   yforce=   0.0000E+00  zforce=  -5.0189E+01   energy=   4.7143E-02   setid =    1742 xmoment=   0.0000E+00 ymoment=   0.0000E+00 zmoment=   0.0000E+00
 nd#    1743  xforce=   0.0000E+00   yforce=   0.0000E+00  zforce=  -4.8381E+01   energy=   3.2890E-02   setid =    1743 xmoment=   0.0000E+00 ymoment=   0.0000E+00 zmoment=   0.0000E+00
 nd#    1744  xforce=   0.0000E+00   yforce=   0.0000E+00  zforce=  -6.3971E+00   energy=   1.0444E-02   setid =    1744 xmoment=   0.0000E+00 ymoment=   0.0000E+00 zmoment=   0.0000E+00
 nd#    1751  xforce=   0.0000E+00   yforce=   0.0000E+00  zforce=  -1.4637E+02   energy=   7.9754E-02   setid =    1751 xmoment=   0.0000E+00 ymoment=   0.0000E+00 zmoment=   0.0000E+00
 nd#    1752  xforce=   0.0000E+00   yforce=   0.0000E+00  zforce=  -1.4281E+02   energy=   7.9601E-02   setid =    1752 xmoment=   0.0000E+00 ymoment=   0.0000E+00 zmoment=   0.0000E+00
 nd#    1753  xforce=   0.0000E+00   yforce=   0.0000E+00  zforce=  -1.9313E+02   energy=   1.0228E-01   setid =    1753 xmoment=   0.0000E+00 ymoment=   0.0000E+00 zmoment=   0.0000E+00
 nd#    1754  xforce=   0.0000E+00   yforce=   0.0000E+00  zforce=  -1.9987E+02   energy=   1.0552E-01   setid =    1754 xmoment=   0.0000E+00 ymoment=   0.0000E+00 zmoment=   0.0000E+00
 nd#    1755  xforce=   0.0000E+00   yforce=   0.0000E+00  zforce=  -1.8443E+02   energy=   9.7856E-02   setid =    1755 xmoment=   0.0000E+00 ymoment=   0.0000E+00 zmoment=   0.0000E+00
 nd#    1756  xforce=   0.0000E+00   yforce=   0.0000E+00  zforce=  -1.9471E+02   energy=   1.0406E-01   setid =    1756 xmoment=   0.0000E+00 ymoment=   0.0000E+00 zmoment=   0.0000E+00
 nd#    1757  xforce=   0.0000E+00   yforce=   0.0000E+00  zforce=  -1.7146E+02   energy=   9.4818E-02   setid =    1757 xmoment=   0.0000E+00 ymoment=   0.0000E+00 zmoment=   0.0000E+00
 nd#    1758  xforce=   0.0000E+00   yforce=   0.0000E+00  zforce=  -1.9074E+02   energy=   1.0564E-01   setid =    1758 xmoment=   0.0000E+00 ymoment=   0.0000E+00 zmoment=   0.0000E+00
 nd#    1759  xforce=   0.0000E+00   yforce=   0.0000E+00  zforce=  -1.2592E+02   energy=   7.5433E-02   setid =    1759 xmoment=   0.0000E+00 ymoment=   0.0000E+00 zmoment=   0.0000E+00
 nd#    1760  xforce=   0.0000E+00   yforce=   0.0000E+00  zforce=  -1.3527E+02   energy=   8.2857E-02   setid =    1760 xmoment=   0.0000E+00 ymoment=   0.0000E+00 zmoment=   0.0000E+00
 nd#    1761  xforce=   0.0000E+00   yforce=   0.0000E+00  zforce=  -6.2418E+01   energy=   3.5629E-02   setid =    1761 xmoment=   0.0000E+00 ymoment=   0.0000E+00 zmoment=   0.0000E+00
 nd#    1762  xforce=   0.0000E+00   yforce=   0.0000E+00  zforce=  -6.0624E+01   energy=   3.6198E-02   setid =    1762 xmoment=   0.0000E+00 ymoment=   0.0000E+00 zmoment=   0.0000E+00
 nd#    1769  xforce=   0.0000E+00   yforce=   0.0000E+00  zforce=   3.4709E+01   energy=  -2.0633E-02   setid =    1769 xmoment=   0.0000E+00 ymoment=   0.0000E+00 zmoment=   0.0000E+00
 nd#    1770  xforce=   0.0000E+00   yforce=   0.0000E+00  zforce=   4.5958E+01   energy=  -2.8167E-02   setid =    1770 xmoment=   0.0000E+00 ymoment=   0.0000E+00 zmoment=   0.0000E+00
 nd#    1771  xforce=   0.0000E+00   yforce=   0.0000E+00  zforce=   5.5292E+01   energy=  -3.5344E-02   setid =    1771 xmoment=   0.0000E+00 ymoment=   0.0000E+00 zmoment=   0.0000E+00
 nd#    1772  xforce=   0.0000E+00   yforce=   0.0000E+00  zforce=   6.1995E+01   energy=  -4.0645E-02   setid =    1772 xmoment=   0.0000E+00 ymoment=   0.0000E+00 zmoment=   0.0000E+00
 nd#    1773  xforce=   0.0000E+00   yforce=   0.0000E+00  zforce=   6.2560E+01   energy=  -5.0331E-02   setid =    1773 xmoment=   0.0000E+00 ymoment=   0.0000E+00 zmoment=   0.0000E+00
 nd#    1774  xforce=   0.0000E+00   yforce=   0.0000E+00  zforce=   3.2583E+01   energy=  -2.8741E-02   setid =    1774 xmoment=   0.0000E+00 ymoment=   0.0000E+00 zmoment=   0.0000E+00
              xtotal=   0.0000E+00   ytotal=   0.0000E+00  ztotal=  -5.9566E+03   etotal=   3.3183E+00
