 LS-DYNA keyword deck by LS-PrePost                                      
                    ls-dyna smp d R14 R14.1.1s_1_ef50e1 date 06/16/2024



 e l e m e n t   s t r e s s   c a l c u l a t i o n s   f o r   t i m e  s t e p        1   ( at time 0.00000E+00 )

 element  materl
     ipt  stress       sig-xx      sig-yy      sig-zz      sig-xy      sig-yz      sig-zx                       yield
           state                                                                                  effsg      function
      45-      1
       1          -1.9509E-06 -1.9509E-06 -1.9509E-06  0.0000E+00  0.0000E+00  0.0000E+00    0.0000E+00    0.0000E+00
      47-      1
       1          -1.9509E-06 -1.9509E-06 -1.9509E-06  0.0000E+00  0.0000E+00  0.0000E+00    0.0000E+00    0.0000E+00
      53-      1
       1          -3.9019E-06 -3.9019E-06 -3.9019E-06  0.0000E+00  0.0000E+00  0.0000E+00    0.0000E+00    0.0000E+00
      61-      1
       1           0.0000E+00  0.0000E+00  0.0000E+00  0.0000E+00  0.0000E+00  0.0000E+00    0.0000E+00    0.0000E+00
      67-      1
       1          -3.9019E-06 -3.9019E-06 -3.9019E-06  0.0000E+00  0.0000E+00  0.0000E+00    0.0000E+00    0.0000E+00
      79-      1
       1           0.0000E+00  0.0000E+00  0.0000E+00  0.0000E+00  0.0000E+00  0.0000E+00    0.0000E+00    0.0000E+00
      81-      1
       1          -1.9509E-06 -1.9509E-06 -1.9509E-06  0.0000E+00  0.0000E+00  0.0000E+00    0.0000E+00    0.0000E+00



 e l e m e n t   s t r a i n   c a l c u l a t i o n s   f o r   t i m e  s t e p        1   ( at time  0.00000E+00 )

 element  strain       eps-xx      eps-yy      eps-zz      eps-xy      eps-yz      eps-zx                            yield
 num/ipt   state
      45-      1
      1            0.0000E+00  0.0000E+00  0.0000E+00  0.0000E+00  0.0000E+00  0.0000E+00
      47-      1
      1            0.0000E+00  0.0000E+00  0.0000E+00  0.0000E+00  0.0000E+00  0.0000E+00
      53-      1
      1            0.0000E+00  0.0000E+00  0.0000E+00  0.0000E+00  0.0000E+00  0.0000E+00
      61-      1
      1            0.0000E+00  0.0000E+00  0.0000E+00  0.0000E+00  0.0000E+00  0.0000E+00
      67-      1
      1            0.0000E+00  0.0000E+00  0.0000E+00  0.0000E+00  0.0000E+00  0.0000E+00
      79-      1
      1            0.0000E+00  0.0000E+00  0.0000E+00  0.0000E+00  0.0000E+00  0.0000E+00
      81-      1
      1            0.0000E+00  0.0000E+00  0.0000E+00  0.0000E+00  0.0000E+00  0.0000E+00



 e l e m e n t   s t r e s s   c a l c u l a t i o n s   f o r   t i m e  s t e p        6   ( at time 2.50000E+00 )

 element  materl
     ipt  stress       sig-xx      sig-yy      sig-zz      sig-xy      sig-yz      sig-zx                       yield
           state                                                                                  effsg      function
      45-      1
       1          -2.4122E+07 -4.2056E+07 -1.5864E+08  1.0124E+07 -8.5538E+06 -1.8183E+07    1.3238E+08    0.0000E+00
      47-      1
       1          -3.8609E+07 -3.0687E+07 -1.6003E+08  1.3010E+07 -1.6669E+07 -1.1928E+07    1.3243E+08    0.0000E+00
      53-      1
       1          -3.1852E+07 -3.6790E+07 -1.6056E+08  1.3743E+07 -1.3474E+07 -1.5708E+07    1.3344E+08    0.0000E+00
      61-      1
       1          -1.9411E+07 -4.5436E+07 -1.5834E+08  3.8174E+06 -2.9673E+06 -1.9854E+07    1.3273E+08    0.0000E+00
      67-      1
       1          -4.2844E+07 -2.5412E+07 -1.5707E+08  9.4652E+06 -1.8455E+07 -7.0284E+06    1.2954E+08    0.0000E+00
      79-      1
       1          -3.6131E+07 -3.5995E+07 -7.9974E+07  1.5298E+05  4.2983E+04  1.2602E+03    4.3913E+07    0.0000E+00
      81-      1
       1          -4.4519E+07 -2.0665E+07 -1.5560E+08  3.7564E+06 -1.9840E+07 -2.2856E+06    1.2960E+08    0.0000E+00



 e l e m e n t   s t r a i n   c a l c u l a t i o n s   f o r   t i m e  s t e p        6   ( at time  2.50000E+00 )

 element  strain       eps-xx      eps-yy      eps-zz      eps-xy      eps-yz      eps-zx                            yield
 num/ipt   state
      45-      1
      1            6.1400E-04  2.7160E-04 -1.9534E-03  1.9325E-04 -1.6319E-04 -3.4678E-04
      47-      1
      1            3.5908E-04  5.1018E-04 -1.9582E-03  2.4831E-04 -3.1799E-04 -2.2747E-04
      53-      1
      1            4.8745E-04  3.9306E-04 -1.9690E-03  2.6231E-04 -2.5706E-04 -2.9957E-04
      61-      1
      1            6.9609E-04  1.9931E-04 -1.9556E-03  7.2861E-05 -5.6614E-05 -3.7864E-04
      67-      1
      1            2.5910E-04  5.9180E-04 -1.9209E-03  1.8068E-04 -3.5204E-04 -1.3404E-04
      79-      1
      1            3.7585E-05  4.0185E-05 -7.9913E-04  2.9194E-06  8.2475E-07  2.8547E-08
      81-      1
      1            2.0537E-04  6.6071E-04 -1.9147E-03  7.1713E-05 -3.7844E-04 -4.3587E-05



 e l e m e n t   s t r e s s   c a l c u l a t i o n s   f o r   t i m e  s t e p       10   ( at time 6.46223E+00 )

 element  materl
     ipt  stress       sig-xx      sig-yy      sig-zz      sig-xy      sig-yz      sig-zx                       yield
           state                                                                                  effsg      function
      45-      1
       1          -7.9601E+07 -1.2090E+08 -3.3695E+08  2.3645E+07 -1.6262E+07 -3.5085E+07    2.5193E+08    6.2595E-04
      47-      1
       1          -1.1306E+08 -9.5272E+07 -3.3927E+08  3.0288E+07 -3.0160E+07 -2.2403E+07    2.5000E+08    6.3664E-04
      53-      1
       1          -9.7993E+07 -1.1046E+08 -3.4004E+08  3.1617E+07 -2.4586E+07 -2.9356E+07    2.5124E+08    6.4456E-04
      61-      1
       1          -6.8047E+07 -1.2716E+08 -3.3172E+08  9.0196E+06 -5.6989E+06 -3.8388E+07    2.4938E+08    6.5286E-04
      67-      1
       1          -1.2043E+08 -7.9019E+07 -3.3739E+08  2.2783E+07 -3.5159E+07 -1.3722E+07    2.5219E+08    5.7901E-04
      79-      1
       1          -9.5658E+07 -9.4734E+07 -2.1053E+08  6.5110E+05  1.1372E+05 -4.4525E+04    1.1534E+08    0.0000E+00
      81-      1
       1          -1.2190E+08 -6.5455E+07 -3.2891E+08  9.2549E+06 -3.8324E+07 -4.4513E+06    2.4989E+08    5.9750E-04



 e l e m e n t   s t r a i n   c a l c u l a t i o n s   f o r   t i m e  s t e p       10   ( at time  6.46223E+00 )

 element  strain       eps-xx      eps-yy      eps-zz      eps-xy      eps-yz      eps-zx                            yield
 num/ipt   state
      45-      1
      1            2.0379E-03  8.6751E-04 -5.4609E-03  6.7425E-04 -4.9943E-04 -1.0446E-03
      47-      1
      1            1.1777E-03  1.6779E-03 -5.4577E-03  8.7937E-04 -9.5847E-04 -6.9289E-04
      53-      1
      1            1.6209E-03  1.2682E-03 -5.4959E-03  9.1642E-04 -7.8052E-04 -8.9748E-04
      61-      1
      1            2.3388E-03  6.3079E-04 -5.4761E-03  2.6076E-04 -1.7284E-04 -1.1454E-03
      67-      1
      1            8.2742E-04  1.9681E-03 -5.3470E-03  6.4092E-04 -1.0672E-03 -4.1666E-04
      79-      1
      1            9.1331E-05  1.0896E-04 -2.1009E-03  1.2424E-05  2.1697E-06 -8.4924E-07
      81-      1
      1            6.4241E-04  2.2258E-03 -5.3234E-03  2.6313E-04 -1.1492E-03 -1.3701E-04



 e l e m e n t   s t r e s s   c a l c u l a t i o n s   f o r   t i m e  s t e p      142   ( at time 9.37702E+00 )

 element  materl
     ipt  stress       sig-xx      sig-yy      sig-zz      sig-xy      sig-yz      sig-zx                       yield
           state                                                                                  effsg      function
      45-      1
       1          -1.2026E+08 -1.5558E+08 -3.4107E+08  2.3288E+07 -1.3332E+07 -2.6397E+07    2.1554E+08    8.0935E-03
      47-      1
       1          -1.1647E+08 -1.0050E+08 -3.1238E+08  3.1989E+07 -2.5121E+07 -2.8600E+07    2.2177E+08    8.2194E-03
      53-      1
       1          -1.2632E+08 -1.3090E+08 -3.1656E+08  3.0765E+07 -1.9280E+07 -2.2129E+07    2.0190E+08    8.8678E-03
      61-      1
       1          -5.7505E+07 -9.0027E+07 -2.6932E+08  1.4233E+07 -3.1616E+06 -2.9405E+07    2.0559E+08    1.2197E-02
      67-      1
       1          -9.9493E+07 -5.7328E+07 -3.0566E+08  2.2940E+07 -4.1924E+07 -2.6868E+07    2.4898E+08    7.8259E-03
      79-      1
       1          -1.4341E+08 -1.4864E+08 -3.2370E+08  1.5623E+07 -3.8074E+05 -7.5035E+06    1.8026E+08    4.7060E-04
      81-      1
       1          -6.3890E+07 -3.0256E+07 -2.0723E+08  3.8810E+06 -3.4710E+07 -1.9966E+06    1.7370E+08    1.9721E-02



 e l e m e n t   s t r a i n   c a l c u l a t i o n s   f o r   t i m e  s t e p      142   ( at time  9.37702E+00 )

 element  strain       eps-xx      eps-yy      eps-zz      eps-xy      eps-yz      eps-zx                            yield
 num/ipt   state
      45-      1
      1            5.2871E-03  2.6858E-03 -1.0923E-02  1.6271E-03 -1.0352E-03 -2.0357E-03
      47-      1
      1            3.6096E-03  4.6844E-03 -1.0829E-02  2.2818E-03 -2.0231E-03 -2.0391E-03
      53-      1
      1            4.1616E-03  3.8050E-03 -1.0710E-02  2.3216E-03 -1.7219E-03 -1.8786E-03
      61-      1
      1            6.8910E-03  3.5525E-03 -1.2489E-02  1.0118E-03 -3.6863E-05 -2.7311E-03
      67-      1
      1            3.1541E-03  6.0077E-03 -1.1389E-02  1.6287E-03 -3.0039E-03 -1.8141E-03
      79-      1
      1            5.3362E-04  3.6251E-04 -3.8096E-03  3.9767E-04  2.5338E-05 -3.2500E-04
      81-      1
      1            3.9835E-03  7.9242E-03 -1.3454E-02  9.1214E-04 -5.0944E-03 -3.2026E-04



 e l e m e n t   s t r e s s   c a l c u l a t i o n s   f o r   t i m e  s t e p      150   ( at time 1.08379E+01 )

 element  materl
     ipt  stress       sig-xx      sig-yy      sig-zz      sig-xy      sig-yz      sig-zx                       yield
           state                                                                                  effsg      function
      45-      1
       1          -1.1490E+08 -1.4775E+08 -3.3831E+08  1.7535E+07 -1.7422E+07 -2.4481E+07    2.1745E+08    1.5087E-02
      47-      1
       1          -8.0189E+07 -7.0112E+07 -2.8282E+08  2.8533E+07 -2.5347E+07 -2.6832E+07    2.2301E+08    1.4183E-02
      53-      1
       1          -1.0544E+08 -1.0803E+08 -3.0021E+08  2.6440E+07 -1.9376E+07 -2.2226E+07    2.0529E+08    1.5331E-02
      61-      1
       1          -2.5994E+07 -5.4250E+07 -2.2685E+08  1.2604E+07 -4.1002E+06 -2.7358E+07    1.9555E+08    2.3432E-02
      67-      1
       1          -6.2743E+07 -2.3965E+07 -2.8871E+08  1.9816E+07 -4.1833E+07 -2.4625E+07    2.6376E+08    1.2754E-02
      79-      1
       1          -1.7323E+08 -1.7292E+08 -3.6590E+08  1.7025E+07 -5.7267E+06 -6.5792E+06    1.9565E+08    2.2483E-03
      81-      1
       1          -2.0274E+07  2.1590E+07 -2.4190E+08  5.1383E+06 -5.0386E+07 -7.7652E+06    2.6082E+08    2.3842E-02



 e l e m e n t   s t r a i n   c a l c u l a t i o n s   f o r   t i m e  s t e p      150   ( at time  1.08379E+01 )

 element  strain       eps-xx      eps-yy      eps-zz      eps-xy      eps-yz      eps-zx                            yield
 num/ipt   state
      45-      1
      1            8.5149E-03  4.7062E-03 -1.6116E-02  2.1536E-03 -1.7342E-03 -2.9342E-03
      47-      1
      1            5.9113E-03  7.1247E-03 -1.5129E-02  3.1308E-03 -2.8222E-03 -2.8315E-03
      53-      1
      1            6.5489E-03  6.1310E-03 -1.5155E-02  3.1505E-03 -2.3195E-03 -2.6200E-03
      61-      1
      1            1.1037E-02  6.1137E-03 -1.8716E-02  1.5958E-03  8.4853E-05 -4.0225E-03
      67-      1
      1            5.1154E-03  8.9179E-03 -1.5863E-02  2.1140E-03 -4.1238E-03 -2.4241E-03
      79-      1
      1            1.0555E-03  1.0645E-03 -5.4893E-03  6.1826E-04 -1.8114E-04 -4.2099E-04
      81-      1
      1            5.8312E-03  1.0851E-02 -1.7956E-02  1.0526E-03 -6.4282E-03 -5.9397E-04



 e l e m e n t   s t r e s s   c a l c u l a t i o n s   f o r   t i m e  s t e p      165   ( at time 1.46140E+01 )

 element  materl
     ipt  stress       sig-xx      sig-yy      sig-zz      sig-xy      sig-yz      sig-zx                       yield
           state                                                                                  effsg      function
      45-      1
       1          -1.0801E+08 -1.3811E+08 -3.5967E+08  1.6503E+07 -1.8491E+07 -2.1079E+07    2.4462E+08    2.6342E-02
      47-      1
       1          -6.1239E+07 -4.7630E+07 -2.9572E+08  2.7366E+07 -2.4614E+07 -2.2331E+07    2.5282E+08    2.4507E-02
      53-      1
       1          -8.7812E+07 -8.2370E+07 -3.1310E+08  2.9134E+07 -1.9749E+07 -1.9354E+07    2.3843E+08    2.5822E-02
      61-      1
       1          -6.7699E+07 -9.3972E+07 -2.8618E+08  9.8829E+06 -6.2211E+06 -7.2735E+06    2.0797E+08    3.7908E-02
      67-      1
       1          -5.8172E+07 -2.1159E+07 -3.0395E+08  1.6231E+07 -3.7128E+07 -2.0218E+07    2.7753E+08    2.3071E-02
      79-      1
       1          -2.1052E+08 -2.1761E+08 -4.4486E+08  1.4437E+07 -9.2505E+06 -7.0503E+06    2.3310E+08    6.7406E-03
      81-      1
       1          -7.3561E+06  3.2316E+07 -2.5180E+08  4.4767E+06 -4.8911E+07 -4.7491E+06    2.7987E+08    3.5584E-02



 e l e m e n t   s t r a i n   c a l c u l a t i o n s   f o r   t i m e  s t e p      165   ( at time  1.46140E+01 )

 element  strain       eps-xx      eps-yy      eps-zz      eps-xy      eps-yz      eps-zx                            yield
 num/ipt   state
      45-      1
      1            1.4298E-02  8.4072E-03 -2.5657E-02  3.0726E-03 -2.5444E-03 -4.0057E-03
      47-      1
      1            1.0060E-02  1.2023E-02 -2.4071E-02  4.6429E-03 -3.9076E-03 -3.8714E-03
      53-      1
      1            1.0774E-02  1.0652E-02 -2.3785E-02  4.8317E-03 -3.0672E-03 -3.5026E-03
      61-      1
      1            1.8515E-02  1.0549E-02 -3.0441E-02  2.0555E-03  4.0475E-04 -6.5109E-03
      67-      1
      1            8.9655E-03  1.4775E-02 -2.5645E-02  2.9905E-03 -6.0910E-03 -3.4625E-03
      79-      1
      1            3.0633E-03  2.7805E-03 -9.9800E-03  9.6310E-04 -4.5597E-04 -6.3631E-04
      81-      1
      1            1.0003E-02  1.7505E-02 -2.8767E-02  1.3430E-03 -9.3458E-03 -8.4372E-04



 e l e m e n t   s t r e s s   c a l c u l a t i o n s   f o r   t i m e  s t e p      173   ( at time 1.69293E+01 )

 element  materl
     ipt  stress       sig-xx      sig-yy      sig-zz      sig-xy      sig-yz      sig-zx                       yield
           state                                                                                  effsg      function
      45-      1
       1          -1.0651E+08 -1.3599E+08 -3.7979E+08  1.6579E+07 -1.5926E+07 -2.2596E+07    2.6573E+08    3.2491E-02
      47-      1
       1          -5.7960E+07 -4.1787E+07 -3.0710E+08  2.6156E+07 -2.3314E+07 -2.0361E+07    2.6700E+08    3.0458E-02
      53-      1
       1          -8.5181E+07 -7.9391E+07 -3.3213E+08  2.9333E+07 -1.8772E+07 -1.8876E+07    2.5914E+08    3.1706E-02
      61-      1
       1          -4.9795E+07 -8.3767E+07 -2.9276E+08  2.7902E+06 -3.6123E+06 -1.6790E+07    2.2987E+08    4.5107E-02
      67-      1
       1          -6.0084E+07 -2.5465E+07 -3.1386E+08  1.5630E+07 -3.4199E+07 -1.7964E+07    2.8213E+08    2.9217E-02
      79-      1
       1          -2.3367E+08 -2.3909E+08 -4.8260E+08  1.2195E+07 -9.2890E+06 -7.5455E+06    2.4803E+08    9.8249E-03
      81-      1
       1          -2.0335E+06  3.6207E+07 -2.5610E+08  4.5877E+06 -4.7106E+07 -3.8473E+06    2.8722E+08    4.2503E-02



 e l e m e n t   s t r a i n   c a l c u l a t i o n s   f o r   t i m e  s t e p      173   ( at time  1.69293E+01 )

 element  strain       eps-xx      eps-yy      eps-zz      eps-xy      eps-yz      eps-zx                            yield
 num/ipt   state
      45-      1
      1            1.7623E-02  1.0758E-02 -3.1434E-02  3.5880E-03 -2.8626E-03 -4.7013E-03
      47-      1
      1            1.2534E-02  1.5021E-02 -2.9576E-02  5.4416E-03 -4.5018E-03 -4.4115E-03
      53-      1
      1            1.3348E-02  1.3368E-02 -2.9158E-02  5.7303E-03 -3.4785E-03 -4.0207E-03
      61-      1
      1            2.3153E-02  1.3178E-02 -3.7483E-02  1.8207E-03  6.3450E-04 -8.1393E-03
      67-      1
      1            1.1339E-02  1.8195E-02 -3.1541E-02  3.4922E-03 -7.0880E-03 -3.9628E-03
      79-      1
      1            4.4446E-03  4.0969E-03 -1.3073E-02  1.1331E-03 -6.0098E-04 -7.8146E-04
      81-      1
      1            1.2590E-02  2.1423E-02 -3.5281E-02  1.5132E-03 -1.0888E-02 -9.4578E-04



 e l e m e n t   s t r e s s   c a l c u l a t i o n s   f o r   t i m e  s t e p      181   ( at time 1.92446E+01 )

 element  materl
     ipt  stress       sig-xx      sig-yy      sig-zz      sig-xy      sig-yz      sig-zx                       yield
           state                                                                                  effsg      function
      45-      1
       1          -1.0542E+08 -1.2893E+08 -3.9197E+08  1.3154E+07 -1.3033E+07 -2.1816E+07    2.7997E+08    3.9066E-02
      47-      1
       1          -4.6812E+07 -3.1333E+07 -3.0989E+08  2.2908E+07 -2.1810E+07 -1.8948E+07    2.7857E+08    3.6845E-02
      53-      1
       1          -7.6687E+07 -6.9540E+07 -3.4145E+08  2.5332E+07 -1.6094E+07 -1.8101E+07    2.7519E+08    3.8046E-02
      61-      1
       1          -5.3024E+07 -8.9150E+07 -3.1632E+08 -1.7112E+06 -3.8884E+06 -2.2087E+07    2.5028E+08    5.1386E-02
      67-      1
       1          -5.2902E+07 -2.2483E+07 -3.1584E+08  1.3879E+07 -3.0816E+07 -1.6469E+07    2.8688E+08    3.5601E-02
      79-      1
       1          -2.6116E+08 -2.6032E+08 -5.2058E+08  9.3893E+06 -8.6205E+06 -8.1542E+06    2.6116E+08    1.3610E-02
      81-      1
       1           5.5325E+06  3.9859E+07 -2.5947E+08  4.3122E+06 -4.3006E+07 -3.0519E+06    2.9349E+08    4.9241E-02



 e l e m e n t   s t r a i n   c a l c u l a t i o n s   f o r   t i m e  s t e p      181   ( at time  1.92446E+01 )

 element  strain       eps-xx      eps-yy      eps-zz      eps-xy      eps-yz      eps-zx                            yield
 num/ipt   state
      45-      1
      1            2.1136E-02  1.3553E-02 -3.7791E-02  3.9538E-03 -3.1294E-03 -5.3680E-03
      47-      1
      1            1.5353E-02  1.8320E-02 -3.5632E-02  6.1460E-03 -5.0880E-03 -4.9497E-03
      53-      1
      1            1.6255E-02  1.6497E-02 -3.5178E-02  6.4824E-03 -3.8186E-03 -4.5453E-03
      61-      1
      1            2.7379E-02  1.5720E-02 -4.4481E-02  1.5236E-03  7.4913E-04 -9.1671E-03
      67-      1
      1            1.3969E-02  2.1741E-02 -3.7706E-02  3.9292E-03 -7.9678E-03 -4.4389E-03
      79-      1
      1            6.0996E-03  5.8794E-03 -1.6929E-02  1.2777E-03 -7.4576E-04 -9.6301E-04
      81-      1
      1            1.5277E-02  2.5225E-02 -4.1765E-02  1.6562E-03 -1.2172E-02 -1.0129E-03



 e l e m e n t   s t r e s s   c a l c u l a t i o n s   f o r   t i m e  s t e p      189   ( at time 2.15599E+01 )

 element  materl
     ipt  stress       sig-xx      sig-yy      sig-zz      sig-xy      sig-yz      sig-zx                       yield
           state                                                                                  effsg      function
      45-      1
       1          -9.0081E+07 -1.1837E+08 -3.8782E+08  1.3959E+07 -1.2967E+07 -2.1490E+07    2.8897E+08    4.5681E-02
      47-      1
       1          -4.2159E+07 -2.5710E+07 -3.1292E+08  2.4064E+07 -2.1177E+07 -1.7707E+07    2.8646E+08    4.3278E-02
      53-      1
       1          -7.4385E+07 -6.9076E+07 -3.5043E+08  2.5827E+07 -1.5587E+07 -1.9770E+07    2.8565E+08    4.4516E-02
      61-      1
       1          -4.5589E+07 -8.4201E+07 -3.1883E+08 -8.4144E+05 -3.1300E+06 -2.5076E+07    2.5985E+08    5.7885E-02
      67-      1
       1          -5.1015E+07 -2.0067E+07 -3.1847E+08  1.5288E+07 -2.9994E+07 -1.5109E+07    2.9130E+08    4.2262E-02
      79-      1
       1          -2.7938E+08 -2.7686E+08 -5.4728E+08  7.3582E+06 -7.4398E+06 -8.1304E+06    2.7015E+08    1.7349E-02
      81-      1
       1           9.6231E+06  4.6683E+07 -2.5999E+08  4.4829E+06 -4.2412E+07 -2.9641E+06    2.9923E+08    5.6416E-02



 e l e m e n t   s t r a i n   c a l c u l a t i o n s   f o r   t i m e  s t e p      189   ( at time  2.15599E+01 )

 element  strain       eps-xx      eps-yy      eps-zz      eps-xy      eps-yz      eps-zx                            yield
 num/ipt   state
      45-      1
      1            2.4919E-02  1.6251E-02 -4.4158E-02  4.4204E-03 -3.4638E-03 -6.0417E-03
      47-      1
      1            1.8165E-02  2.1668E-02 -4.1786E-02  6.9656E-03 -5.6886E-03 -5.4536E-03
      53-      1
      1            1.9274E-02  1.9635E-02 -4.1393E-02  7.3396E-03 -4.2350E-03 -5.1853E-03
      61-      1
      1            3.1825E-02  1.8400E-02 -5.1636E-02  1.4410E-03  7.3427E-04 -1.0301E-02
      67-      1
      1            1.6655E-02  2.5474E-02 -4.4148E-02  4.4888E-03 -8.8988E-03 -4.8793E-03
      79-      1
      1            7.8141E-03  7.6690E-03 -2.0733E-02  1.3915E-03 -8.5671E-04 -1.1224E-03
      81-      1
      1            1.8048E-02  2.9400E-02 -4.8698E-02  1.8222E-03 -1.3551E-02 -1.0890E-03



 e l e m e n t   s t r e s s   c a l c u l a t i o n s   f o r   t i m e  s t e p      197   ( at time 2.38752E+01 )

 element  materl
     ipt  stress       sig-xx      sig-yy      sig-zz      sig-xy      sig-yz      sig-zx                       yield
           state                                                                                  effsg      function
      45-      1
       1          -8.1218E+07 -1.1037E+08 -3.8546E+08  1.1261E+07 -1.2526E+07 -2.3273E+07    2.9499E+08    5.2556E-02
      47-      1
       1          -3.3501E+07 -1.7334E+07 -3.1290E+08  2.2909E+07 -2.1575E+07 -1.6849E+07    2.9439E+08    4.9725E-02
      53-      1
       1          -6.7325E+07 -6.2764E+07 -3.5317E+08  2.3752E+07 -1.4965E+07 -2.1025E+07    2.9449E+08    5.1104E-02
      61-      1
       1          -3.2964E+07 -6.4602E+07 -3.0694E+08  2.3932E+06 -1.1817E+06 -2.8225E+07    2.6421E+08    6.4538E-02
      67-      1
       1          -4.4846E+07 -1.5182E+07 -3.1805E+08  1.4639E+07 -2.9214E+07 -1.3988E+07    2.9566E+08    4.8985E-02
      79-      1
       1          -2.9487E+08 -2.9118E+08 -5.6761E+08  6.3452E+06 -7.4622E+06 -8.2756E+06    2.7550E+08    2.1465E-02
      81-      1
       1           1.3970E+07  5.0072E+07 -2.6112E+08  4.2085E+06 -3.9495E+07 -2.6522E+06    3.0275E+08    6.3452E-02



 e l e m e n t   s t r a i n   c a l c u l a t i o n s   f o r   t i m e  s t e p      197   ( at time  2.38752E+01 )

 element  strain       eps-xx      eps-yy      eps-zz      eps-xy      eps-yz      eps-zx                            yield
 num/ipt   state
      45-      1
      1            2.8818E-02  1.9076E-02 -5.0823E-02  4.7524E-03 -3.8146E-03 -6.8125E-03
      47-      1
      1            2.1074E-02  2.5084E-02 -4.8059E-02  7.6945E-03 -6.3393E-03 -5.9361E-03
      53-      1
      1            2.2435E-02  2.2922E-02 -4.7822E-02  8.0869E-03 -4.6451E-03 -5.8665E-03
      61-      1
      1            3.6173E-02  2.1440E-02 -5.8907E-02  1.5698E-03  8.3049E-04 -1.1510E-02
      67-      1
      1            1.9446E-02  2.9237E-02 -5.0679E-02  4.9845E-03 -9.7997E-03 -5.2888E-03
      79-      1
      1            9.7085E-03  9.6583E-03 -2.4865E-02  1.5158E-03 -1.0052E-03 -1.3030E-03
      81-      1
      1            2.0834E-02  3.3449E-02 -5.5537E-02  1.9657E-03 -1.4744E-02 -1.1483E-03



 e l e m e n t   s t r e s s   c a l c u l a t i o n s   f o r   t i m e  s t e p      205   ( at time 2.61905E+01 )

 element  materl
     ipt  stress       sig-xx      sig-yy      sig-zz      sig-xy      sig-yz      sig-zx                       yield
           state                                                                                  effsg      function
      45-      1
       1          -1.0827E+07 -4.4545E+07 -3.1920E+08  1.5187E+07 -1.1996E+07 -3.1520E+07    2.9990E+08    6.0301E-02
      47-      1
       1          -5.6399E+07 -4.5388E+07 -3.0496E+08  2.4615E+07 -2.3967E+07 -1.4196E+07    2.6227E+08    5.5297E-02
      53-      1
       1          -5.9933E+07 -4.9239E+07 -3.4599E+08  2.8598E+07 -1.6209E+07 -2.3616E+07    2.9986E+08    5.7452E-02
      61-      1
       1          -2.5984E+07 -5.7836E+07 -3.0289E+08  2.9536E+06  3.3518E+05 -2.8989E+07    2.6724E+08    7.1685E-02
      67-      1
       1          -8.0338E+07 -5.9773E+07 -3.2539E+08  1.7602E+07 -2.6437E+07 -9.9021E+06    2.6236E+08    5.4979E-02
      79-      1
       1          -3.0189E+08 -2.9757E+08 -5.7864E+08  5.7771E+06 -7.1010E+06 -8.0630E+06    2.7973E+08    2.5465E-02
      81-      1
       1           1.6321E+07  5.1248E+07 -2.6286E+08  5.1111E+06 -3.8894E+07 -1.3188E+06    3.0583E+08    7.0791E-02



 e l e m e n t   s t r a i n   c a l c u l a t i o n s   f o r   t i m e  s t e p      205   ( at time  2.61905E+01 )

 element  strain       eps-xx      eps-yy      eps-zz      eps-xy      eps-yz      eps-zx                            yield
 num/ipt   state
      45-      1
      1            3.3527E-02  2.2412E-02 -5.7949E-02  5.4029E-03 -4.2056E-03 -8.1227E-03
      47-      1
      1            2.3838E-02  2.8716E-02 -5.4078E-02  8.5921E-03 -7.1392E-03 -6.3860E-03
      53-      1
      1            2.5303E-02  2.6264E-02 -5.3927E-02  9.0797E-03 -5.1265E-03 -6.6299E-03
      61-      1
      1            4.0836E-02  2.4612E-02 -6.6694E-02  1.6527E-03  8.6960E-04 -1.2774E-02
      67-      1
      1            2.2324E-02  3.3067E-02 -5.7257E-02  5.6173E-03 -1.0736E-02 -5.6469E-03
      79-      1
      1            1.1590E-02  1.1637E-02 -2.8852E-02  1.6310E-03 -1.1349E-03 -1.4654E-03
      81-      1
      1            2.3756E-02  3.7633E-02 -6.2674E-02  2.1740E-03 -1.5987E-02 -1.1370E-03



 e l e m e n t   s t r e s s   c a l c u l a t i o n s   f o r   t i m e  s t e p      213   ( at time 2.85058E+01 )

 element  materl
     ipt  stress       sig-xx      sig-yy      sig-zz      sig-xy      sig-yz      sig-zx                       yield
           state                                                                                  effsg      function
      45-      1
       1          -1.0019E+08 -1.2083E+08 -3.2885E+08  7.4290E+06 -1.0094E+07 -2.8445E+07    2.2559E+08    6.6095E-02
      47-      1
       1          -5.0632E+07 -4.6464E+07 -3.0616E+08  2.2269E+07 -2.3878E+07 -1.4579E+07    2.6498E+08    6.1013E-02
      53-      1
       1          -3.8438E+07 -3.5534E+07 -3.2807E+08  2.8880E+07 -1.9454E+07 -2.6878E+07    3.0090E+08    6.4430E-02
      61-      1
       1          -2.9148E+07 -5.5946E+07 -3.0565E+08  2.1847E+06  2.6193E+06 -3.0296E+07    2.6936E+08    7.8602E-02
      67-      1
       1          -8.2573E+07 -6.3573E+07 -3.3130E+08  1.5699E+07 -2.5962E+07 -8.7829E+06    2.6447E+08    6.0804E-02
      79-      1
       1          -3.1182E+08 -3.0902E+08 -5.9356E+08  5.1866E+06 -7.4397E+06 -8.0083E+06    2.8392E+08    2.9865E-02
      81-      1
       1           1.7756E+07  4.8948E+07 -2.6779E+08  4.9520E+06 -3.5128E+07 -3.6968E+05    3.0853E+08    7.7783E-02



 e l e m e n t   s t r a i n   c a l c u l a t i o n s   f o r   t i m e  s t e p      213   ( at time  2.85058E+01 )

 element  strain       eps-xx      eps-yy      eps-zz      eps-xy      eps-yz      eps-zx                            yield
 num/ipt   state
      45-      1
      1            3.8272E-02  2.6057E-02 -6.5176E-02  6.0533E-03 -4.7898E-03 -9.4797E-03
      47-      1
      1            2.6818E-02  3.2135E-02 -6.0375E-02  9.2900E-03 -7.8745E-03 -6.9128E-03
      53-      1
      1            2.8742E-02  2.9593E-02 -6.0476E-02  1.0090E-02 -5.7840E-03 -7.5721E-03
      61-      1
      1            4.5178E-02  2.7798E-02 -7.4299E-02  1.6770E-03  9.8214E-04 -1.3890E-02
      67-      1
      1            2.5103E-02  3.6709E-02 -6.3710E-02  6.0436E-03 -1.1513E-02 -5.9411E-03
      79-      1
      1            1.3693E-02  1.3768E-02 -3.3270E-02  1.7433E-03 -1.2970E-03 -1.6418E-03
      81-      1
      1            2.6649E-02  4.1542E-02 -6.9537E-02  2.3432E-03 -1.6983E-02 -1.1027E-03



 e l e m e n t   s t r e s s   c a l c u l a t i o n s   f o r   t i m e  s t e p      222   ( at time 3.08211E+01 )

 element  materl
     ipt  stress       sig-xx      sig-yy      sig-zz      sig-xy      sig-yz      sig-zx                       yield
           state                                                                                  effsg      function
      45-      1
       1          -1.0976E+08 -1.3162E+08 -3.3999E+08  6.7844E+06 -1.3650E+07 -3.0298E+07    2.2782E+08    7.1535E-02
      47-      1
       1          -1.2878E+07 -1.0574E+07 -2.6661E+08  2.4630E+07 -3.0595E+07 -2.0177E+07    2.6612E+08    6.7977E-02
      53-      1
       1          -7.5682E+07 -7.3269E+07 -3.2754E+08  2.3322E+07 -2.4118E+07 -2.9393E+07    2.6461E+08    7.1174E-02
      61-      1
       1          -3.3413E+07 -5.7146E+07 -3.1030E+08  1.9090E+06  5.4283E+06 -3.3079E+07    2.7210E+08    8.5488E-02
      67-      1
       1          -9.5653E+07 -7.2963E+07 -3.4547E+08  1.4770E+07 -2.8483E+07 -9.3126E+06    2.6822E+08    6.7089E-02
      79-      1
       1          -3.1839E+08 -3.2039E+08 -6.0627E+08  4.4784E+06 -7.0244E+06 -7.5219E+06    2.8754E+08    3.4384E-02
      81-      1
       1          -2.3082E+07  9.0279E+06 -2.7376E+08  1.9996E+06 -3.0984E+07 -7.3875E+05    2.7352E+08    8.4343E-02



 e l e m e n t   s t r a i n   c a l c u l a t i o n s   f o r   t i m e  s t e p      222   ( at time  3.08211E+01 )

 element  strain       eps-xx      eps-yy      eps-zz      eps-xy      eps-yz      eps-zx                            yield
 num/ipt   state
      45-      1
      1            4.2262E-02  2.9358E-02 -7.2247E-02  6.8749E-03 -5.3385E-03 -1.0626E-02
      47-      1
      1            3.0525E-02  3.6582E-02 -6.7612E-02  1.0493E-02 -9.0641E-03 -7.8074E-03
      53-      1
      1            3.2287E-02  3.3479E-02 -6.7666E-02  1.1226E-02 -6.5347E-03 -8.6522E-03
      61-      1
      1            4.9430E-02  3.1037E-02 -8.1893E-02  1.7545E-03  1.1369E-03 -1.5134E-02
      67-      1
      1            2.8011E-02  4.0751E-02 -7.0783E-02  6.5779E-03 -1.2451E-02 -6.3282E-03
      79-      1
      1            1.5952E-02  1.5885E-02 -3.7805E-02  1.8383E-03 -1.4372E-03 -1.7998E-03
      81-      1
      1            2.9558E-02  4.6068E-02 -7.6899E-02  2.5029E-03 -1.8117E-02 -1.0340E-03



 e l e m e n t   s t r e s s   c a l c u l a t i o n s   f o r   t i m e  s t e p      230   ( at time 3.31364E+01 )

 element  materl
     ipt  stress       sig-xx      sig-yy      sig-zz      sig-xy      sig-yz      sig-zx                       yield
           state                                                                                  effsg      function
      45-      1
       1          -1.1901E+08 -1.3946E+08 -3.5098E+08  8.2518E+06 -1.6240E+07 -3.0805E+07    2.3093E+08    7.7140E-02
      47-      1
       1          -1.4801E+07 -1.0431E+07 -2.7112E+08  2.5217E+07 -2.8584E+07 -1.9753E+07    2.6901E+08    7.4194E-02
      53-      1
       1          -3.4934E+07 -3.5649E+07 -2.8915E+08  2.5043E+07 -2.5585E+07 -3.3476E+07    2.6768E+08    7.8518E-02
      61-      1
       1          -2.7908E+07 -6.1780E+07 -3.1271E+08  6.8756E+05  5.5582E+06 -3.1578E+07    2.7513E+08    9.2081E-02
      67-      1
       1          -1.0167E+08 -7.7282E+07 -3.5269E+08  1.6969E+07 -2.8037E+07 -9.0226E+06    2.7055E+08    7.2858E-02
      79-      1
       1          -3.1305E+08 -3.2144E+08 -6.0746E+08  4.0992E+06 -6.6240E+06 -6.7497E+06    2.9086E+08    3.8487E-02
      81-      1
       1          -2.7961E+07  8.6845E+06 -2.7855E+08  3.0230E+06 -3.0751E+07 -7.8587E+05    2.7602E+08    9.0413E-02



 e l e m e n t   s t r a i n   c a l c u l a t i o n s   f o r   t i m e  s t e p      230   ( at time  3.31364E+01 )

 element  strain       eps-xx      eps-yy      eps-zz      eps-xy      eps-yz      eps-zx                            yield
 num/ipt   state
      45-      1
      1            4.6389E-02  3.2762E-02 -7.9682E-02  7.7754E-03 -5.9657E-03 -1.1766E-02
      47-      1
      1            3.3706E-02  4.0336E-02 -7.4412E-02  1.1521E-02 -9.9218E-03 -8.5905E-03
      53-      1
      1            3.6545E-02  3.7798E-02 -7.5299E-02  1.2668E-02 -7.3349E-03 -9.9666E-03
      61-      1
      1            5.3953E-02  3.3861E-02 -8.9123E-02  1.8107E-03  1.2280E-03 -1.6298E-02
      67-      1
      1            3.0639E-02  4.4490E-02 -7.7181E-02  7.1627E-03 -1.3279E-02 -6.6507E-03
      79-      1
      1            1.8146E-02  1.7777E-02 -4.1889E-02  1.9200E-03 -1.5562E-03 -1.9162E-03
      81-      1
      1            3.2154E-02  5.0228E-02 -8.3682E-02  2.6737E-03 -1.9115E-02 -9.9091E-04



 e l e m e n t   s t r e s s   c a l c u l a t i o n s   f o r   t i m e  s t e p      239   ( at time 3.54517E+01 )

 element  materl
     ipt  stress       sig-xx      sig-yy      sig-zz      sig-xy      sig-yz      sig-zx                       yield
           state                                                                                  effsg      function
      45-      1
       1          -1.2478E+08 -1.4590E+08 -3.5982E+08  7.5448E+06 -1.5668E+07 -2.8394E+07    2.3249E+08    8.3114E-02
      47-      1
       1          -6.1095E+07 -5.5156E+07 -2.7878E+08  2.1906E+07 -2.9904E+07 -1.7835E+07    2.3193E+08    8.0328E-02
      53-      1
       1          -4.5140E+07 -3.7966E+07 -2.9943E+08  2.4937E+07 -2.4228E+07 -3.0453E+07    2.7009E+08    8.5556E-02
      61-      1
       1          -2.8304E+07 -5.9921E+07 -3.1389E+08 -7.2299E+05  5.5401E+06 -2.9802E+07    2.7620E+08    9.9574E-02
      67-      1
       1          -6.5384E+07 -4.2278E+07 -3.1412E+08  2.0256E+07 -3.4195E+07 -1.4152E+07    2.7109E+08    8.0238E-02
      79-      1
       1          -3.1425E+08 -3.3505E+08 -6.1748E+08  3.5251E+06 -6.4627E+06 -6.6537E+06    2.9388E+08    4.3194E-02
      81-      1
       1          -3.5873E+07  2.9798E+06 -2.8752E+08  3.5410E+06 -3.1286E+07 -1.8594E+06    2.7856E+08    9.7324E-02



 e l e m e n t   s t r a i n   c a l c u l a t i o n s   f o r   t i m e  s t e p      239   ( at time  3.54517E+01 )

 element  strain       eps-xx      eps-yy      eps-zz      eps-xy      eps-yz      eps-zx                            yield
 num/ipt   state
      45-      1
      1            5.0610E-02  3.6485E-02 -8.7444E-02  8.6259E-03 -6.5373E-03 -1.2858E-02
      47-      1
      1            3.7234E-02  4.4975E-02 -8.2034E-02  1.2687E-02 -1.0900E-02 -9.3857E-03
      53-      1
      1            4.0052E-02  4.1984E-02 -8.2941E-02  1.3952E-02 -8.0013E-03 -1.1007E-02
      61-      1
      1            5.8819E-02  3.7250E-02 -9.7420E-02  1.8050E-03  1.3240E-03 -1.7278E-02
      67-      1
      1            3.4231E-02  4.9582E-02 -8.4941E-02  8.2356E-03 -1.4569E-02 -7.3417E-03
      79-      1
      1            2.0807E-02  1.9701E-02 -4.6606E-02  1.9962E-03 -1.6928E-03 -2.0596E-03
      81-      1
      1            3.5079E-02  5.4961E-02 -9.1465E-02  2.8597E-03 -2.0160E-02 -1.0041E-03



 e l e m e n t   s t r e s s   c a l c u l a t i o n s   f o r   t i m e  s t e p      247   ( at time 3.77670E+01 )

 element  materl
     ipt  stress       sig-xx      sig-yy      sig-zz      sig-xy      sig-yz      sig-zx                       yield
           state                                                                                  effsg      function
      45-      1
       1          -1.2400E+08 -1.4429E+08 -3.6126E+08  7.8418E+06 -1.4408E+07 -2.9158E+07    2.3505E+08    8.8897E-02
      47-      1
       1          -6.1476E+07 -5.7694E+07 -2.8575E+08  2.0724E+07 -2.6784E+07 -1.5612E+07    2.3523E+08    8.6185E-02
      53-      1
       1          -4.6870E+07 -3.8334E+07 -3.0469E+08  2.4654E+07 -2.2899E+07 -2.7805E+07    2.7288E+08    9.2597E-02
      61-      1
       1          -2.2744E+07 -5.3403E+07 -3.0987E+08 -1.8470E+06  4.2070E+06 -2.9731E+07    2.7802E+08    1.0666E-01
      67-      1
       1          -6.3742E+07 -4.0389E+07 -3.1701E+08  1.9032E+07 -2.9069E+07 -1.2978E+07    2.7337E+08    8.6746E-02
      79-      1
       1          -3.0454E+08 -3.2643E+08 -6.1184E+08  3.1374E+06 -5.8947E+06 -3.3656E+06    2.9724E+08    4.7633E-02
      81-      1
       1          -4.0914E+07 -3.0143E+06 -2.9422E+08  4.3179E+06 -2.9614E+07 -2.1719E+06    2.7911E+08    1.0369E-01



 e l e m e n t   s t r a i n   c a l c u l a t i o n s   f o r   t i m e  s t e p      247   ( at time  3.77670E+01 )

 element  strain       eps-xx      eps-yy      eps-zz      eps-xy      eps-yz      eps-zx                            yield
 num/ipt   state
      45-      1
      1            5.4692E-02  4.0084E-02 -9.4981E-02  9.3838E-03 -7.0652E-03 -1.3950E-02
      47-      1
      1            4.0724E-02  4.9248E-02 -8.9499E-02  1.3643E-02 -1.1690E-02 -9.9929E-03
      53-      1
      1            4.3615E-02  4.6171E-02 -9.0582E-02  1.5150E-02 -8.6592E-03 -1.1955E-02
      61-      1
      1            6.3405E-02  4.0502E-02 -1.0525E-01  1.7308E-03  1.3604E-03 -1.8189E-02
      67-      1
      1            3.7285E-02  5.3829E-02 -9.2119E-02  8.9434E-03 -1.5412E-02 -7.8253E-03
      79-      1
      1            2.3315E-02  2.1699E-02 -5.1014E-02  2.0600E-03 -1.8035E-03 -2.0566E-03
      81-      1
      1            3.7820E-02  5.9259E-02 -9.8565E-02  3.0627E-03 -2.1014E-02 -9.9999E-04



 e l e m e n t   s t r e s s   c a l c u l a t i o n s   f o r   t i m e  s t e p      255   ( at time 4.00823E+01 )

 element  materl
     ipt  stress       sig-xx      sig-yy      sig-zz      sig-xy      sig-yz      sig-zx                       yield
           state                                                                                  effsg      function
      45-      1
       1          -1.2801E+08 -1.4359E+08 -3.6585E+08  9.9155E+06 -1.4678E+07 -2.8190E+07    2.3755E+08    9.4361E-02
      47-      1
       1          -7.1629E+07 -6.4417E+07 -2.9463E+08  2.1982E+07 -2.7444E+07 -1.6993E+07    2.3656E+08    9.1876E-02
      53-      1
       1          -4.8053E+07 -4.1610E+07 -3.1163E+08  2.3604E+07 -2.2891E+07 -2.6098E+07    2.7658E+08    9.9028E-02
      61-      1
       1          -2.3136E+07 -5.0943E+07 -3.1214E+08 -2.9832E+06  3.5025E+06 -3.3162E+07    2.8218E+08    1.1363E-01
      67-      1
       1          -1.0360E+08 -8.9902E+07 -3.2624E+08  1.3384E+07 -2.3843E+07 -1.2471E+07    2.3562E+08    9.2336E-02
      79-      1
       1          -2.7751E+08 -3.0657E+08 -5.9024E+08  2.6505E+06 -3.3715E+06 -1.0554E+06    2.9936E+08    5.1854E-02
      81-      1
       1          -4.7593E+07 -1.1948E+07 -3.0463E+08  2.3701E+06 -3.0760E+07 -1.5858E+06    2.8172E+08    1.1018E-01



 e l e m e n t   s t r a i n   c a l c u l a t i o n s   f o r   t i m e  s t e p      255   ( at time  4.00823E+01 )

 element  strain       eps-xx      eps-yy      eps-zz      eps-xy      eps-yz      eps-zx                            yield
 num/ipt   state
      45-      1
      1            5.8316E-02  4.3569E-02 -1.0213E-01  1.0120E-02 -7.5341E-03 -1.4897E-02
      47-      1
      1            4.4031E-02  5.3363E-02 -9.6617E-02  1.4726E-02 -1.2625E-02 -1.0651E-02
      53-      1
      1            4.6950E-02  4.9944E-02 -9.7659E-02  1.6157E-02 -9.2901E-03 -1.2797E-02
      61-      1
      1            6.7857E-02  4.3770E-02 -1.1299E-01  1.6822E-03  1.3434E-03 -1.9352E-02
      67-      1
      1            4.0844E-02  5.8135E-02 -9.9378E-02  9.7759E-03 -1.6530E-02 -8.5258E-03
      79-      1
      1            2.5892E-02  2.3528E-02 -5.5110E-02  2.1061E-03 -1.8287E-03 -2.0335E-03
      81-      1
      1            4.0685E-02  6.3591E-02 -1.0588E-01  3.1387E-03 -2.1972E-02 -9.5948E-04



 e l e m e n t   s t r e s s   c a l c u l a t i o n s   f o r   t i m e  s t e p      273   ( at time 4.47129E+01 )

 element  materl
     ipt  stress       sig-xx      sig-yy      sig-zz      sig-xy      sig-yz      sig-zx                       yield
           state                                                                                  effsg      function
      45-      1
       1          -1.7347E+08 -1.9150E+08 -3.7649E+08  6.2981E+06 -9.6570E+06 -2.4098E+07    2.0006E+08    1.0530E-01
      47-      1
       1          -1.7192E+08 -1.7126E+08 -3.2252E+08  9.2988E+06 -2.2100E+07 -1.3802E+07    1.5835E+08    1.0065E-01
      53-      1
       1          -4.7795E+07 -4.7116E+07 -3.1464E+08  2.6565E+07 -2.6152E+07 -2.8429E+07    2.7925E+08    1.1293E-01
      61-      1
       1          -6.5639E+07 -9.0534E+07 -3.1809E+08  5.9205E+05  1.3483E+05 -2.8035E+07    2.4582E+08    1.2636E-01
      67-      1
       1          -1.3071E+08 -1.1625E+08 -3.5516E+08  1.3617E+07 -2.3892E+07 -1.1390E+07    2.3768E+08    1.0330E-01
      79-      1
       1          -2.6468E+08 -2.8091E+08 -5.7506E+08  2.4145E+06 -2.5492E+06 -3.1060E+06    3.0270E+08    6.0620E-02
      81-      1
       1          -6.2129E+07 -2.7675E+07 -3.2485E+08  1.0645E+06 -2.8523E+07 -3.7393E+05    2.8584E+08    1.2349E-01



 e l e m e n t   s t r a i n   c a l c u l a t i o n s   f o r   t i m e  s t e p      273   ( at time  4.47129E+01 )

 element  strain       eps-xx      eps-yy      eps-zz      eps-xy      eps-yz      eps-zx                            yield
 num/ipt   state
      45-      1
      1            6.6767E-02  5.0863E-02 -1.1740E-01  1.1772E-02 -8.4303E-03 -1.7058E-02
      47-      1
      1            5.1683E-02  6.2631E-02 -1.1152E-01  1.6930E-02 -1.4985E-02 -1.2396E-02
      53-      1
      1            5.4370E-02  5.7737E-02 -1.1264E-01  1.8497E-02 -1.0783E-02 -1.4760E-02
      61-      1
      1            7.7545E-02  5.0523E-02 -1.2914E-01  1.8764E-03  1.0549E-03 -2.1565E-02
      67-      1
      1            4.7225E-02  6.6695E-02 -1.1374E-01  1.1473E-02 -1.8506E-02 -9.6719E-03
      79-      1
      1            3.0717E-02  2.7578E-02 -6.3761E-02  2.1967E-03 -1.9272E-03 -2.1788E-03
      81-      1
      1            4.6649E-02  7.2440E-02 -1.2098E-01  3.2728E-03 -2.3718E-02 -7.7175E-04



 e l e m e n t   s t r e s s   c a l c u l a t i o n s   f o r   t i m e  s t e p      282   ( at time 4.70282E+01 )

 element  materl
     ipt  stress       sig-xx      sig-yy      sig-zz      sig-xy      sig-yz      sig-zx                       yield
           state                                                                                  effsg      function
      45-      1
       1          -1.6337E+08 -1.8305E+08 -3.6923E+08  6.4643E+06 -9.9802E+06 -2.6007E+07    2.0290E+08    1.1028E-01
      47-      1
       1          -1.9713E+08 -1.9662E+08 -3.4731E+08  8.5346E+06 -2.4809E+07 -1.6508E+07    1.5973E+08    1.0464E-01
      53-      1
       1          -1.5448E+08 -1.5363E+08 -3.4271E+08  1.3955E+07 -2.5930E+07 -2.5866E+07    2.0050E+08    1.1830E-01
      61-      1
       1          -7.1543E+07 -9.8909E+07 -3.2746E+08  6.3935E+05 -1.2955E+06 -2.9623E+07    2.4876E+08    1.3240E-01
      67-      1
       1          -1.3558E+08 -1.2050E+08 -3.6103E+08  1.0707E+07 -2.7057E+07 -1.5063E+07    2.4016E+08    1.0884E-01
      79-      1
       1          -2.6635E+08 -2.8300E+08 -5.7872E+08  2.5199E+06 -2.8417E+06 -2.5624E+06    3.0450E+08    6.5470E-02
      81-      1
       1          -6.3011E+07 -3.5518E+07 -3.3006E+08 -3.3758E+06 -3.2642E+07 -1.8306E+06    2.8750E+08    1.3024E-01



 e l e m e n t   s t r a i n   c a l c u l a t i o n s   f o r   t i m e  s t e p      282   ( at time  4.70282E+01 )

 element  strain       eps-xx      eps-yy      eps-zz      eps-xy      eps-yz      eps-zx                            yield
 num/ipt   state
      45-      1
      1            7.1066E-02  5.4246E-02 -1.2510E-01  1.2324E-02 -8.8311E-03 -1.8034E-02
      47-      1
      1            5.6163E-02  6.6726E-02 -1.1926E-01  1.8536E-02 -1.6307E-02 -1.3536E-02
      53-      1
      1            5.9090E-02  6.2502E-02 -1.2071E-01  2.0031E-02 -1.1956E-02 -1.6080E-02
      61-      1
      1            8.2191E-02  5.3652E-02 -1.3695E-01  1.9861E-03  9.3545E-04 -2.2559E-02
      67-      1
      1            5.0400E-02  7.0788E-02 -1.2098E-01  1.1975E-02 -1.9544E-02 -1.0341E-02
      79-      1
      1            3.3312E-02  2.9770E-02 -6.8599E-02  2.2590E-03 -2.0011E-03 -2.2340E-03
      81-      1
      1            4.9870E-02  7.6846E-02 -1.2867E-01  3.1418E-03 -2.4662E-02 -6.7972E-04



 e l e m e n t   s t r e s s   c a l c u l a t i o n s   f o r   t i m e  s t e p      291   ( at time 4.93435E+01 )

 element  materl
     ipt  stress       sig-xx      sig-yy      sig-zz      sig-xy      sig-yz      sig-zx                       yield
           state                                                                                  effsg      function
      45-      1
       1          -2.0744E+08 -2.2721E+08 -3.7324E+08  3.5500E+06 -1.1954E+07 -2.5385E+07    1.6432E+08    1.1456E-01
      47-      1
       1          -2.1380E+08 -2.1474E+08 -3.6632E+08  9.3843E+06 -2.4297E+07 -1.6419E+07    1.6113E+08    1.0848E-01
      53-      1
       1          -1.6796E+08 -1.7015E+08 -3.5960E+08  1.3781E+07 -2.6899E+07 -2.5777E+07    2.0260E+08    1.2330E-01
      61-      1
       1          -7.3684E+07 -1.0319E+08 -3.2906E+08  3.0508E+06 -2.5227E+06 -3.0681E+07    2.4784E+08    1.3874E-01
      67-      1
       1          -1.4572E+08 -1.2757E+08 -3.7020E+08  1.1073E+07 -2.6988E+07 -1.5086E+07    2.4089E+08    1.1456E-01
      79-      1
       1          -2.6950E+08 -2.8068E+08 -5.8152E+08  2.1450E+06 -2.4809E+06 -2.0981E+06    3.0666E+08    7.0072E-02
      81-      1
       1          -1.8577E+07  2.2909E+07 -2.7449E+08 -7.4762E+05 -4.0812E+07 -3.5182E+06    2.8787E+08    1.3815E-01



 e l e m e n t   s t r a i n   c a l c u l a t i o n s   f o r   t i m e  s t e p      291   ( at time  4.93435E+01 )

 element  strain       eps-xx      eps-yy      eps-zz      eps-xy      eps-yz      eps-zx                            yield
 num/ipt   state
      45-      1
      1            7.5665E-02  5.7984E-02 -1.3303E-01  1.3072E-02 -9.1511E-03 -1.9167E-02
      47-      1
      1            6.0121E-02  7.0792E-02 -1.2674E-01  1.9772E-02 -1.7429E-02 -1.4455E-02
      53-      1
      1            6.3073E-02  6.6438E-02 -1.2838E-01  2.1206E-02 -1.2815E-02 -1.7035E-02
      61-      1
      1            8.7049E-02  5.6849E-02 -1.4492E-01  2.2072E-03  6.2523E-04 -2.3524E-02
      67-      1
      1            5.3700E-02  7.4912E-02 -1.2834E-01  1.2791E-02 -2.0629E-02 -1.0943E-02
      79-      1
      1            3.5668E-02  3.1982E-02 -7.3200E-02  2.3000E-03 -2.0501E-03 -2.2838E-03
      81-      1
      1            5.3222E-02  8.2514E-02 -1.3708E-01  3.2523E-03 -2.6076E-02 -6.0732E-04



 e l e m e n t   s t r e s s   c a l c u l a t i o n s   f o r   t i m e  s t e p      301   ( at time 5.16588E+01 )

 element  materl
     ipt  stress       sig-xx      sig-yy      sig-zz      sig-xy      sig-yz      sig-zx                       yield
           state                                                                                  effsg      function
      45-      1
       1          -1.9758E+08 -2.1846E+08 -3.6714E+08  5.0643E+06 -8.7138E+06 -2.1225E+07    1.6523E+08    1.1869E-01
      47-      1
       1          -2.2855E+08 -2.3009E+08 -3.8335E+08  9.5468E+06 -2.2966E+07 -1.6563E+07    1.6250E+08    1.1216E-01
      53-      1
       1          -1.8411E+08 -1.8904E+08 -3.8009E+08  1.4597E+07 -2.4333E+07 -2.5377E+07    2.0449E+08    1.2793E-01
      61-      1
       1          -8.2575E+07 -1.0938E+08 -3.4136E+08  4.2598E+06 -3.2902E+06 -2.8013E+07    2.5138E+08    1.4519E-01
      67-      1
       1          -1.4863E+08 -1.2566E+08 -3.7245E+08  8.1840E+06 -2.9246E+07 -1.4963E+07    2.4332E+08    1.2027E-01
      79-      1
       1          -2.6930E+08 -2.8383E+08 -5.8468E+08  1.9483E+06 -2.2142E+06 -2.0631E+06    3.0844E+08    7.5076E-02
      81-      1
       1          -6.6122E+07 -3.7289E+07 -2.9112E+08  3.4366E+06 -3.7762E+07 -4.1139E+06    2.4961E+08    1.4460E-01



 e l e m e n t   s t r a i n   c a l c u l a t i o n s   f o r   t i m e  s t e p      301   ( at time  5.16588E+01 )

 element  strain       eps-xx      eps-yy      eps-zz      eps-xy      eps-yz      eps-zx                            yield
 num/ipt   state
      45-      1
      1            8.0152E-02  6.1500E-02 -1.4069E-01  1.3901E-02 -9.3146E-03 -2.0033E-02
      47-      1
      1            6.3784E-02  7.4600E-02 -1.3389E-01  2.0797E-02 -1.8630E-02 -1.5272E-02
      53-      1
      1            6.6788E-02  7.0136E-02 -1.3557E-01  2.2292E-02 -1.3597E-02 -1.7885E-02
      61-      1
      1            9.1755E-02  6.0290E-02 -1.5320E-01  2.5909E-03  4.5230E-04 -2.4567E-02
      67-      1
      1            5.6897E-02  7.9097E-02 -1.3563E-01  1.3324E-02 -2.1906E-02 -1.1477E-02
      79-      1
      1            3.8349E-02  3.4248E-02 -7.8194E-02  2.3437E-03 -2.0962E-03 -2.3363E-03
      81-      1
      1            5.6555E-02  8.7684E-02 -1.4524E-01  3.2173E-03 -2.7324E-02 -5.7023E-04



 e l e m e n t   s t r e s s   c a l c u l a t i o n s   f o r   t i m e  s t e p      311   ( at time 5.39741E+01 )

 element  materl
     ipt  stress       sig-xx      sig-yy      sig-zz      sig-xy      sig-yz      sig-zx                       yield
           state                                                                                  effsg      function
      45-      1
       1          -1.7383E+08 -1.9073E+08 -3.4345E+08  6.0819E+06 -7.4885E+06 -2.0808E+07    1.6664E+08    1.2276E-01
      47-      1
       1          -2.3712E+08 -2.3897E+08 -3.9401E+08  1.0317E+07 -2.1561E+07 -1.7988E+07    1.6435E+08    1.1606E-01
      53-      1
       1          -1.8505E+08 -1.9299E+08 -3.8427E+08  1.4072E+07 -2.3712E+07 -2.6439E+07    2.0628E+08    1.3263E-01
      61-      1
       1          -9.4378E+07 -1.1445E+08 -3.5164E+08  5.2010E+06 -4.5401E+06 -2.8907E+07    2.5312E+08    1.5148E-01
      67-      1
       1          -1.7361E+08 -1.6412E+08 -3.6714E+08  1.1391E+07 -2.6117E+07 -1.1283E+07    2.0542E+08    1.2544E-01
      79-      1
       1          -2.6766E+08 -2.8366E+08 -5.8599E+08  1.8285E+06 -2.0602E+06 -1.8661E+06    3.1069E+08    8.0370E-02
      81-      1
       1          -7.1581E+07 -4.3972E+07 -3.0032E+08  3.8583E+06 -3.6856E+07 -4.0331E+06    2.5213E+08    1.5112E-01



 e l e m e n t   s t r a i n   c a l c u l a t i o n s   f o r   t i m e  s t e p      311   ( at time  5.39741E+01 )

 element  strain       eps-xx      eps-yy      eps-zz      eps-xy      eps-yz      eps-zx                            yield
 num/ipt   state
      45-      1
      1            8.4308E-02  6.5259E-02 -1.4815E-01  1.4701E-02 -9.3675E-03 -2.0917E-02
      47-      1
      1            6.7635E-02  7.8682E-02 -1.4153E-01  2.1709E-02 -1.9685E-02 -1.5972E-02
      53-      1
      1            7.0654E-02  7.3848E-02 -1.4291E-01  2.3228E-02 -1.4277E-02 -1.8511E-02
      61-      1
      1            9.6230E-02  6.3842E-02 -1.6128E-01  2.9150E-03  1.5602E-04 -2.5610E-02
      67-      1
      1            6.0582E-02  8.3713E-02 -1.4340E-01  1.4004E-02 -2.3202E-02 -1.1826E-02
      79-      1
      1            4.1198E-02  3.6663E-02 -8.3476E-02  2.3880E-03 -2.1502E-03 -2.3812E-03
      81-      1
      1            5.9939E-02  9.2806E-02 -1.5356E-01  3.4110E-03 -2.8590E-02 -6.0451E-04



 e l e m e n t   s t r e s s   c a l c u l a t i o n s   f o r   t i m e  s t e p      320   ( at time 5.62894E+01 )

 element  materl
     ipt  stress       sig-xx      sig-yy      sig-zz      sig-xy      sig-yz      sig-zx                       yield
           state                                                                                  effsg      function
      45-      1
       1          -1.7040E+08 -1.9970E+08 -3.4567E+08  4.5096E+06 -5.1546E+06 -1.9674E+07    1.6656E+08    1.2718E-01
      47-      1
       1          -2.2468E+08 -2.2394E+08 -3.8167E+08  1.1314E+07 -2.1496E+07 -1.7461E+07    1.6568E+08    1.1985E-01
      53-      1
       1          -1.9085E+08 -2.0166E+08 -3.9144E+08  1.4685E+07 -2.5618E+07 -2.7817E+07    2.0766E+08    1.3698E-01
      61-      1
       1          -6.5006E+07 -8.4009E+07 -3.2388E+08  9.9090E+06 -7.7451E+06 -2.7008E+07    2.5519E+08    1.5870E-01
      67-      1
       1          -1.7038E+08 -1.6236E+08 -3.6618E+08  1.3377E+07 -2.5746E+07 -1.1089E+07    2.0704E+08    1.3054E-01
      79-      1
       1          -2.6518E+08 -2.8161E+08 -5.8560E+08  1.8053E+06 -1.6420E+06 -1.8327E+06    3.1258E+08    8.5399E-02
      81-      1
       1          -7.7422E+07 -5.0613E+07 -3.0874E+08  3.2852E+06 -3.7169E+07 -4.6133E+06    2.5430E+08    1.5744E-01



 e l e m e n t   s t r a i n   c a l c u l a t i o n s   f o r   t i m e  s t e p      320   ( at time  5.62894E+01 )

 element  strain       eps-xx      eps-yy      eps-zz      eps-xy      eps-yz      eps-zx                            yield
 num/ipt   state
      45-      1
      1            8.9359E-02  6.8535E-02 -1.5603E-01  1.5767E-02 -9.3534E-03 -2.2153E-02
      47-      1
      1            7.1157E-02  8.2541E-02 -1.4878E-01  2.2608E-02 -2.0769E-02 -1.6551E-02
      53-      1
      1            7.4197E-02  7.7176E-02 -1.4966E-01  2.4183E-02 -1.4973E-02 -1.9121E-02
      61-      1
      1            1.0153E-01  6.7974E-02 -1.7016E-01  3.6522E-03 -4.4207E-04 -2.6809E-02
      67-      1
      1            6.4272E-02  8.7936E-02 -1.5106E-01  1.4795E-02 -2.4493E-02 -1.2298E-02
      79-      1
      1            4.3905E-02  3.8968E-02 -8.8484E-02  2.4311E-03 -2.1851E-03 -2.4223E-03
      81-      1
      1            6.3230E-02  9.7705E-02 -1.6160E-01  3.4886E-03 -2.9801E-02 -6.9989E-04



 e l e m e n t   s t r e s s   c a l c u l a t i o n s   f o r   t i m e  s t e p      330   ( at time 5.86047E+01 )

 element  materl
     ipt  stress       sig-xx      sig-yy      sig-zz      sig-xy      sig-yz      sig-zx                       yield
           state                                                                                  effsg      function
      45-      1
       1          -1.2349E+08 -1.5969E+08 -3.0301E+08  7.2834E+06 -4.3504E+06 -1.5443E+07    1.6724E+08    1.3169E-01
      47-      1
       1          -2.3987E+08 -2.3947E+08 -3.9798E+08  9.8099E+06 -1.8045E+07 -2.0663E+07    1.6616E+08    1.2377E-01
      53-      1
       1          -1.7622E+08 -1.8929E+08 -3.8071E+08  1.2320E+07 -2.2109E+07 -2.6003E+07    2.0800E+08    1.4187E-01
      61-      1
       1          -6.7810E+07 -8.2630E+07 -3.2692E+08  9.3796E+06 -8.0651E+06 -2.5464E+07    2.5675E+08    1.6531E-01
      67-      1
       1          -1.7821E+08 -1.7216E+08 -3.7621E+08  1.0308E+07 -2.6338E+07 -1.0871E+07    2.0783E+08    1.3548E-01
      79-      1
       1          -2.5881E+08 -2.8183E+08 -5.8336E+08  2.7704E+06 -2.7559E+06 -6.3821E+05    3.1375E+08    9.0781E-02
      81-      1
       1          -1.1974E+08 -9.5447E+07 -3.1003E+08 -1.5735E+06 -3.5835E+07 -2.2314E+06    2.1284E+08    1.6301E-01



 e l e m e n t   s t r a i n   c a l c u l a t i o n s   f o r   t i m e  s t e p      330   ( at time  5.86047E+01 )

 element  strain       eps-xx      eps-yy      eps-zz      eps-xy      eps-yz      eps-zx                            yield
 num/ipt   state
      45-      1
      1            9.4438E-02  7.1864E-02 -1.6395E-01  1.6681E-02 -9.3392E-03 -2.3091E-02
      47-      1
      1            7.4851E-02  8.6666E-02 -1.5645E-01  2.3439E-02 -2.1826E-02 -1.7458E-02
      53-      1
      1            7.8245E-02  8.0930E-02 -1.5708E-01  2.5002E-02 -1.5848E-02 -1.9810E-02
      61-      1
      1            1.0619E-01  7.1868E-02 -1.7867E-01  4.2540E-03 -9.7164E-04 -2.7609E-02
      67-      1
      1            6.7690E-02  9.2193E-02 -1.5863E-01  1.5265E-02 -2.5693E-02 -1.2640E-02
      79-      1
      1            4.6932E-02  4.1283E-02 -9.3807E-02  2.5202E-03 -2.2693E-03 -2.4211E-03
      81-      1
      1            6.6697E-02  1.0310E-01 -1.7005E-01  3.3160E-03 -3.1025E-02 -5.6575E-04



 e l e m e n t   s t r e s s   c a l c u l a t i o n s   f o r   t i m e  s t e p      340   ( at time 6.09200E+01 )

 element  materl
     ipt  stress       sig-xx      sig-yy      sig-zz      sig-xy      sig-yz      sig-zx                       yield
           state                                                                                  effsg      function
      45-      1
       1          -1.1468E+08 -1.4950E+08 -2.9298E+08  6.5990E+06 -8.5461E+06 -2.1475E+07    1.6890E+08    1.3733E-01
      47-      1
       1          -2.4247E+08 -2.4473E+08 -4.0047E+08  9.3834E+06 -2.0000E+07 -2.3910E+07    1.6671E+08    1.2797E-01
      53-      1
       1          -1.2814E+08 -1.4584E+08 -3.3408E+08  1.5712E+07 -2.7725E+07 -2.7300E+07    2.1062E+08    1.4844E-01
      61-      1
       1          -8.5403E+07 -1.0445E+08 -3.0159E+08  8.4124E+06 -1.0604E+07 -3.2240E+07    2.1599E+08    1.7268E-01
      67-      1
       1          -1.7145E+08 -1.7163E+08 -3.7427E+08  9.5886E+06 -2.6205E+07 -1.1183E+07    2.0931E+08    1.4055E-01
      79-      1
       1          -2.2290E+08 -2.4211E+08 -5.4458E+08 -3.3629E+06 -2.0046E+06 -2.4449E+05    3.1260E+08    9.7793E-02
      81-      1
       1          -1.2587E+08 -1.0641E+08 -3.2179E+08 -1.1754E+06 -3.2983E+07 -1.4895E+06    2.1413E+08    1.6847E-01



 e l e m e n t   s t r a i n   c a l c u l a t i o n s   f o r   t i m e  s t e p      340   ( at time  6.09200E+01 )

 element  strain       eps-xx      eps-yy      eps-zz      eps-xy      eps-yz      eps-zx                            yield
 num/ipt   state
      45-      1
      1            1.0116E-01  7.6179E-02 -1.7388E-01  1.7815E-02 -9.9620E-03 -2.4562E-02
      47-      1
      1            7.9479E-02  9.0844E-02 -1.6459E-01  2.5000E-02 -2.2788E-02 -1.8402E-02
      53-      1
      1            8.4796E-02  8.6042E-02 -1.6663E-01  2.6896E-02 -1.7024E-02 -2.0853E-02
      61-      1
      1            1.1306E-01  7.6330E-02 -1.8898E-01  4.9730E-03 -1.5733E-03 -2.9366E-02
      67-      1
      1            7.1279E-02  9.6479E-02 -1.6641E-01  1.5492E-02 -2.6700E-02 -1.2762E-02
      79-      1
      1            5.0803E-02  4.4592E-02 -1.0048E-01  2.2973E-03 -2.3089E-03 -2.3818E-03
      81-      1
      1            7.0439E-02  1.0809E-01 -1.7864E-01  3.1581E-03 -3.1959E-02 -4.2567E-04



 e l e m e n t   s t r e s s   c a l c u l a t i o n s   f o r   t i m e  s t e p      350   ( at time 6.32353E+01 )

 element  materl
     ipt  stress       sig-xx      sig-yy      sig-zz      sig-xy      sig-yz      sig-zx                       yield
           state                                                                                  effsg      function
      45-      1
       1          -1.2893E+08 -1.5579E+08 -3.0270E+08  7.9425E+06 -5.4241E+06 -2.0189E+07    1.6659E+08    1.4183E-01
      47-      1
       1          -2.2140E+08 -2.3499E+08 -3.8786E+08  8.3526E+06 -1.1517E+07 -2.0795E+07    1.6594E+08    1.3303E-01
      53-      1
       1          -1.3621E+08 -1.3799E+08 -3.4033E+08  1.7273E+07 -2.6594E+07 -1.6132E+07    2.1237E+08    1.5449E-01
      61-      1
       1          -7.0999E+07 -8.7442E+07 -2.8593E+08  1.9262E+06 -6.8429E+06 -2.4889E+07    2.1200E+08    1.7898E-01
      67-      1
       1          -1.2818E+08 -1.3911E+08 -3.3614E+08  1.2521E+07 -2.3096E+07 -1.1746E+07    2.0875E+08    1.4612E-01
      79-      1
       1          -2.0043E+08 -2.2290E+08 -5.2641E+08 -2.3548E+06 -8.8290E+05 -1.3772E+06    3.1539E+08    1.0483E-01
      81-      1
       1          -1.2197E+08 -1.1148E+08 -3.2291E+08 -8.2805E+05 -3.2503E+07 -1.9435E+05    2.1393E+08    1.7418E-01



 e l e m e n t   s t r a i n   c a l c u l a t i o n s   f o r   t i m e  s t e p      350   ( at time  6.32353E+01 )

 element  strain       eps-xx      eps-yy      eps-zz      eps-xy      eps-yz      eps-zx                            yield
 num/ipt   state
      45-      1
      1            1.0589E-01  7.9541E-02 -1.8175E-01  1.8408E-02 -1.0505E-02 -2.5604E-02
      47-      1
      1            8.6417E-02  9.5642E-02 -1.7399E-01  2.6702E-02 -2.3678E-02 -1.9365E-02
      53-      1
      1            9.0179E-02  9.1735E-02 -1.7610E-01  2.9153E-02 -1.8363E-02 -2.1237E-02
      61-      1
      1            1.1865E-01  8.0498E-02 -1.9741E-01  4.9212E-03 -1.7697E-03 -3.0823E-02
      67-      1
      1            7.5453E-02  1.0092E-01 -1.7465E-01  1.5718E-02 -2.7612E-02 -1.3017E-02
      79-      1
      1            5.4748E-02  4.7736E-02 -1.0732E-01  2.2411E-03 -2.3213E-03 -2.4211E-03
      81-      1
      1            7.4704E-02  1.1283E-01 -1.8733E-01  2.9601E-03 -3.2983E-02 -2.3821E-04



 e l e m e n t   s t r e s s   c a l c u l a t i o n s   f o r   t i m e  s t e p      359   ( at time 6.55506E+01 )

 element  materl
     ipt  stress       sig-xx      sig-yy      sig-zz      sig-xy      sig-yz      sig-zx                       yield
           state                                                                                  effsg      function
      45-      1
       1          -1.0825E+08 -1.3725E+08 -2.8116E+08  6.8569E+06 -9.1429E+06 -2.3536E+07    1.6667E+08    1.4791E-01
      47-      1
       1          -1.3825E+08 -1.5048E+08 -2.9826E+08  1.1410E+07 -2.2847E+07 -2.5139E+07    1.6628E+08    1.3823E-01
      53-      1
       1          -4.9534E+07 -5.5569E+07 -2.5318E+08  1.6737E+07 -2.8048E+07 -2.4828E+07    2.1291E+08    1.6164E-01
      61-      1
       1          -7.7979E+07 -1.0066E+08 -2.5047E+08 -5.6634E+05 -1.0055E+07 -2.1672E+07    1.6754E+08    1.8402E-01
      67-      1
       1          -9.1750E+07 -1.0509E+08 -3.0169E+08  1.1201E+07 -2.7347E+07 -1.2636E+07    2.1107E+08    1.5177E-01
      79-      1
       1          -1.7511E+08 -1.9695E+08 -5.0321E+08 -1.3636E+06 -6.7910E+05 -1.8349E+06    3.1777E+08    1.1153E-01
      81-      1
       1          -1.1287E+08 -1.0721E+08 -3.1775E+08 -1.1311E+06 -3.2246E+07 -1.2181E+05    2.1515E+08    1.8017E-01



 e l e m e n t   s t r a i n   c a l c u l a t i o n s   f o r   t i m e  s t e p      359   ( at time  6.55506E+01 )

 element  strain       eps-xx      eps-yy      eps-zz      eps-xy      eps-yz      eps-zx                            yield
 num/ipt   state
      45-      1
      1            1.1345E-01  8.4078E-02 -1.9206E-01  1.9393E-02 -1.1517E-02 -2.7147E-02
      47-      1
      1            9.3699E-02  1.0105E-01 -1.8287E-01  2.8895E-02 -2.5189E-02 -2.0633E-02
      53-      1
      1            9.7107E-02  9.7930E-02 -1.8608E-01  3.1369E-02 -1.9769E-02 -2.2799E-02
      61-      1
      1            1.2473E-01  8.4197E-02 -2.0591E-01  4.8388E-03 -2.5255E-03 -3.1452E-02
      67-      1
      1            8.0069E-02  1.0527E-01 -1.8313E-01  1.6408E-02 -2.8634E-02 -1.3267E-02
      79-      1
      1            5.8487E-02  5.0810E-02 -1.1381E-01  2.2189E-03 -2.3581E-03 -2.4837E-03
      81-      1
      1            7.9324E-02  1.1796E-01 -1.9678E-01  2.7743E-03 -3.3796E-02 -2.4907E-05



 e l e m e n t   s t r e s s   c a l c u l a t i o n s   f o r   t i m e  s t e p      370   ( at time 6.78658E+01 )

 element  materl
     ipt  stress       sig-xx      sig-yy      sig-zz      sig-xy      sig-yz      sig-zx                       yield
           state                                                                                  effsg      function
      45-      1
       1          -1.3068E+08 -1.6047E+08 -2.6233E+08  2.7395E+06 -2.7565E+06 -2.2716E+07    1.2606E+08    1.5385E-01
      47-      1
       1          -1.1960E+08 -1.4301E+08 -2.2865E+08  5.9323E+06 -3.0108E+07 -3.2905E+07    1.2633E+08    1.4313E-01
      53-      1
       1          -9.3252E+07 -9.7522E+07 -2.4186E+08  1.4937E+07 -2.8542E+07 -3.1893E+07    1.6623E+08    1.6727E-01
      61-      1
       1          -9.6985E+07 -1.1278E+08 -2.6697E+08  9.7822E+06 -1.4925E+07 -2.2263E+07    1.7000E+08    1.9029E-01
      67-      1
       1          -6.0791E+07 -8.8180E+07 -2.6196E+08  8.9225E+06 -4.2689E+07 -1.6850E+07    2.0559E+08    1.5766E-01
      79-      1
       1          -1.5144E+08 -1.5864E+08 -4.7317E+08 -8.8227E+05  2.8670E+04 -1.8659E+06    3.1820E+08    1.1977E-01
      81-      1
       1          -1.2071E+08 -1.2296E+08 -3.2879E+08  9.9810E+05 -3.2237E+07  2.8616E+06    2.1443E+08    1.8602E-01



 e l e m e n t   s t r a i n   c a l c u l a t i o n s   f o r   t i m e  s t e p      370   ( at time  6.78658E+01 )

 element  strain       eps-xx      eps-yy      eps-zz      eps-xy      eps-yz      eps-zx                            yield
 num/ipt   state
      45-      1
      1            1.2200E-01  8.9041E-02 -2.0296E-01  2.0503E-02 -1.1983E-02 -3.0103E-02
      47-      1
      1            1.0217E-01  1.0708E-01 -1.9215E-01  3.1530E-02 -2.7185E-02 -2.2207E-02
      53-      1
      1            1.0259E-01  1.0354E-01 -1.9502E-01  3.4021E-02 -2.1293E-02 -2.4449E-02
      61-      1
      1            1.3124E-01  8.8433E-02 -2.1595E-01  5.9452E-03 -3.8506E-03 -3.2921E-02
      67-      1
      1            8.5332E-02  1.0903E-01 -1.9141E-01  1.7112E-02 -2.9713E-02 -1.3625E-02
      79-      1
      1            6.2635E-02  5.4963E-02 -1.2172E-01  2.1978E-03 -2.3757E-03 -2.5270E-03
      81-      1
      1            8.3812E-02  1.2245E-01 -2.0598E-01  2.7194E-03 -3.4518E-02  2.9871E-04



 e l e m e n t   s t r e s s   c a l c u l a t i o n s   f o r   t i m e  s t e p      380   ( at time 7.01811E+01 )

 element  materl
     ipt  stress       sig-xx      sig-yy      sig-zz      sig-xy      sig-yz      sig-zx                       yield
           state                                                                                  effsg      function
      45-      1
       1          -1.1064E+08 -1.3743E+08 -2.4472E+08  2.1423E+06 -4.7755E+06 -2.1296E+07    1.2863E+08    1.5871E-01
      47-      1
       1          -9.0510E+07 -1.0898E+08 -1.6641E+08  9.5738E+06 -1.6792E+07 -2.4455E+07    8.7261E+07    1.4664E-01
      53-      1
       1          -1.3070E+08 -1.3682E+08 -2.4591E+08  8.6476E+06 -2.0699E+07 -1.9387E+07    1.2347E+08    1.7138E-01
      61-      1
       1          -6.1045E+07 -9.0347E+07 -2.3872E+08  1.3581E+07 -1.2305E+07 -2.0587E+07    1.7175E+08    1.9689E-01
      67-      1
       1          -1.4095E+08 -1.5811E+08 -2.5296E+08  2.9972E+06 -3.3897E+07 -2.1004E+07    1.2536E+08    1.6153E-01
      79-      1
       1          -1.0373E+08 -9.1190E+07 -4.1477E+08  5.0051E+05  4.5221E+04 -7.0223E+05    3.1750E+08    1.2761E-01
      81-      1
       1          -1.2075E+08 -1.2762E+08 -3.2790E+08  3.0994E+06 -3.7129E+07  3.1229E+06    2.1384E+08    1.9205E-01



 e l e m e n t   s t r a i n   c a l c u l a t i o n s   f o r   t i m e  s t e p      380   ( at time  7.01811E+01 )

 element  strain       eps-xx      eps-yy      eps-zz      eps-xy      eps-yz      eps-zx                            yield
 num/ipt   state
      45-      1
      1            1.2945E-01  9.2899E-02 -2.1285E-01  2.0303E-02 -1.2254E-02 -3.2129E-02
      47-      1
      1            1.0878E-01  1.1323E-01 -2.0107E-01  3.4918E-02 -2.9302E-02 -2.3821E-02
      53-      1
      1            1.0812E-01  1.0817E-01 -2.0325E-01  3.5688E-02 -2.2772E-02 -2.5928E-02
      61-      1
      1            1.4006E-01  9.2590E-02 -2.2673E-01  6.2816E-03 -4.3414E-03 -3.4382E-02
      67-      1
      1            9.2076E-02  1.1289E-01 -1.9990E-01  1.8901E-02 -3.1233E-02 -1.4505E-02
      79-      1
      1            6.6268E-02  5.9417E-02 -1.2903E-01  2.2455E-03 -2.3484E-03 -2.4789E-03
      81-      1
      1            8.8304E-02  1.2708E-01 -2.1501E-01  2.7404E-03 -3.5484E-02  5.5504E-04



 e l e m e n t   s t r e s s   c a l c u l a t i o n s   f o r   t i m e  s t e p      400   ( at time 7.48117E+01 )

 element  materl
     ipt  stress       sig-xx      sig-yy      sig-zz      sig-xy      sig-yz      sig-zx                       yield
           state                                                                                  effsg      function
      45-      1
       1          -9.2869E+07 -1.2426E+08 -2.2549E+08 -5.9199E+05 -5.0190E+06 -2.3371E+07    1.2699E+08    1.6832E-01
      47-      1
       1          -7.6211E+07 -9.5898E+07 -1.5301E+08  7.9665E+06 -1.7139E+07 -2.6816E+07    8.9459E+07    1.5349E-01
      53-      1
       1          -1.4872E+08 -1.3710E+08 -2.5370E+08  4.0698E+06 -2.3823E+07 -2.3988E+07    1.2591E+08    1.7969E-01
      61-      1
       1          -7.4827E+07 -8.6500E+07 -2.4885E+08  1.1824E+07 -1.0691E+07 -2.1131E+07    1.7461E+08    2.0925E-01
      67-      1
       1          -1.1593E+08 -1.3380E+08 -2.2578E+08  8.5465E+06 -3.4138E+07 -2.4072E+07    1.2600E+08    1.6965E-01
      79-      1
       1          -3.1530E+07 -3.2865E+06 -3.4216E+08 -5.7536E+05  2.1325E+06  2.0383E+05    3.2569E+08    1.4238E-01
      81-      1
       1          -1.2555E+08 -1.4569E+08 -3.3794E+08  3.5163E+06 -3.7101E+07 -1.9838E+06    2.1312E+08    2.0305E-01



 e l e m e n t   s t r a i n   c a l c u l a t i o n s   f o r   t i m e  s t e p      400   ( at time  7.48117E+01 )

 element  strain       eps-xx      eps-yy      eps-zz      eps-xy      eps-yz      eps-zx                            yield
 num/ipt   state
      45-      1
      1            1.4413E-01  9.9861E-02 -2.3205E-01  2.0337E-02 -1.2413E-02 -3.5865E-02
      47-      1
      1            1.2055E-01  1.2561E-01 -2.2082E-01  3.9386E-02 -3.2597E-02 -2.6625E-02
      53-      1
      1            1.1765E-01  1.1833E-01 -2.2087E-01  3.7884E-02 -2.5935E-02 -2.8457E-02
      61-      1
      1            1.5380E-01  1.0218E-01 -2.4830E-01  7.3094E-03 -5.9923E-03 -3.6820E-02
      67-      1
      1            1.0499E-01  1.2296E-01 -2.1739E-01  2.3909E-02 -3.4056E-02 -1.6272E-02
      79-      1
      1            7.2984E-02  6.7842E-02 -1.4314E-01  2.2347E-03 -2.2628E-03 -2.3942E-03
      81-      1
      1            9.6633E-02  1.3460E-01 -2.3117E-01  2.9231E-03 -3.7049E-02  5.3924E-04



 e l e m e n t   s t r e s s   c a l c u l a t i o n s   f o r   t i m e  s t e p      410   ( at time 7.71270E+01 )

 element  materl
     ipt  stress       sig-xx      sig-yy      sig-zz      sig-xy      sig-yz      sig-zx                       yield
           state                                                                                  effsg      function
      45-      1
       1          -9.2213E+07 -1.2632E+08 -2.2820E+08  3.5729E+05 -5.7060E+06 -2.3142E+07    1.2932E+08    1.7264E-01
      47-      1
       1          -7.6875E+07 -8.5364E+07 -1.5241E+08  7.7417E+06 -1.5457E+07 -2.6358E+07    9.0093E+07    1.5648E-01
      53-      1
       1          -1.2646E+08 -1.1858E+08 -2.4018E+08  9.1709E+06 -2.1386E+07 -1.9369E+07    1.2899E+08    1.8345E-01
      61-      1
       1          -8.3788E+07 -9.9557E+07 -2.5975E+08  1.3751E+07 -1.0013E+07 -2.1887E+07    1.7533E+08    2.1481E-01
      67-      1
       1          -8.2729E+07 -1.0612E+08 -1.9850E+08  1.2720E+07 -3.3941E+07 -2.2151E+07    1.2906E+08    1.7382E-01
      79-      1
       1           5.4987E+06  2.2336E+07 -3.1102E+08 -7.3087E+05  1.8822E+06 -8.9554E+05    3.2529E+08    1.4916E-01
      81-      1
       1          -1.2212E+08 -1.3692E+08 -3.3060E+08  1.0316E+07 -4.0254E+07 -4.6733E+06    2.1411E+08    2.0894E-01



 e l e m e n t   s t r a i n   c a l c u l a t i o n s   f o r   t i m e  s t e p      410   ( at time  7.71270E+01 )

 element  strain       eps-xx      eps-yy      eps-zz      eps-xy      eps-yz      eps-zx                            yield
 num/ipt   state
      45-      1
      1            1.5041E-01  1.0336E-01 -2.4091E-01  2.0816E-02 -1.2627E-02 -3.7503E-02
      47-      1
      1            1.2620E-01  1.3083E-01 -2.3010E-01  4.1405E-02 -3.3869E-02 -2.7969E-02
      53-      1
      1            1.2241E-01  1.2304E-01 -2.2909E-01  3.9571E-02 -2.7286E-02 -2.9557E-02
      61-      1
      1            1.5986E-01  1.0600E-01 -2.5730E-01  8.1288E-03 -6.7887E-03 -3.8317E-02
      67-      1
      1            1.1204E-01  1.2803E-01 -2.2641E-01  2.6562E-02 -3.5457E-02 -1.7007E-02
      79-      1
      1            7.6269E-02  7.1420E-02 -1.4959E-01  2.2131E-03 -2.2547E-03 -2.4052E-03
      81-      1
      1            1.0070E-01  1.3893E-01 -2.3957E-01  3.5545E-03 -3.7962E-02  2.6483E-04



 e l e m e n t   s t r e s s   c a l c u l a t i o n s   f o r   t i m e  s t e p      421   ( at time 7.94423E+01 )

 element  materl
     ipt  stress       sig-xx      sig-yy      sig-zz      sig-xy      sig-yz      sig-zx                       yield
           state                                                                                  effsg      function
      45-      1
       1          -9.9304E+07 -1.2512E+08 -2.3136E+08  5.3729E+06 -9.1777E+06 -2.3736E+07    1.2933E+08    1.7782E-01
      47-      1
       1          -7.5913E+07 -8.6895E+07 -1.5212E+08  7.5778E+06 -1.7898E+07 -2.5983E+07    9.0827E+07    1.5979E-01
      53-      1
       1          -9.4660E+07 -9.9716E+07 -2.1348E+08  6.5050E+06 -2.0710E+07 -2.3733E+07    1.2902E+08    1.8922E-01
      61-      1
       1          -9.6476E+07 -1.1774E+08 -2.7505E+08  1.4366E+07 -1.1594E+07 -2.3174E+07    1.7657E+08    2.2013E-01
      67-      1
       1          -1.3025E+08 -1.4759E+08 -2.0586E+08  9.6180E+06 -2.4634E+07 -2.0724E+07    8.9960E+07    1.7674E-01
      79-      1
       1           4.1710E+07  4.6185E+07 -2.8437E+08  2.8375E+06  2.8027E+06 -2.1278E+06    3.2843E+08    1.5650E-01
      81-      1
       1          -1.1407E+08 -1.3699E+08 -3.1946E+08  1.2576E+07 -3.9813E+07 -5.0450E+06    2.0811E+08    2.1459E-01



 e l e m e n t   s t r a i n   c a l c u l a t i o n s   f o r   t i m e  s t e p      421   ( at time  7.94423E+01 )

 element  strain       eps-xx      eps-yy      eps-zz      eps-xy      eps-yz      eps-zx                            yield
 num/ipt   state
      45-      1
      1            1.5875E-01  1.0737E-01 -2.5171E-01  2.2122E-02 -1.3588E-02 -3.9579E-02
      47-      1
      1            1.3156E-01  1.3770E-01 -2.4012E-01  4.3837E-02 -3.5361E-02 -2.9229E-02
      53-      1
      1            1.2974E-01  1.2956E-01 -2.4028E-01  4.1204E-02 -2.8867E-02 -3.1838E-02
      61-      1
      1            1.6618E-01  1.0956E-01 -2.6687E-01  8.4131E-03 -7.5861E-03 -3.8931E-02
      67-      1
      1            1.1869E-01  1.3316E-01 -2.3562E-01  2.9002E-02 -3.6756E-02 -1.7637E-02
      79-      1
      1            8.0047E-02  7.5103E-02 -1.5668E-01  2.3777E-03 -2.2290E-03 -2.4429E-03
      81-      1
      1            1.0483E-01  1.4227E-01 -2.4714E-01  3.9005E-03 -3.8660E-02 -1.2774E-04



 e l e m e n t   s t r e s s   c a l c u l a t i o n s   f o r   t i m e  s t e p      429   ( at time 8.17576E+01 )

 element  materl
     ipt  stress       sig-xx      sig-yy      sig-zz      sig-xy      sig-yz      sig-zx                       yield
           state                                                                                  effsg      function
      45-      1
       1          -1.1511E+08 -1.3518E+08 -2.4727E+08  4.7662E+06 -1.0232E+07 -2.3468E+07    1.3135E+08    1.8163E-01
      47-      1
       1          -1.0852E+08 -1.1458E+08 -1.8900E+08  6.0265E+06 -1.6603E+07 -2.1279E+07    9.1216E+07    1.6206E-01
      53-      1
       1          -1.0569E+08 -1.1369E+08 -2.3045E+08  7.1241E+06 -1.8620E+07 -2.1967E+07    1.3142E+08    1.9288E-01
      61-      1
       1          -9.1177E+07 -1.0571E+08 -2.6595E+08  8.1553E+06 -1.2167E+07 -2.8211E+07    1.7677E+08    2.2490E-01
      67-      1
       1          -1.2511E+08 -1.3074E+08 -2.0484E+08  8.5477E+06 -1.9685E+07 -1.6798E+07    9.0380E+07    1.7890E-01
      79-      1
       1           4.3112E+07  7.5592E+07 -2.2691E+08  9.2090E+06 -7.7784E+06 -7.3476E+06    2.8868E+08    1.6219E-01
      81-      1
       1          -1.1607E+08 -1.3537E+08 -2.9012E+08  1.3599E+07 -2.8505E+07 -5.4122E+06    1.7432E+08    2.1915E-01



 e l e m e n t   s t r a i n   c a l c u l a t i o n s   f o r   t i m e  s t e p      429   ( at time  8.17576E+01 )

 element  strain       eps-xx      eps-yy      eps-zz      eps-xy      eps-yz      eps-zx                            yield
 num/ipt   state
      45-      1
      1            1.6408E-01  1.1090E-01 -2.6049E-01  2.2675E-02 -1.3954E-02 -4.0651E-02
      47-      1
      1            1.3568E-01  1.4152E-01 -2.4838E-01  4.4941E-02 -3.6476E-02 -2.9998E-02
      53-      1
      1            1.3437E-01  1.3340E-01 -2.4834E-01  4.2186E-02 -2.9790E-02 -3.3199E-02
      61-      1
      1            1.7163E-01  1.1333E-01 -2.7555E-01  8.1867E-03 -8.1002E-03 -3.9245E-02
      67-      1
      1            1.2326E-01  1.3693E-01 -2.4313E-01  3.0642E-02 -3.7675E-02 -1.8185E-02
      79-      1
      1            8.2794E-02  7.9442E-02 -1.6272E-01  2.9489E-03 -2.2735E-03 -2.6930E-03
      81-      1
      1            1.0921E-01  1.4646E-01 -2.5443E-01  4.5828E-03 -3.9906E-02 -1.0158E-04



 e l e m e n t   s t r e s s   c a l c u l a t i o n s   f o r   t i m e  s t e p      439   ( at time 8.40729E+01 )

 element  materl
     ipt  stress       sig-xx      sig-yy      sig-zz      sig-xy      sig-yz      sig-zx                       yield
           state                                                                                  effsg      function
      45-      1
       1          -1.0580E+08 -1.2446E+08 -2.4017E+08  4.9462E+06 -1.0069E+07 -2.2559E+07    1.3342E+08    1.8640E-01
      47-      1
       1          -9.0285E+07 -9.2900E+07 -1.6744E+08  5.0771E+06 -1.8926E+07 -2.2583E+07    9.1866E+07    1.6522E-01
      53-      1
       1          -8.4826E+07 -9.5644E+07 -2.1165E+08  1.0615E+07 -1.7379E+07 -2.0738E+07    1.3177E+08    1.9772E-01
      61-      1
       1          -1.1079E+08 -1.2709E+08 -2.8511E+08  7.2219E+06 -1.2224E+07 -3.0036E+07    1.7642E+08    2.3059E-01
      67-      1
       1          -8.4736E+07 -7.6231E+07 -1.5796E+08  5.2405E+06 -2.1249E+07 -1.6318E+07    9.1066E+07    1.8213E-01
      79-      1
       1           1.5366E+08  1.9896E+08 -1.0606E+08  5.5092E+06 -1.2801E+07 -5.6606E+06    2.8627E+08    1.7121E-01
      81-      1
       1          -4.7617E+06 -3.1549E+05 -1.6791E+08  1.0615E+07 -3.6024E+07 -2.8560E+06    1.7782E+08    2.2789E-01



 e l e m e n t   s t r a i n   c a l c u l a t i o n s   f o r   t i m e  s t e p      439   ( at time  8.40729E+01 )

 element  strain       eps-xx      eps-yy      eps-zz      eps-xy      eps-yz      eps-zx                            yield
 num/ipt   state
      45-      1
      1            1.7172E-01  1.1518E-01 -2.7071E-01  2.3329E-02 -1.4475E-02 -4.2403E-02
      47-      1
      1            1.4138E-01  1.4852E-01 -2.5882E-01  4.6796E-02 -3.7423E-02 -3.0619E-02
      53-      1
      1            1.4134E-01  1.3858E-01 -2.5815E-01  4.4234E-02 -3.1078E-02 -3.4870E-02
      61-      1
      1            1.7815E-01  1.1764E-01 -2.8604E-01  8.0104E-03 -8.5682E-03 -3.9493E-02
      67-      1
      1            1.2920E-01  1.4527E-01 -2.5383E-01  3.2971E-02 -3.8723E-02 -1.8386E-02
      79-      1
      1            8.7083E-02  8.6182E-02 -1.7189E-01  3.1950E-03 -2.6129E-03 -2.8577E-03
      81-      1
      1            1.1673E-01  1.5754E-01 -2.6820E-01  6.0005E-03 -4.1920E-02  4.7498E-04



 e l e m e n t   s t r e s s   c a l c u l a t i o n s   f o r   t i m e  s t e p      449   ( at time 8.63882E+01 )

 element  materl
     ipt  stress       sig-xx      sig-yy      sig-zz      sig-xy      sig-yz      sig-zx                       yield
           state                                                                                  effsg      function
      45-      1
       1          -1.0218E+08 -1.1823E+08 -2.3361E+08  4.0892E+06 -1.0476E+07 -2.3753E+07    1.3227E+08    1.9092E-01
      47-      1
       1          -8.0729E+07 -8.4547E+07 -1.5699E+08  6.5514E+06 -1.7803E+07 -2.5446E+07    9.2525E+07    1.6808E-01
      53-      1
       1          -9.2850E+07 -1.0154E+08 -2.1856E+08  4.8608E+06 -1.9811E+07 -2.1737E+07    1.3211E+08    2.0213E-01
      61-      1
       1          -1.0447E+08 -1.1872E+08 -3.2514E+08  5.9543E+06 -1.2191E+07 -3.2398E+07    2.2238E+08    2.3594E-01
      67-      1
       1          -7.9009E+07 -7.5132E+07 -1.5274E+08  2.5903E+06 -2.1037E+07 -2.0426E+07    9.1305E+07    1.8514E-01
      79-      1
       1           1.5982E+08  2.0404E+08 -1.9386E+07 -8.2650E+04 -8.1913E+06 -4.2658E+06    2.0555E+08    1.7714E-01
      81-      1
       1          -9.1443E+07 -9.6153E+07 -1.7282E+08  2.6318E+06 -2.5417E+07 -9.8190E+06    9.2249E+07    2.3187E-01



 e l e m e n t   s t r a i n   c a l c u l a t i o n s   f o r   t i m e  s t e p      449   ( at time  8.63882E+01 )

 element  strain       eps-xx      eps-yy      eps-zz      eps-xy      eps-yz      eps-zx                            yield
 num/ipt   state
      45-      1
      1            1.7814E-01  1.1992E-01 -2.8124E-01  2.3782E-02 -1.4705E-02 -4.3282E-02
      47-      1
      1            1.4669E-01  1.5353E-01 -2.6819E-01  4.8360E-02 -3.8037E-02 -3.1541E-02
      53-      1
      1            1.4736E-01  1.4325E-01 -2.6844E-01  4.4928E-02 -3.1982E-02 -3.5772E-02
      61-      1
      1            1.8356E-01  1.2142E-01 -2.9509E-01  8.2807E-03 -9.3297E-03 -3.9694E-02
      67-      1
      1            1.3502E-01  1.5150E-01 -2.6436E-01  3.4792E-02 -3.9543E-02 -1.8324E-02
      79-      1
      1            9.0712E-02  9.3221E-02 -1.7996E-01  2.8116E-03 -2.3066E-03 -3.1283E-03
      81-      1
      1            1.2404E-01  1.6968E-01 -2.8169E-01  7.3296E-03 -4.3777E-02  4.8964E-04



 e l e m e n t   s t r e s s   c a l c u l a t i o n s   f o r   t i m e  s t e p      459   ( at time 8.87035E+01 )

 element  materl
     ipt  stress       sig-xx      sig-yy      sig-zz      sig-xy      sig-yz      sig-zx                       yield
           state                                                                                  effsg      function
      45-      1
       1          -1.0601E+08 -1.2089E+08 -2.3759E+08  5.2731E+06 -1.0636E+07 -2.4639E+07    1.3350E+08    1.9517E-01
      47-      1
       1          -8.1841E+07 -8.6185E+07 -1.6313E+08  6.4837E+06 -1.5339E+07 -2.2786E+07    9.3073E+07    1.7101E-01
      53-      1
       1          -9.5618E+07 -1.0646E+08 -2.2365E+08  5.4389E+06 -1.9784E+07 -2.0700E+07    1.3293E+08    2.0650E-01
      61-      1
       1          -1.1719E+08 -1.3537E+08 -3.4160E+08  5.1125E+06 -1.1359E+07 -3.2378E+07    2.2410E+08    2.4198E-01
      67-      1
       1          -8.0066E+07 -8.2628E+07 -1.5872E+08  2.4633E+06 -2.0628E+07 -1.9489E+07    9.1793E+07    1.8809E-01
      79-      1
       1           1.0718E+08  1.3428E+08 -4.4340E+05 -3.7765E+05  1.9495E+05 -2.6087E+06    1.2351E+08    1.8044E-01
      81-      1
       1          -1.0852E+08 -1.1934E+08 -1.8476E+08  5.5567E+06 -3.2510E+07 -7.9981E+06    9.2521E+07    2.3534E-01



 e l e m e n t   s t r a i n   c a l c u l a t i o n s   f o r   t i m e  s t e p      459   ( at time  8.87035E+01 )

 element  strain       eps-xx      eps-yy      eps-zz      eps-xy      eps-yz      eps-zx                            yield
 num/ipt   state
      45-      1
      1            1.8455E-01  1.2397E-01 -2.9117E-01  2.4252E-02 -1.4888E-02 -4.4193E-02
      47-      1
      1            1.5188E-01  1.5905E-01 -2.7832E-01  5.0069E-02 -3.8906E-02 -3.2367E-02
      53-      1
      1            1.5351E-01  1.4767E-01 -2.7830E-01  4.5951E-02 -3.3167E-02 -3.6797E-02
      61-      1
      1            1.8915E-01  1.2511E-01 -3.0435E-01  8.3731E-03 -9.8585E-03 -3.9857E-02
      67-      1
      1            1.4030E-01  1.5769E-01 -2.7483E-01  3.5675E-02 -4.0302E-02 -1.8750E-02
      79-      1
      1            9.4228E-02  9.9851E-02 -1.8742E-01  2.4537E-03 -2.5390E-03 -3.5426E-03
      81-      1
      1            1.2992E-01  1.7686E-01 -2.9273E-01  8.1873E-03 -4.5074E-02  2.3881E-04



 e l e m e n t   s t r e s s   c a l c u l a t i o n s   f o r   t i m e  s t e p      469   ( at time 9.10188E+01 )

 element  materl
     ipt  stress       sig-xx      sig-yy      sig-zz      sig-xy      sig-yz      sig-zx                       yield
           state                                                                                  effsg      function
      45-      1
       1          -9.9689E+07 -1.1565E+08 -2.3497E+08  4.9584E+06 -1.0156E+07 -2.3432E+07    1.3575E+08    1.9935E-01
      47-      1
       1          -8.3683E+07 -8.7368E+07 -1.6615E+08  6.4267E+06 -1.4032E+07 -2.2560E+07    9.3551E+07    1.7389E-01
      53-      1
       1          -9.2552E+07 -1.0314E+08 -2.2220E+08  6.6066E+06 -1.9765E+07 -2.1409E+07    1.3501E+08    2.1087E-01
      61-      1
       1          -1.2209E+08 -1.4419E+08 -3.5052E+08  4.9374E+06 -1.1187E+07 -3.0469E+07    2.2551E+08    2.4792E-01
      67-      1
       1          -8.9239E+07 -9.4781E+07 -1.7278E+08  1.7383E+06 -1.9650E+07 -1.6805E+07    9.2532E+07    1.9082E-01
      79-      1
       1           8.5356E+07  9.8008E+07  1.1173E+07  1.9375E+06  1.9100E+06 -1.4656E+06    8.1427E+07    1.8256E-01
      81-      1
       1          -8.8032E+07 -9.7732E+07 -1.6898E+08  8.9392E+05 -2.9795E+07 -6.3307E+06    9.2994E+07    2.3834E-01



 e l e m e n t   s t r a i n   c a l c u l a t i o n s   f o r   t i m e  s t e p      469   ( at time  9.10188E+01 )

 element  strain       eps-xx      eps-yy      eps-zz      eps-xy      eps-yz      eps-zx                            yield
 num/ipt   state
      45-      1
      1            1.9117E-01  1.2798E-01 -3.0115E-01  2.4714E-02 -1.5008E-02 -4.4965E-02
      47-      1
      1            1.5693E-01  1.6481E-01 -2.8854E-01  5.1788E-02 -3.9463E-02 -3.3008E-02
      53-      1
      1            1.5959E-01  1.5238E-01 -2.8825E-01  4.7208E-02 -3.4209E-02 -3.7758E-02
      61-      1
      1            1.9482E-01  1.2875E-01 -3.1358E-01  8.4331E-03 -1.0416E-02 -3.9777E-02
      67-      1
      1            1.4631E-01  1.6370E-01 -2.8556E-01  3.6591E-02 -4.0553E-02 -1.8826E-02
      79-      1
      1            9.8164E-02  1.0543E-01 -1.9454E-01  2.3056E-03 -2.5534E-03 -3.6110E-03
      81-      1
      1            1.3564E-01  1.8373E-01 -3.0284E-01  8.4215E-03 -4.5797E-02 -3.1199E-04



 e l e m e n t   s t r e s s   c a l c u l a t i o n s   f o r   t i m e  s t e p      478   ( at time 9.33341E+01 )

 element  materl
     ipt  stress       sig-xx      sig-yy      sig-zz      sig-xy      sig-yz      sig-zx                       yield
           state                                                                                  effsg      function
      45-      1
       1          -1.0047E+08 -1.0739E+08 -2.3241E+08  6.1179E+06 -8.3311E+06 -2.4024E+07    1.3636E+08    2.0304E-01
      47-      1
       1          -9.2132E+07 -9.6497E+07 -1.7539E+08  6.6602E+06 -1.1723E+07 -2.3676E+07    9.3882E+07    1.7607E-01
      53-      1
       1          -1.0679E+08 -1.1226E+08 -2.3524E+08  8.5578E+06 -1.6873E+07 -2.2897E+07    1.3592E+08    2.1426E-01
      61-      1
       1          -1.2454E+08 -1.3902E+08 -3.4793E+08  6.4782E+06 -9.4515E+06 -2.9113E+07    2.2319E+08    2.5333E-01
      67-      1
       1          -9.5558E+07 -1.0875E+08 -1.8582E+08  3.5054E+06 -1.7296E+07 -1.3708E+07    9.2887E+07    1.9328E-01
      79-      1
       1           4.3106E+07  5.0630E+07  6.1665E+06  1.5693E+06  8.5067E+06  1.9129E+04    4.3858E+07    1.8345E-01
      81-      1
       1          -6.4627E+07 -7.3080E+07 -1.4873E+08  4.4085E+06 -2.6281E+07 -4.4134E+06    9.2861E+07    2.4128E-01



 e l e m e n t   s t r a i n   c a l c u l a t i o n s   f o r   t i m e  s t e p      478   ( at time  9.33341E+01 )

 element  strain       eps-xx      eps-yy      eps-zz      eps-xy      eps-yz      eps-zx                            yield
 num/ipt   state
      45-      1
      1            1.9604E-01  1.3226E-01 -3.0989E-01  2.5439E-02 -1.5198E-02 -4.5632E-02
      47-      1
      1            1.6101E-01  1.6893E-01 -2.9687E-01  5.2983E-02 -3.9637E-02 -3.3200E-02
      53-      1
      1            1.6378E-01  1.5650E-01 -2.9651E-01  4.8130E-02 -3.4588E-02 -3.8240E-02
      61-      1
      1            1.9947E-01  1.3227E-01 -3.2135E-01  8.7288E-03 -1.0972E-02 -4.0248E-02
      67-      1
      1            1.5174E-01  1.6827E-01 -2.9474E-01  3.6980E-02 -4.1236E-02 -1.8932E-02
      79-      1
      1            1.0158E-01  1.1103E-01 -2.0148E-01  2.2581E-03 -2.1517E-03 -3.8933E-03
      81-      1
      1            1.4088E-01  1.8921E-01 -3.1253E-01  7.9863E-03 -4.6585E-02 -5.6590E-04



 e l e m e n t   s t r e s s   c a l c u l a t i o n s   f o r   t i m e  s t e p      488   ( at time 9.56494E+01 )

 element  materl
     ipt  stress       sig-xx      sig-yy      sig-zz      sig-xy      sig-yz      sig-zx                       yield
           state                                                                                  effsg      function
      45-      1
       1          -1.0189E+08 -1.1449E+08 -2.3485E+08  5.8304E+06 -1.2460E+07 -2.4258E+07    1.3599E+08    2.0699E-01
      47-      1
       1          -9.2425E+07 -9.6803E+07 -1.7751E+08  6.2302E+06 -1.1978E+07 -2.2161E+07    9.4372E+07    1.7863E-01
      53-      1
       1          -1.0995E+08 -1.1858E+08 -2.4096E+08  8.9183E+06 -1.7105E+07 -2.0971E+07    1.3618E+08    2.1818E-01
      61-      1
       1          -4.5692E+07 -8.9382E+07 -2.8275E+08 -7.9786E+06 -4.8317E+06 -3.2705E+07    2.2631E+08    2.6132E-01
      67-      1
       1          -7.9970E+07 -9.2292E+07 -1.6857E+08  2.0238E+06 -1.8452E+07 -1.4979E+07    9.2823E+07    1.9612E-01
      79-      1
       1           0.0000E+00  0.0000E+00  0.0000E+00  0.0000E+00  0.0000E+00  0.0000E+00    0.0000E+00    1.8345E-01
      81-      1
       1          -1.2642E+07 -1.3550E+07 -9.1531E+07  5.9880E+06 -2.6586E+07 -7.4558E+06    9.2453E+07    2.4464E-01



 e l e m e n t   s t r a i n   c a l c u l a t i o n s   f o r   t i m e  s t e p      488   ( at time  9.56494E+01 )

 element  strain       eps-xx      eps-yy      eps-zz      eps-xy      eps-yz      eps-zx                            yield
 num/ipt   state
      45-      1
      1            2.0177E-01  1.3622E-01 -3.1930E-01  2.6447E-02 -1.5495E-02 -4.6163E-02
      47-      1
      1            1.6601E-01  1.7405E-01 -3.0654E-01  5.4400E-02 -3.9770E-02 -3.3536E-02
      53-      1
      1            1.6890E-01  1.6112E-01 -3.0601E-01  4.9392E-02 -3.5148E-02 -3.8597E-02
      61-      1
      1            2.0750E-01  1.3633E-01 -3.3236E-01  8.5339E-03 -1.0534E-02 -4.0823E-02
      67-      1
      1            1.5794E-01  1.7406E-01 -3.0475E-01  3.7175E-02 -4.1821E-02 -1.9094E-02
      79-      1
      1            1.0578E-01  1.1718E-01 -2.0934E-01  2.0829E-03 -2.0804E-03 -4.0332E-03
      81-      1
      1            1.4616E-01  1.9647E-01 -3.2190E-01  7.8526E-03 -4.7833E-02 -1.1780E-03



 e l e m e n t   s t r e s s   c a l c u l a t i o n s   f o r   t i m e  s t e p      497   ( at time 9.79647E+01 )

 element  materl
     ipt  stress       sig-xx      sig-yy      sig-zz      sig-xy      sig-yz      sig-zx                       yield
           state                                                                                  effsg      function
      45-      1
       1          -1.0838E+08 -1.2088E+08 -2.4372E+08  6.7020E+06 -1.1679E+07 -2.0844E+07    1.3649E+08    2.1034E-01
      47-      1
       1          -9.6366E+07 -1.0174E+08 -1.8097E+08  5.4031E+06 -1.3740E+07 -2.2985E+07    9.4715E+07    1.8098E-01
      53-      1
       1          -1.1408E+08 -1.2515E+08 -2.5007E+08  6.4786E+06 -1.6840E+07 -2.0066E+07    1.3891E+08    2.2177E-01
      61-      1
       1          -4.9369E+07 -8.3085E+07 -2.3959E+08 -8.9733E+06 -2.0252E+06 -2.8299E+07    1.8320E+08    2.6698E-01
      67-      1
       1          -8.3891E+07 -9.8778E+07 -1.7308E+08  2.2343E+06 -2.0061E+07 -1.5005E+07    9.3520E+07    1.9864E-01
      79-      1
       1           0.0000E+00  0.0000E+00  0.0000E+00  0.0000E+00  0.0000E+00  0.0000E+00    0.0000E+00    1.8345E-01
      81-      1
       1           1.0450E+07  1.6394E+07 -6.9828E+07  3.2550E+06 -2.3514E+07 -6.5157E+06    9.3675E+07    2.4760E-01



 e l e m e n t   s t r a i n   c a l c u l a t i o n s   f o r   t i m e  s t e p      497   ( at time  9.79647E+01 )

 element  strain       eps-xx      eps-yy      eps-zz      eps-xy      eps-yz      eps-zx                            yield
 num/ipt   state
      45-      1
      1            2.0705E-01  1.3958E-01 -3.2795E-01  2.6924E-02 -1.5564E-02 -4.6247E-02
      47-      1
      1            1.7058E-01  1.7796E-01 -3.1507E-01  5.5461E-02 -4.0111E-02 -3.4023E-02
      53-      1
      1            1.7396E-01  1.6495E-01 -3.1475E-01  5.0078E-02 -3.5649E-02 -3.9200E-02
      61-      1
      1            2.1450E-01  1.3995E-01 -3.4305E-01  8.3694E-03 -9.7645E-03 -4.0709E-02
      67-      1
      1            1.6337E-01  1.7851E-01 -3.1364E-01  3.7306E-02 -4.2571E-02 -1.9223E-02
      79-      1
      1            1.0900E-01  1.2209E-01 -2.1528E-01  1.9481E-03 -2.0159E-03 -4.1906E-03
      81-      1
      1            1.5021E-01  2.0317E-01 -3.3097E-01  7.7016E-03 -4.9214E-02 -1.6455E-03



 e l e m e n t   s t r e s s   c a l c u l a t i o n s   f o r   t i m e  s t e p      507   ( at time 1.00000E+02 )

 element  materl
     ipt  stress       sig-xx      sig-yy      sig-zz      sig-xy      sig-yz      sig-zx                       yield
           state                                                                                  effsg      function
      45-      1
       1          -1.1654E+08 -1.2526E+08 -2.4604E+08  6.0346E+06 -1.4320E+07 -2.3160E+07    1.3436E+08    2.1349E-01
      47-      1
       1          -8.2610E+07 -8.7144E+07 -1.6526E+08  4.6431E+06 -1.4559E+07 -2.4906E+07    9.5070E+07    1.8338E-01
      53-      1
       1          -1.0998E+08 -1.2014E+08 -2.4626E+08  6.6461E+06 -1.7473E+07 -1.9342E+07    1.3950E+08    2.2553E-01
      61-      1
       1          -5.1603E+07 -7.9234E+07 -2.3775E+08 -9.1365E+06  9.2830E+05 -2.8422E+07    1.8151E+08    2.7226E-01
      67-      1
       1          -6.6346E+07 -8.4461E+07 -1.5418E+08  9.6004E+05 -2.2542E+07 -1.6049E+07    9.3550E+07    2.0108E-01
      79-      1
       1           0.0000E+00  0.0000E+00  0.0000E+00  0.0000E+00  0.0000E+00  0.0000E+00    0.0000E+00    1.8345E-01
      81-      1
       1           3.4421E+07  3.7791E+07 -4.5792E+07  2.6499E+06 -2.5855E+07 -6.8380E+06    9.4247E+07    2.5058E-01



 e l e m e n t   s t r a i n   c a l c u l a t i o n s   f o r   t i m e  s t e p      507   ( at time  1.00000E+02 )

 element  strain       eps-xx      eps-yy      eps-zz      eps-xy      eps-yz      eps-zx                            yield
 num/ipt   state
      45-      1
      1            2.1250E-01  1.4275E-01 -3.3658E-01  2.6718E-02 -1.5632E-02 -4.5785E-02
      47-      1
      1            1.7528E-01  1.8235E-01 -3.2307E-01  5.6599E-02 -4.0421E-02 -3.4839E-02
      53-      1
      1            1.7954E-01  1.6874E-01 -3.2342E-01  5.0961E-02 -3.6225E-02 -4.0144E-02
      61-      1
      1            2.2049E-01  1.4356E-01 -3.5337E-01  8.3905E-03 -8.9636E-03 -4.0276E-02
      67-      1
      1            1.6884E-01  1.8320E-01 -3.2176E-01  3.7262E-02 -4.3123E-02 -1.9093E-02
      79-      1
      1            1.1267E-01  1.2861E-01 -2.2307E-01  1.8308E-03 -2.2863E-03 -4.2081E-03
      81-      1
      1            1.5486E-01  2.1018E-01 -3.4027E-01  7.4190E-03 -5.0288E-02 -1.9084E-03
